# generated using pymatgen
data_H32C55N8
_symmetry_space_group_name_H-M   'P 1'
_cell_length_a   58.72220000
_cell_length_b   74.46160000
_cell_length_c   74.46160000
_cell_angle_alpha   90.00000000
_cell_angle_beta   90.00000000
_cell_angle_gamma   90.00000000
_symmetry_Int_Tables_number   1
_chemical_formula_structural   H32C55N8
_chemical_formula_sum   'H512 C880 N128'
_cell_volume   325586.99219989
_cell_formula_units_Z   16
loop_
 _symmetry_equiv_pos_site_id
 _symmetry_equiv_pos_as_xyz
  1  'x, y, z'
loop_
 _atom_site_type_symbol
 _atom_site_label
 _atom_site_symmetry_multiplicity
 _atom_site_fract_x
 _atom_site_fract_y
 _atom_site_fract_z
 _atom_site_occupancy
  H  25  1  0.85163100  0.07853000  0.40404200  1
  H  26  1  0.82891300  0.10434100  0.41111300  1
  H  27  1  0.80923600  0.13453000  0.41338900  1
  H  28  1  0.79557300  0.16472400  0.41072500  1
  H  29  1  0.85649100  0.17955000  0.38390800  1
  H  30  1  0.90037400  0.11198600  0.37862100  1
  H  31  1  0.89330800  0.14771900  0.42088700  1
  H  32  1  0.95433600  0.17343700  0.40463400  1
  H  33  1  0.94209700  0.17215900  0.37380300  1
  H  34  1  0.85140400  0.13543600  0.35306400  1
  H  35  1  0.92335300  0.16686900  0.34371000  1
  H  36  1  0.90087100  0.15807700  0.31827800  1
  H  42  1  0.89833500  0.07801100  0.37346000  1
  H  43  1  0.82581200  0.20135600  0.38750000  1
  H  44  1  0.85448300  0.12806500  0.31875900  1
  H  45  1  0.92203000  0.16573900  0.44270900  1
  H  70  1  0.35171400  0.42110600  0.57869300  1
  H  71  1  0.32901500  0.39528800  0.57160700  1
  H  72  1  0.30930900  0.36510600  0.56938600  1
  H  73  1  0.29566700  0.33490700  0.57201700  1
  H  74  1  0.35657600  0.32008400  0.59885100  1
  H  75  1  0.40040400  0.38767000  0.60421000  1
  H  76  1  0.39336600  0.35195300  0.56190300  1
  H  77  1  0.45442100  0.32626400  0.57813600  1
  H  78  1  0.44219200  0.32752600  0.60896900  1
  H  79  1  0.35145700  0.36416900  0.62973700  1
  H  80  1  0.42350100  0.33287000  0.63907000  1
  H  81  1  0.40101400  0.34163100  0.66450900  1
  H  87  1  0.39840300  0.42163300  0.60934000  1
  H  88  1  0.32589900  0.29827300  0.59524100  1
  H  89  1  0.35448800  0.37152700  0.66403800  1
  H  90  1  0.42209100  0.33394000  0.54007700  1
  H  115  1  0.10345500  0.83169700  0.82040000  1
  H  116  1  0.07844300  0.82937800  0.84591800  1
  H  117  1  0.05769700  0.83067800  0.87567200  1
  H  118  1  0.04408600  0.83508800  0.90568200  1
  H  119  1  0.10696200  0.85928600  0.91992300  1
  H  120  1  0.15324900  0.85718200  0.85282200  1
  H  121  1  0.14234000  0.81992900  0.89014800  1
  H  122  1  0.20364000  0.83596700  0.91561600  1
  H  123  1  0.19261700  0.86696200  0.91277300  1
  H  124  1  0.10334900  0.88815600  0.87424800  1
  H  125  1  0.17520600  0.89715900  0.90592700  1
  H  126  1  0.15370400  0.92272000  0.89598700  1
  H  132  1  0.15820400  0.83805200  0.81873500  1
  H  133  1  0.07516600  0.85881700  0.94130000  1
  H  134  1  0.10771400  0.92259000  0.86601200  1
  H  135  1  0.17079100  0.79818500  0.90921200  1
  H  160  1  0.60361700  0.66807500  0.16232000  1
  H  161  1  0.57849200  0.67034800  0.13686000  1
  H  162  1  0.55760000  0.66894900  0.10715500  1
  H  163  1  0.54391200  0.66453300  0.07716400  1
  H  164  1  0.60678600  0.64040000  0.06281300  1
  H  165  1  0.65326800  0.64253000  0.12981400  1
  H  166  1  0.64222100  0.67977600  0.09253400  1
  H  167  1  0.70344500  0.66376800  0.06693300  1
  H  168  1  0.69244900  0.63276500  0.06978700  1
  H  169  1  0.60329300  0.61152500  0.10845000  1
  H  170  1  0.67507200  0.60256000  0.07664700  1
  H  171  1  0.65359800  0.57698700  0.08659100  1
  H  177  1  0.65780400  0.66230500  0.16411800  1
  H  178  1  0.57496500  0.64087500  0.04148100  1
  H  179  1  0.60769000  0.57707700  0.11665000  1
  H  180  1  0.67067500  0.70152100  0.07335800  1
  H  205  1  0.65112000  0.42328100  0.39981300  1
  H  206  1  0.67373000  0.39788200  0.40850900  1
  H  207  1  0.69255300  0.36780300  0.41379600  1
  H  208  1  0.70481700  0.33697800  0.41512100  1
  H  209  1  0.64373100  0.32064600  0.38954700  1
  H  210  1  0.60164500  0.38841800  0.37730600  1
  H  211  1  0.60678600  0.35762300  0.42130000  1
  H  212  1  0.54605100  0.33056500  0.40644000  1
  H  213  1  0.55980000  0.32787800  0.37627700  1
  H  214  1  0.65067900  0.36305200  0.35377700  1
  H  215  1  0.57950800  0.33017400  0.34611400  1
  H  216  1  0.60214400  0.33739700  0.32030600  1
  H  222  1  0.60456500  0.42280100  0.37000300  1
  H  223  1  0.67243900  0.29887500  0.40755100  1
  H  224  1  0.64868200  0.36827700  0.31993000  1
  H  225  1  0.57607700  0.35395800  0.44307300  1
  H  250  1  0.15123800  0.07637200  0.58289500  1
  H  251  1  0.17384200  0.10178700  0.57423200  1
  H  252  1  0.19261900  0.13187900  0.56893000  1
  H  253  1  0.20486600  0.16270900  0.56763200  1
  H  254  1  0.14375000  0.17900100  0.59318800  1
  H  255  1  0.10169000  0.11120400  0.60535000  1
  H  256  1  0.10685700  0.14204600  0.56139300  1
  H  257  1  0.04613500  0.16913300  0.57623800  1
  H  258  1  0.05986300  0.17179700  0.60640800  1
  H  259  1  0.15070700  0.13658200  0.62893600  1
  H  260  1  0.07960400  0.16956400  0.63656800  1
  H  261  1  0.10222900  0.16234100  0.66238000  1
  H  267  1  0.10469300  0.07679500  0.61265700  1
  H  268  1  0.17246500  0.20078700  0.57518900  1
  H  269  1  0.14881400  0.13142900  0.66276600  1
  H  270  1  0.07617100  0.14574900  0.53960400  1
  H  295  1  0.39777100  0.66352200  0.81858400  1
  H  296  1  0.42308000  0.66771100  0.84362400  1
  H  297  1  0.44360900  0.66987000  0.87335800  1
  H  298  1  0.45652600  0.66988000  0.90403300  1
  H  299  1  0.39403300  0.64661100  0.92051500  1
  H  300  1  0.34805400  0.64114700  0.85330200  1
  H  301  1  0.35739800  0.68059500  0.88573200  1
  H  302  1  0.29740600  0.66585900  0.91389300  1
  H  303  1  0.31016100  0.63535200  0.91491100  1
  H  304  1  0.39855100  0.61234300  0.87633400  1
  H  305  1  0.32854900  0.60493600  0.91081500  1
  H  306  1  0.35006700  0.57895400  0.90216000  1
  H  312  1  0.34203900  0.65765000  0.81899800  1
  H  313  1  0.42363000  0.66262400  0.94232500  1
  H  314  1  0.39540600  0.57840000  0.87041800  1
  H  315  1  0.32778400  0.70294600  0.89150100  1
  H  340  1  0.89802900  0.83613200  0.16409500  1
  H  341  1  0.92325300  0.83198300  0.13900100  1
  H  342  1  0.94367400  0.82984500  0.10923600  1
  H  343  1  0.95652400  0.82990400  0.07854700  1
  H  344  1  0.89395200  0.85312700  0.06218600  1
  H  345  1  0.84813100  0.85843700  0.12949200  1
  H  346  1  0.85738500  0.81906500  0.09706300  1
  H  347  1  0.79717900  0.83382700  0.06920100  1
  H  348  1  0.80994800  0.86432500  0.06811800  1
  H  349  1  0.89852100  0.88732100  0.10641500  1
  H  350  1  0.82837500  0.89472300  0.07211400  1
  H  351  1  0.84988200  0.92071100  0.08077800  1
  H  357  1  0.84190200  0.84240200  0.16362300  1
  H  358  1  0.92356600  0.83715000  0.04031500  1
  H  359  1  0.89527800  0.92125900  0.11243000  1
  H  360  1  0.82759700  0.79677900  0.09162200  1
  H  385  1  0.14561800  0.92060100  0.57351300  1
  H  386  1  0.17085900  0.89521100  0.57131100  1
  H  387  1  0.19179800  0.86552900  0.57263500  1
  H  388  1  0.20552500  0.83553400  0.57693100  1
  H  389  1  0.14265500  0.82102700  0.60097800  1
  H  390  1  0.09599300  0.88796400  0.59892100  1
  H  391  1  0.10718100  0.85086600  0.56171500  1
  H  392  1  0.04583700  0.82539500  0.57763300  1
  H  393  1  0.05683600  0.82812800  0.60864500  1
  H  394  1  0.14615800  0.86648400  0.63002000  1
  H  395  1  0.07430200  0.83477000  0.63888800  1
  H  396  1  0.09585000  0.84454300  0.66449400  1
  H  402  1  0.09104600  0.92194000  0.57928300  1
  H  403  1  0.17452000  0.79972900  0.60044900  1
  H  404  1  0.14191300  0.87446400  0.66452700  1
  H  405  1  0.07877100  0.83189200  0.53989300  1
  H  430  1  0.64598400  0.57912300  0.40896300  1
  H  431  1  0.67111600  0.60457600  0.41115400  1
  H  432  1  0.69191900  0.63430400  0.40983900  1
  H  433  1  0.70552400  0.66433000  0.40554300  1
  H  434  1  0.64251500  0.67872800  0.38165600  1
  H  435  1  0.59610700  0.61167500  0.38375100  1
  H  436  1  0.60721900  0.64881000  0.42093900  1
  H  437  1  0.54578700  0.67418700  0.40507500  1
  H  438  1  0.55674200  0.67146300  0.37405300  1
  H  439  1  0.64614800  0.63328400  0.35259000  1
  H  440  1  0.57412900  0.66478600  0.34379700  1
  H  441  1  0.59567300  0.65506800  0.31816800  1
  H  447  1  0.59087700  0.57790600  0.40280600  1
  H  448  1  0.67439900  0.70005800  0.38205200  1
  H  449  1  0.64194300  0.62531600  0.31809300  1
  H  450  1  0.57876900  0.66776200  0.44278000  1
  H  475  1  0.89704300  0.16597800  0.16230700  1
  H  476  1  0.92152700  0.16961900  0.13663700  1
  H  477  1  0.94153500  0.17007400  0.10658300  1
  H  478  1  0.95449600  0.16740600  0.07622100  1
  H  479  1  0.89217900  0.14239300  0.06179700  1
  H  480  1  0.84754500  0.14054400  0.12957800  1
  H  481  1  0.85667500  0.17947000  0.09351700  1
  H  482  1  0.79407700  0.16323000  0.07022200  1
  H  483  1  0.80584500  0.13232200  0.07191900  1
  H  484  1  0.89991900  0.11159400  0.10292800  1
  H  485  1  0.82517900  0.10231900  0.07578000  1
  H  486  1  0.84959700  0.07700000  0.08124200  1
  H  492  1  0.84173500  0.15847800  0.16330700  1
  H  493  1  0.92307700  0.14486800  0.03986800  1
  H  494  1  0.90606000  0.07759000  0.08796100  1
  H  495  1  0.82735900  0.20120200  0.07614700  1
  H  520  1  0.39678400  0.33364900  0.82039100  1
  H  521  1  0.42136700  0.32999200  0.84600400  1
  H  522  1  0.44154000  0.32961300  0.87600100  1
  H  523  1  0.45461400  0.33228000  0.90633600  1
  H  524  1  0.39232900  0.35725900  0.92090400  1
  H  525  1  0.34746300  0.35914800  0.85323200  1
  H  526  1  0.35666900  0.32019100  0.88920600  1
  H  527  1  0.29416800  0.33643500  0.91265700  1
  H  528  1  0.30596800  0.36733800  0.91098800  1
  H  529  1  0.39995100  0.38805600  0.87980000  1
  H  530  1  0.32533200  0.39733200  0.90715800  1
  H  531  1  0.34975200  0.42264500  0.90167600  1
  H  537  1  0.34191200  0.34067600  0.81932300  1
  H  538  1  0.42325400  0.35473500  0.94278000  1
  H  539  1  0.40617900  0.42208100  0.89477100  1
  H  540  1  0.32734700  0.29846400  0.90666100  1
  H  565  1  0.35209700  0.57722200  0.57791400  1
  H  566  1  0.32677400  0.60228000  0.57393800  1
  H  567  1  0.30631500  0.63202900  0.57185600  1
  H  568  1  0.29347700  0.66271900  0.57185900  1
  H  569  1  0.35611800  0.67912600  0.59493600  1
  H  570  1  0.40202200  0.61185000  0.60013900  1
  H  571  1  0.39258100  0.64423300  0.56088900  1
  H  572  1  0.45293500  0.67193800  0.57556000  1
  H  573  1  0.44025300  0.67303400  0.60608400  1
  H  574  1  0.35147000  0.63509300  0.62921400  1
  H  575  1  0.42185100  0.66911400  0.63651900  1
  H  576  1  0.40024600  0.66065500  0.66253500  1
  H  582  1  0.40831100  0.57793400  0.58385900  1
  H  583  1  0.32645800  0.70097300  0.57897800  1
  H  584  1  0.35473100  0.62924100  0.66329500  1
  H  585  1  0.42235300  0.64957100  0.53856200  1
  H  610  1  0.85242200  0.92253600  0.40493800  1
  H  611  1  0.82698700  0.89755100  0.40895400  1
  H  612  1  0.80637500  0.86786200  0.41103700  1
  H  613  1  0.79340200  0.83720600  0.41106000  1
  H  614  1  0.85590800  0.82062600  0.38788200  1
  H  615  1  0.90209200  0.88777200  0.38257300  1
  H  616  1  0.89255400  0.85543800  0.42187700  1
  H  617  1  0.95271000  0.82747200  0.40720600  1
  H  618  1  0.93999100  0.82638600  0.37669000  1
  H  619  1  0.85142800  0.86465800  0.35356900  1
  H  620  1  0.92152700  0.83027500  0.34626700  1
  H  621  1  0.89994800  0.83878400  0.32025500  1
  H  627  1  0.90831400  0.92183900  0.39918600  1
  H  628  1  0.82619200  0.79886300  0.40388900  1
  H  629  1  0.85462400  0.87042200  0.31950200  1
  H  630  1  0.92223300  0.84989600  0.44422200  1
  H  655  1  0.60019600  0.34015900  0.16420500  1
  H  656  1  0.57554100  0.33481400  0.13901100  1
  H  657  1  0.55600300  0.33093000  0.10908900  1
  H  658  1  0.54412800  0.32903500  0.07821600  1
  H  659  1  0.60674500  0.35209400  0.06168800  1
  H  660  1  0.65040200  0.36161700  0.12936800  1
  H  661  1  0.64233500  0.32056100  0.09886900  1
  H  662  1  0.70450700  0.33474400  0.07349900  1
  H  663  1  0.69157700  0.36509700  0.07066300  1
  H  664  1  0.59793400  0.38844100  0.10060000  1
  H  665  1  0.67164200  0.39518500  0.07101700  1
  H  666  1  0.64730700  0.42094300  0.07473000  1
  H  672  1  0.65667000  0.34639600  0.16327300  1
  H  673  1  0.57735800  0.33465700  0.04013200  1
  H  674  1  0.59251200  0.42249000  0.08228500  1
  H  675  1  0.67315100  0.29856300  0.09637200  1
  H  700  1  0.10013600  0.15955700  0.81851600  1
  H  701  1  0.07550700  0.16489400  0.84372400  1
  H  702  1  0.05600700  0.16879300  0.87364900  1
  H  703  1  0.04412300  0.17063800  0.90452000  1
  H  704  1  0.10672700  0.14754300  0.92102700  1
  H  705  1  0.15038000  0.13809400  0.85332200  1
  H  706  1  0.14233100  0.17913000  0.88381400  1
  H  707  1  0.20461800  0.16491600  0.90899200  1
  H  708  1  0.19167900  0.13456700  0.91186100  1
  H  709  1  0.09796000  0.11124000  0.88207600  1
  H  710  1  0.17172700  0.10449200  0.91156400  1
  H  711  1  0.14742100  0.07872300  0.90782100  1
  H  717  1  0.15678000  0.15306800  0.81948400  1
  H  718  1  0.07729800  0.16500100  0.94259300  1
  H  719  1  0.09254100  0.07722700  0.90027400  1
  H  720  1  0.17326300  0.20106900  0.88610500  1
  H  727  1  0.79813600  0.22219100  0.37498400  1
  H  736  1  0.76177900  0.27647100  0.35853700  1
  H  737  1  0.78582200  0.25041500  0.35943000  1
  H  738  1  0.73160100  0.29558100  0.37293700  1
  H  739  1  0.70236000  0.27783700  0.42146300  1
  H  741  1  0.77584100  0.19367300  0.43012000  1
  H  742  1  0.74704700  0.20050600  0.42934400  1
  H  743  1  0.76731800  0.21338100  0.44144400  1
  H  752  1  0.29817400  0.27747100  0.60777900  1
  H  761  1  0.26174800  0.22323100  0.62426000  1
  H  762  1  0.28581900  0.24927100  0.62335500  1
  H  763  1  0.23157700  0.20411900  0.60985700  1
  H  764  1  0.20240700  0.22182300  0.56128900  1
  H  766  1  0.27597400  0.30594000  0.55259500  1
  H  767  1  0.24717100  0.29912600  0.55336200  1
  H  768  1  0.26744100  0.28622700  0.54128600  1
  H  777  1  0.04870100  0.86969300  0.96346700  1
  H  786  1  0.01266800  0.88602500  0.01791600  1
  H  787  1  0.03652700  0.88521100  0.99174800  1
  H  788  1  0.98266600  0.87152600  0.03715400  1
  H  789  1  0.95363000  0.82288100  0.01953800  1
  H  791  1  0.02651100  0.81440100  0.93511400  1
  H  792  1  0.99778700  0.81505600  0.94213800  1
  H  793  1  0.01828700  0.80308100  0.95490300  1
  H  802  1  0.54858000  0.63003900  0.01928300  1
  H  811  1  0.51276200  0.61382000  0.96471900  1
  H  812  1  0.53652100  0.61458300  0.99094400  1
  H  813  1  0.48279700  0.62833100  0.94546100  1
  H  814  1  0.45363100  0.67690900  0.96313100  1
  H  816  1  0.52620300  0.68522800  0.04774700  1
  H  817  1  0.49750900  0.68457400  0.04064900  1
  H  818  1  0.51805000  0.69659700  0.02796800  1
  H  827  1  0.20111000  0.77770200  0.61143100  1
  H  836  1  0.23724400  0.72330800  0.62778400  1
  H  837  1  0.21333200  0.74944300  0.62695300  1
  H  838  1  0.26730400  0.70411500  0.61331800  1
  H  839  1  0.29639200  0.72176500  0.56470300  1
  H  841  1  0.22328900  0.80610000  0.55616600  1
  H  842  1  0.25202900  0.79911800  0.55683300  1
  H  843  1  0.23156800  0.78632800  0.54484500  1
  H  852  1  0.70091400  0.72222200  0.37123400  1
  H  861  1  0.73706900  0.77663800  0.35497800  1
  H  862  1  0.71316200  0.75049700  0.35575400  1
  H  863  1  0.76709000  0.79582800  0.36950600  1
  H  864  1  0.79603300  0.77815700  0.41816700  1
  H  866  1  0.72295700  0.69379700  0.42652200  1
  H  867  1  0.75169200  0.70079800  0.42590800  1
  H  868  1  0.73118500  0.71356700  0.43787400  1
  H  877  1  0.95060200  0.13256800  0.01874400  1
  H  886  1  0.98771500  0.11562000  0.96493400  1
  H  887  1  0.96321200  0.11679800  0.99071600  1
  H  888  1  0.01830600  0.12978100  0.94606100  1
  H  889  1  0.04751000  0.17833900  0.96378400  1
  H  891  1  0.97277700  0.18782800  0.04708700  1
  H  892  1  0.00167300  0.18687900  0.04053400  1
  H  893  1  0.98169000  0.19900300  0.02740300  1
  H  902  1  0.45071200  0.36705000  0.96390500  1
  H  911  1  0.48763700  0.38390500  0.01782000  1
  H  912  1  0.46319800  0.38275400  0.99199900  1
  H  913  1  0.51825200  0.36976500  0.03667900  1
  H  914  1  0.54769300  0.32134300  0.01883800  1
  H  916  1  0.47318400  0.31195000  0.93539100  1
  H  917  1  0.50205900  0.31294700  0.94198600  1
  H  918  1  0.48209600  0.30073100  0.95505100  1
  H  927  1  0.29948000  0.72311400  0.87763900  1
  H  936  1  0.26174400  0.77660600  0.86049200  1
  H  937  1  0.28672100  0.75112000  0.86187900  1
  H  938  1  0.23047700  0.79501500  0.87431100  1
  H  939  1  0.20023300  0.77652300  0.92217900  1
  H  941  1  0.27633900  0.69400500  0.93221500  1
  H  942  1  0.24731900  0.70011700  0.93075400  1
  H  943  1  0.26657900  0.71343600  0.94339000  1
  H  952  1  0.79922300  0.77658800  0.10528300  1
  H  961  1  0.76127800  0.72318900  0.12242400  1
  H  962  1  0.78630400  0.74864500  0.12107200  1
  H  963  1  0.73010200  0.70475300  0.10851000  1
  H  964  1  0.70028100  0.72309900  0.06042200  1
  H  966  1  0.77657500  0.80551700  0.05048100  1
  H  967  1  0.74753900  0.79942700  0.05181200  1
  H  968  1  0.76689100  0.78605400  0.03932200  1
  H  977  1  0.54830700  0.36647600  0.46383500  1
  H  986  1  0.51158700  0.38297700  0.51795000  1
  H  987  1  0.53581800  0.38205500  0.49200100  1
  H  988  1  0.48127000  0.36859400  0.53694000  1
  H  989  1  0.45208000  0.32009500  0.51906500  1
  H  991  1  0.52612000  0.31134700  0.43524200  1
  H  992  1  0.49727600  0.31216800  0.44193900  1
  H  993  1  0.51742100  0.30004600  0.45491500  1
  H  1002  1  0.04840400  0.13324900  0.51882600  1
  H  1011  1  0.01161400  0.11674600  0.46474000  1
  H  1012  1  0.03588600  0.11767400  0.49066500  1
  H  1013  1  0.98124400  0.13111300  0.44579200  1
  H  1014  1  0.95205100  0.17959300  0.46370400  1
  H  1016  1  0.02620800  0.18835600  0.54745900  1
  H  1017  1  0.99735400  0.18752200  0.54078600  1
  H  1018  1  0.01747300  0.19966000  0.52779800  1
  H  1027  1  0.70050200  0.27725300  0.10852400  1
  H  1036  1  0.73755800  0.22338500  0.12539300  1
  H  1037  1  0.71305100  0.24916700  0.12423700  1
  H  1038  1  0.76822900  0.20457000  0.11124700  1
  H  1039  1  0.79768300  0.22250700  0.06286600  1
  H  1041  1  0.72299100  0.30580500  0.05343900  1
  H  1042  1  0.75188800  0.29927600  0.05449200  1
  H  1043  1  0.73201100  0.28616500  0.04224100  1
  H  1052  1  0.20067500  0.22237100  0.87404800  1
  H  1061  1  0.23785400  0.27618500  0.85717100  1
  H  1062  1  0.21334000  0.25040400  0.85830000  1
  H  1063  1  0.26841000  0.29505500  0.87140100  1
  H  1064  1  0.29752300  0.27726800  0.91996700  1
  H  1066  1  0.22276800  0.19399800  0.92932600  1
  H  1067  1  0.25167200  0.20052600  0.92838200  1
  H  1068  1  0.23170300  0.21367500  0.94050200  1
  H  1077  1  0.45060100  0.63591800  0.51827000  1
  H  1086  1  0.48820400  0.61881400  0.46470800  1
  H  1087  1  0.46334600  0.62015100  0.49026600  1
  H  1088  1  0.51927200  0.63272900  0.44616200  1
  H  1089  1  0.54926100  0.68077500  0.46443100  1
  H  1091  1  0.47347900  0.69067200  0.54717900  1
  H  1092  1  0.50246900  0.68935300  0.54095900  1
  H  1093  1  0.48301900  0.70185200  0.52768300  1
  H  1102  1  0.95047100  0.86360400  0.46449700  1
  H  1111  1  0.98804100  0.88068600  0.51808100  1
  H  1112  1  0.96317600  0.87934700  0.49252600  1
  H  1113  1  0.01917100  0.86680700  0.53658800  1
  H  1114  1  0.04929300  0.81884500  0.51823100  1
  H  1116  1  0.97351100  0.80894900  0.43548500  1
  H  1117  1  0.00250200  0.81031300  0.44169800  1
  H  1118  1  0.98309700  0.79775600  0.45495900  1
  H  1127  1  0.86105100  0.11902300  0.28659100  1
  H  1136  1  0.86301500  0.09883000  0.22663500  1
  H  1137  1  0.86195500  0.10022900  0.25879500  1
  H  1138  1  0.86369900  0.11516100  0.19713000  1
  H  1139  1  0.84750400  0.17024500  0.19663000  1
  H  1141  1  0.84719300  0.18146000  0.29772300  1
  H  1142  1  0.82904500  0.18572700  0.27932100  1
  H  1143  1  0.85887000  0.18885400  0.27710800  1
  H  1152  1  0.36081400  0.38062400  0.69619500  1
  H  1161  1  0.36234000  0.40091000  0.75613600  1
  H  1162  1  0.36138500  0.39946400  0.72397200  1
  H  1163  1  0.36310300  0.38463300  0.78567800  1
  H  1164  1  0.34772000  0.32940200  0.78619900  1
  H  1166  1  0.34782400  0.31805500  0.68512400  1
  H  1167  1  0.32971700  0.31365600  0.70352000  1
  H  1168  1  0.35958300  0.31079200  0.70575600  1
  H  1177  1  0.11289100  0.95501900  0.85779400  1
  H  1186  1  0.11383600  0.01543400  0.83890600  1
  H  1187  1  0.11320900  0.98323400  0.83960500  1
  H  1188  1  0.11430600  0.04458200  0.85587100  1
  H  1189  1  0.09884900  0.04374000  0.91107200  1
  H  1191  1  0.09983900  0.94244400  0.92009900  1
  H  1192  1  0.08155200  0.96063400  0.92486300  1
  H  1193  1  0.11138600  0.96297200  0.92784600  1
  H  1202  1  0.61285900  0.54466600  0.12485000  1
  H  1211  1  0.61382400  0.48423000  0.14373300  1
  H  1212  1  0.61320100  0.51642700  0.14304000  1
  H  1213  1  0.61425000  0.45507000  0.12676500  1
  H  1214  1  0.59882500  0.45593400  0.07155900  1
  H  1216  1  0.59979600  0.55723800  0.06254900  1
  H  1217  1  0.58153300  0.53903100  0.05778600  1
  H  1218  1  0.61136900  0.53672200  0.05479200  1
  H  1227  1  0.63983800  0.37905400  0.28870300  1
  H  1236  1  0.63713700  0.40229700  0.22987000  1
  H  1237  1  0.63873300  0.39923900  0.26190700  1
  H  1238  1  0.63559600  0.38749000  0.19957400  1
  H  1239  1  0.65090100  0.33238500  0.19607400  1
  H  1241  1  0.65250000  0.31596600  0.29650600  1
  H  1242  1  0.67023200  0.31241200  0.27770300  1
  H  1243  1  0.64031000  0.30976100  0.27568700  1
  H  1252  1  0.13991500  0.12061000  0.69400700  1
  H  1261  1  0.13720200  0.09738500  0.75284300  1
  H  1262  1  0.13882100  0.10043200  0.72080800  1
  H  1263  1  0.13555700  0.11222300  0.78312900  1
  H  1264  1  0.15085400  0.16733500  0.78660200  1
  H  1266  1  0.15255700  0.18369300  0.68618100  1
  H  1267  1  0.17029900  0.18725200  0.70497700  1
  H  1268  1  0.14037900  0.18991300  0.70699900  1
  H  1277  1  0.38760500  0.54692600  0.86041100  1
  H  1286  1  0.38526200  0.48772300  0.83809100  1
  H  1287  1  0.38654100  0.51981000  0.84064800  1
  H  1288  1  0.38417200  0.45765300  0.85338500  1
  H  1289  1  0.40016200  0.45512300  0.90843600  1
  H  1291  1  0.40101500  0.55576400  0.92328300  1
  H  1292  1  0.41903100  0.53714800  0.92693800  1
  H  1293  1  0.38917800  0.53495200  0.92991700  1
  H  1302  1  0.88739700  0.95275000  0.12241800  1
  H  1311  1  0.88496900  0.01195600  0.14468700  1
  H  1312  1  0.88622400  0.97986900  0.14215200  1
  H  1313  1  0.88400200  0.04201500  0.12938200  1
  H  1314  1  0.90031900  0.04451900  0.07439000  1
  H  1316  1  0.90105700  0.94387300  0.05957900  1
  H  1317  1  0.91912100  0.96246700  0.05596000  1
  H  1318  1  0.88928400  0.96469900  0.05291500  1
  H  1327  1  0.13691800  0.88236400  0.69707900  1
  H  1336  1  0.13694200  0.90073800  0.75765900  1
  H  1337  1  0.13696500  0.90029900  0.72546000  1
  H  1338  1  0.13705500  0.88355200  0.78666600  1
  H  1339  1  0.15258700  0.82836500  0.78522100  1
  H  1341  1  0.14995800  0.82020700  0.68382800  1
  H  1342  1  0.16859000  0.81534900  0.70177400  1
  H  1343  1  0.13881800  0.81223000  0.70440600  1
  H  1352  1  0.63715600  0.61736400  0.28554900  1
  H  1361  1  0.63766200  0.59891800  0.22497800  1
  H  1362  1  0.63756500  0.59939500  0.25718100  1
  H  1363  1  0.63767200  0.61606100  0.19593700  1
  H  1364  1  0.65226600  0.67141100  0.19737400  1
  H  1366  1  0.64921600  0.67965900  0.29874700  1
  H  1367  1  0.66779200  0.68467600  0.28080800  1
  H  1368  1  0.63797700  0.68750200  0.27815100  1
  H  1377  1  0.36193500  0.61983000  0.69506800  1
  H  1386  1  0.36293600  0.59858900  0.75469500  1
  H  1387  1  0.36240500  0.60057300  0.72255000  1
  H  1388  1  0.36331100  0.61438900  0.78448800  1
  H  1389  1  0.34751900  0.66951000  0.78583300  1
  H  1391  1  0.34881700  0.68255700  0.68491700  1
  H  1392  1  0.33045400  0.68655700  0.70324700  1
  H  1393  1  0.36026600  0.68954200  0.70574800  1
  H  1402  1  0.86205800  0.87980100  0.28771100  1
  H  1411  1  0.86347400  0.90096400  0.22805900  1
  H  1412  1  0.86280900  0.89903100  0.26020100  1
  H  1413  1  0.86379500  0.88510600  0.19828900  1
  H  1414  1  0.84727600  0.83011900  0.19698100  1
  H  1416  1  0.84816900  0.81719700  0.29791500  1
  H  1417  1  0.82979600  0.81330700  0.27956800  1
  H  1418  1  0.85957500  0.81009800  0.27710700  1
  H  1427  1  0.61056000  0.45513800  0.36121800  1
  H  1436  1  0.61133600  0.51532600  0.34159000  1
  H  1437  1  0.61080800  0.48314200  0.34268300  1
  H  1438  1  0.61172300  0.54467800  0.35819100  1
  H  1439  1  0.59623800  0.54451700  0.41338600  1
  H  1441  1  0.59745900  0.44328000  0.42363200  1
  H  1442  1  0.57911500  0.46149300  0.42817200  1
  H  1443  1  0.60893900  0.46391200  0.43116600  1
  H  1452  1  0.11027900  0.04450100  0.62142100  1
  H  1461  1  0.11057600  0.98432100  0.64112900  1
  H  1462  1  0.11020200  0.01650700  0.63998600  1
  H  1463  1  0.11105500  0.95492900  0.62457400  1
  H  1464  1  0.09653800  0.95509200  0.56920600  1
  H  1466  1  0.09812700  0.05630500  0.55886900  1
  H  1467  1  0.07982600  0.03809800  0.55420000  1
  H  1468  1  0.10968300  0.03565900  0.55144900  1
  H  1477  1  0.88999600  0.04646000  0.36330000  1
  H  1486  1  0.88851400  0.98717100  0.34114500  1
  H  1487  1  0.88941900  0.01927300  0.34361700  1
  H  1488  1  0.88759800  0.95714200  0.35649500  1
  H  1489  1  0.90286500  0.95485300  0.41168600  1
  H  1491  1  0.90260800  0.05559600  0.42621000  1
  H  1492  1  0.92074800  0.03709500  0.43006700  1
  H  1493  1  0.89088300  0.03474700  0.43285500  1
  H  1502  1  0.38971000  0.45322400  0.61949100  1
  H  1511  1  0.38781300  0.51252700  0.64152800  1
  H  1512  1  0.38880900  0.48042800  0.63911600  1
  H  1513  1  0.38703600  0.54252100  0.62611900  1
  H  1514  1  0.40316100  0.54475900  0.57108200  1
  H  1516  1  0.40312500  0.44399400  0.55669900  1
  H  1517  1  0.42132100  0.46248300  0.55294800  1
  H  1518  1  0.39149300  0.46484000  0.54994300  1
  C  1  1  0.87969000  0.14748100  0.36575500  1
  C  2  1  0.90036300  0.15643400  0.36303000  1
  C  3  1  0.91068000  0.15932900  0.37955400  1
  C  4  1  0.89663100  0.15232600  0.39302300  1
  C  5  1  0.90358400  0.15307100  0.41115700  1
  C  6  1  0.92500700  0.16062500  0.41560800  1
  C  7  1  0.93886800  0.16778400  0.40173300  1
  C  8  1  0.93181200  0.16717300  0.38368900  1
  C  9  1  0.90808600  0.16057500  0.34566900  1
  C  10  1  0.89473200  0.15542000  0.33087100  1
  C  11  1  0.87369400  0.14627100  0.33322700  1
  C  12  1  0.86627100  0.14228300  0.35090700  1
  C  13  1  0.87216600  0.12528200  0.39005700  1
  C  14  1  0.85159100  0.12306100  0.39927400  1
  C  15  1  0.84072300  0.13959400  0.40042800  1
  C  16  1  0.85432600  0.15253400  0.39205200  1
  C  17  1  0.81929200  0.14406800  0.40750700  1
  C  18  1  0.81143800  0.16184200  0.40583300  1
  C  19  1  0.82471900  0.17527400  0.39716700  1
  C  20  1  0.84648800  0.17037500  0.39043100  1
  C  21  1  0.88575200  0.11020700  0.38589000  1
  C  22  1  0.87855100  0.09276600  0.39104500  1
  C  23  1  0.85770500  0.09094600  0.40059400  1
  C  24  1  0.84421100  0.10598300  0.40477500  1
  C  37  1  0.87568500  0.14440100  0.38519100  1
  C  38  1  0.81653600  0.19265900  0.39451900  1
  C  39  1  0.89049000  0.07772400  0.38529700  1
  C  40  1  0.86154800  0.14019800  0.31845900  1
  C  41  1  0.93236700  0.16105500  0.43322100  1
  C  46  1  0.37974400  0.35213700  0.61703600  1
  C  47  1  0.40044000  0.34321100  0.61975600  1
  C  48  1  0.41078000  0.34037100  0.60323300  1
  C  49  1  0.39670900  0.34735200  0.58976700  1
  C  50  1  0.40365500  0.34661500  0.57163200  1
  C  51  1  0.42508500  0.33907400  0.56717300  1
  C  52  1  0.43896000  0.33192100  0.58104300  1
  C  53  1  0.43191200  0.33253100  0.59909000  1
  C  54  1  0.40819800  0.33911200  0.63711600  1
  C  55  1  0.39484400  0.34425100  0.65191900  1
  C  56  1  0.37378200  0.35337100  0.64956700  1
  C  57  1  0.36633700  0.35734000  0.63189000  1
  C  58  1  0.37221000  0.37436600  0.59276100  1
  C  59  1  0.35162900  0.37658600  0.58355100  1
  C  60  1  0.34080000  0.36004300  0.58234300  1
  C  61  1  0.35440400  0.34710200  0.59071800  1
  C  62  1  0.31938400  0.35556200  0.57523900  1
  C  63  1  0.31154000  0.33778500  0.57689700  1
  C  64  1  0.32481800  0.32435400  0.58556800  1
  C  65  1  0.34658300  0.32925400  0.59230900  1
  C  66  1  0.38578600  0.38944500  0.59693300  1
  C  67  1  0.37859300  0.40688200  0.59176100  1
  C  68  1  0.35776800  0.40869500  0.58218100  1
  C  69  1  0.34427000  0.39365700  0.57801300  1
  C  82  1  0.37574600  0.35524400  0.59760500  1
  C  83  1  0.31662800  0.30697200  0.58822000  1
  C  84  1  0.39049500  0.42193400  0.59752800  1
  C  85  1  0.36162500  0.35942000  0.66433800  1
  C  86  1  0.43243100  0.33863800  0.54955600  1
  C  91  1  0.13115400  0.87531700  0.88684800  1
  C  92  1  0.15171200  0.87795200  0.89598500  1
  C  93  1  0.16114800  0.86133500  0.89996300  1
  C  94  1  0.14659300  0.84788700  0.89357700  1
  C  95  1  0.15282300  0.82965100  0.89525500  1
  C  96  1  0.17402600  0.82508800  0.90312300  1
  C  97  1  0.18829700  0.83894900  0.90979700  1
  C  98  1  0.18196000  0.85709400  0.90825600  1
  C  99  1  0.16005500  0.89528600  0.89943800  1
  C  100  1  0.14728000  0.91015500  0.89362600  1
  C  101  1  0.12624600  0.90788400  0.88446100  1
  C  102  1  0.11832700  0.89023900  0.88096300  1
  C  103  1  0.12275400  0.84992700  0.86607900  1
  C  104  1  0.10132800  0.84191900  0.86404400  1
  C  105  1  0.09009700  0.84228500  0.88044900  1
  C  106  1  0.10427800  0.85041800  0.89315300  1
  C  107  1  0.06810800  0.83645300  0.88503500  1
  C  108  1  0.06031700  0.83910200  0.90270200  1
  C  109  1  0.07424400  0.84745700  0.91591900  1
  C  110  1  0.09648300  0.85303300  0.91089000  1
  C  111  1  0.13761200  0.85132200  0.85123100  1
  C  112  1  0.13053100  0.84480100  0.83426200  1
  C  113  1  0.10879600  0.83666200  0.83252100  1
  C  114  1  0.09409000  0.83521600  0.84735200  1
  C  127  1  0.12621600  0.85586900  0.88490200  1
  C  128  1  0.06627400  0.85082100  0.93322700  1
  C  129  1  0.14449400  0.84585600  0.81943600  1
  C  130  1  0.11432300  0.92270800  0.87830300  1
  C  131  1  0.18107300  0.80742200  0.90399800  1
  C  136  1  0.63106800  0.62437800  0.09582500  1
  C  137  1  0.65160700  0.62175400  0.08665900  1
  C  138  1  0.66103300  0.63837600  0.08268500  1
  C  139  1  0.64648100  0.65181700  0.08909300  1
  C  140  1  0.65270100  0.67005600  0.08741800  1
  C  141  1  0.67386800  0.67462700  0.07949500  1
  C  142  1  0.68811700  0.66077700  0.07277500  1
  C  143  1  0.68179500  0.64262800  0.07432000  1
  C  144  1  0.65993500  0.60442600  0.08316000  1
  C  145  1  0.64717800  0.58954800  0.08897800  1
  C  146  1  0.62617100  0.59180800  0.09818500  1
  C  147  1  0.61825500  0.60944800  0.10171000  1
  C  148  1  0.62271200  0.64975200  0.11662500  1
  C  149  1  0.60129100  0.65776100  0.11870100  1
  C  150  1  0.59002200  0.65740900  0.10231100  1
  C  151  1  0.60417500  0.64928800  0.08957900  1
  C  152  1  0.56800200  0.66320200  0.09776700  1
  C  153  1  0.56016000  0.66054300  0.08011400  1
  C  154  1  0.57406400  0.65220600  0.06687200  1
  C  155  1  0.59632800  0.64665600  0.07186000  1
  C  156  1  0.63762600  0.64837100  0.13144000  1
  C  157  1  0.63061700  0.65493100  0.14841100  1
  C  158  1  0.60889600  0.66307900  0.15019700  1
  C  159  1  0.59412500  0.66449300  0.13540000  1
  C  172  1  0.62613000  0.64382500  0.09779500  1
  C  173  1  0.56606900  0.64885300  0.04957000  1
  C  174  1  0.64467300  0.65393400  0.16318300  1
  C  175  1  0.61426400  0.57697900  0.10434600  1
  C  176  1  0.68092000  0.69229100  0.07863200  1
  C  181  1  0.62258900  0.35143800  0.36706400  1
  C  182  1  0.60208100  0.34213100  0.36483600  1
  C  183  1  0.59120600  0.34095200  0.38136200  1
  C  184  1  0.60473600  0.34940400  0.39430100  1
  C  185  1  0.59684600  0.35103700  0.41212700  1
  C  186  1  0.57510000  0.34424200  0.41700600  1
  C  187  1  0.56190700  0.33548300  0.40357900  1
  C  188  1  0.56980500  0.33380600  0.38581800  1
  C  189  1  0.59474000  0.33661200  0.34775500  1
  C  190  1  0.60821100  0.34084800  0.33272200  1
  C  191  1  0.62895700  0.35053800  0.33454600  1
  C  192  1  0.63612400  0.35570000  0.35199200  1
  C  193  1  0.63002600  0.37576700  0.38925800  1
  C  194  1  0.65074200  0.37852500  0.39814200  1
  C  195  1  0.66111100  0.36201600  0.40101700  1
  C  196  1  0.64704000  0.34852100  0.39409700  1
  C  197  1  0.68226700  0.35790300  0.40883500  1
  C  198  1  0.68933800  0.33986200  0.40948200  1
  C  199  1  0.67546200  0.32596400  0.40238600  1
  C  200  1  0.65400800  0.33039000  0.39487100  1
  C  201  1  0.61654900  0.39059700  0.38409200  1
  C  202  1  0.62393600  0.40828800  0.38807500  1
  C  203  1  0.64501500  0.41067800  0.39715600  1
  C  204  1  0.65844500  0.39589900  0.40224900  1
  C  217  1  0.62607000  0.35632200  0.38618200  1
  C  218  1  0.68280700  0.30834400  0.40286800  1
  C  219  1  0.61168000  0.42304800  0.38211900  1
  C  220  1  0.64078500  0.35646400  0.31951500  1
  C  221  1  0.56684700  0.34691800  0.43436400  1
  C  226  1  0.12260100  0.14816600  0.61564500  1
  C  227  1  0.10210600  0.15749200  0.61786500  1
  C  228  1  0.09128300  0.15874400  0.60132500  1
  C  229  1  0.10478300  0.15024100  0.58839900  1
  C  230  1  0.09693200  0.14865900  0.57055900  1
  C  231  1  0.07519200  0.15546300  0.56567400  1
  C  232  1  0.06198600  0.16420500  0.57910500  1
  C  233  1  0.06987700  0.16587900  0.59686600  1
  C  234  1  0.09481300  0.16309100  0.63493300  1
  C  235  1  0.10826300  0.15883100  0.64997100  1
  C  236  1  0.12899900  0.14912700  0.64816000  1
  C  237  1  0.13615100  0.14393300  0.63071800  1
  C  238  1  0.13007600  0.12387300  0.59342500  1
  C  239  1  0.15079800  0.12112900  0.58454600  1
  C  240  1  0.16117500  0.13764300  0.58171100  1
  C  241  1  0.14709500  0.15112800  0.58864400  1
  C  242  1  0.18233300  0.14177000  0.57390400  1
  C  243  1  0.18939200  0.15981400  0.57327400  1
  C  244  1  0.17550100  0.17370300  0.58037200  1
  C  245  1  0.15405300  0.16926000  0.58788800  1
  C  246  1  0.11659900  0.10903400  0.59856800  1
  C  247  1  0.12401100  0.09134800  0.59459000  1
  C  248  1  0.14511100  0.08897200  0.58553700  1
  C  249  1  0.15853400  0.10375900  0.58045900  1
  C  262  1  0.12611100  0.14331300  0.59652500  1
  C  263  1  0.18283000  0.19132700  0.57989100  1
  C  264  1  0.11172800  0.07658700  0.60051400  1
  C  265  1  0.14081700  0.14320100  0.66319400  1
  C  266  1  0.06694200  0.15278900  0.54831500  1
  C  271  1  0.37124100  0.62576200  0.88893900  1
  C  272  1  0.35115500  0.62361100  0.89881100  1
  C  273  1  0.34111500  0.64033000  0.90114200  1
  C  274  1  0.35479800  0.65333700  0.89294200  1
  C  275  1  0.34748900  0.67137800  0.89228700  1
  C  276  1  0.32616000  0.67638200  0.89978300  1
  C  277  1  0.31294100  0.66289500  0.90842800  1
  C  278  1  0.32025900  0.64492600  0.90913900  1
  C  279  1  0.34346500  0.60649500  0.90391600  1
  C  280  1  0.35627400  0.59136500  0.89884300  1
  C  281  1  0.37670100  0.59313500  0.88874100  1
  C  282  1  0.38413800  0.61058900  0.88386100  1
  C  283  1  0.37886500  0.64906100  0.86568100  1
  C  284  1  0.40032700  0.65676500  0.86284900  1
  C  285  1  0.41147100  0.65826000  0.87922100  1
  C  286  1  0.39717200  0.65164900  0.89271800  1
  C  287  1  0.43324300  0.66499400  0.88324700  1
  C  288  1  0.44068400  0.66487600  0.90120400  1
  C  289  1  0.42657100  0.65809800  0.91511900  1
  C  290  1  0.40456300  0.65160000  0.91076000  1
  C  291  1  0.36384700  0.64652000  0.85108400  1
  C  292  1  0.37075800  0.65160700  0.83357700  1
  C  293  1  0.39260300  0.65937500  0.83105300  1
  C  294  1  0.40749900  0.66192500  0.84560900  1
  C  307  1  0.37544200  0.64501000  0.88501300  1
  C  308  1  0.43401700  0.65821500  0.93273300  1
  C  309  1  0.35614000  0.65025700  0.81913000  1
  C  310  1  0.38814300  0.57807300  0.88248000  1
  C  311  1  0.31813700  0.69388900  0.89770700  1
  C  316  1  0.87118700  0.87389600  0.09384400  1
  C  317  1  0.85106300  0.87604600  0.08402000  1
  C  318  1  0.84105700  0.85932000  0.08165600  1
  C  319  1  0.85479000  0.84630900  0.08980300  1
  C  320  1  0.84745800  0.82827400  0.09051300  1
  C  321  1  0.82606300  0.82328100  0.08312900  1
  C  322  1  0.81278200  0.83677500  0.07455400  1
  C  323  1  0.82011400  0.85473700  0.07379600  1
  C  324  1  0.84332400  0.89316400  0.07897000  1
  C  325  1  0.85611300  0.90829900  0.08406400  1
  C  326  1  0.87659000  0.90652900  0.09409800  1
  C  327  1  0.88406800  0.88907300  0.09893400  1
  C  328  1  0.87891300  0.85056500  0.11704200  1
  C  329  1  0.90040100  0.84288700  0.11982700  1
  C  330  1  0.91150400  0.84143100  0.10343600  1
  C  331  1  0.89716400  0.84805300  0.08997200  1
  C  332  1  0.93327800  0.83472800  0.09937100  1
  C  333  1  0.94067900  0.83488500  0.08140300  1
  C  334  1  0.92652400  0.84167300  0.06752000  1
  C  335  1  0.90450800  0.84813000  0.07191800  1
  C  336  1  0.86393400  0.85306900  0.13167200  1
  C  337  1  0.87092000  0.84799400  0.14916400  1
  C  338  1  0.89279700  0.84026400  0.15163800  1
  C  339  1  0.90763800  0.83772500  0.13704800  1
  C  352  1  0.87543400  0.85464600  0.09772100  1
  C  353  1  0.93394000  0.84159100  0.04989900  1
  C  354  1  0.85637500  0.84933900  0.16366200  1
  C  355  1  0.88802100  0.92159200  0.10036400  1
  C  356  1  0.81803000  0.80578300  0.08526300  1
  C  361  1  0.11832000  0.85398500  0.61712600  1
  C  362  1  0.09775700  0.84484400  0.61972000  1
  C  363  1  0.08833300  0.84092100  0.60308300  1
  C  364  1  0.10290300  0.84734300  0.58966100  1
  C  365  1  0.09667600  0.84574500  0.57141500  1
  C  366  1  0.07547300  0.83789800  0.56681000  1
  C  367  1  0.06118600  0.83119000  0.58064300  1
  C  368  1  0.06751600  0.83265300  0.59879900  1
  C  369  1  0.08944500  0.84127900  0.63704100  1
  C  370  1  0.10224400  0.84699600  0.65193700  1
  C  371  1  0.12327900  0.85616800  0.64970700  1
  C  372  1  0.13116900  0.85977800  0.63207500  1
  C  373  1  0.12665400  0.87486600  0.59181700  1
  C  374  1  0.14808900  0.87699300  0.58384700  1
  C  375  1  0.15939100  0.86061700  0.58417000  1
  C  376  1  0.14523200  0.84783400  0.59220600  1
  C  377  1  0.18141000  0.85611100  0.57834400  1
  C  378  1  0.18927300  0.83845400  0.58093200  1
  C  379  1  0.17538500  0.82516600  0.58921500  1
  C  380  1  0.15310800  0.83011300  0.59477500  1
  C  381  1  0.11167100  0.88964100  0.59315500  1
  C  382  1  0.11862600  0.90663300  0.58661000  1
  C  383  1  0.14038400  0.90847400  0.57852800  1
  C  384  1  0.15522300  0.89371600  0.57715300  1
  C  397  1  0.12326000  0.85601500  0.59768500  1
  C  398  1  0.18342300  0.80786600  0.59252400  1
  C  399  1  0.10441700  0.92133000  0.58744700  1
  C  400  1  0.13526200  0.86218700  0.66456100  1
  C  401  1  0.06845500  0.83706900  0.54913000  1
  C  406  1  0.61828100  0.64571000  0.36551300  1
  C  407  1  0.59768200  0.65480600  0.36294000  1
  C  408  1  0.58825300  0.65867900  0.37958800  1
  C  409  1  0.60287800  0.65230500  0.39299500  1
  C  410  1  0.59667700  0.65390100  0.41124700  1
  C  411  1  0.57546100  0.66171300  0.41587100  1
  C  412  1  0.56113600  0.66839700  0.40205000  1
  C  413  1  0.56743000  0.66692400  0.38388900  1
  C  414  1  0.58931200  0.65833000  0.34562700  1
  C  415  1  0.60210800  0.65264500  0.33071700  1
  C  416  1  0.62318700  0.64353200  0.33292500  1
  C  417  1  0.63112800  0.63995100  0.35055000  1
  C  418  1  0.62673900  0.62484200  0.39080100  1
  C  419  1  0.64821300  0.62275600  0.39871400  1
  C  420  1  0.65944600  0.63916200  0.39839600  1
  C  421  1  0.64521100  0.65192100  0.39040400  1
  C  422  1  0.68146700  0.64371000  0.40418300  1
  C  423  1  0.68925700  0.66138500  0.40159500  1
  C  424  1  0.67529500  0.67465100  0.39335300  1
  C  425  1  0.65301400  0.66966300  0.38784000  1
  C  426  1  0.61181100  0.61003000  0.38948100  1
  C  427  1  0.61886700  0.59304100  0.39597100  1
  C  428  1  0.64067100  0.59124600  0.40398400  1
  C  429  1  0.65544700  0.60604300  0.40536100  1
  C  442  1  0.62325900  0.64368900  0.38494900  1
  C  443  1  0.68327300  0.69196600  0.39004000  1
  C  444  1  0.60472900  0.57829800  0.39513800  1
  C  445  1  0.63518400  0.63755600  0.31805900  1
  C  446  1  0.56846500  0.66254400  0.43355600  1
  C  451  1  0.86957100  0.12421600  0.09433800  1
  C  452  1  0.84826400  0.12150600  0.08634800  1
  C  453  1  0.83794700  0.13805400  0.08366100  1
  C  454  1  0.85267100  0.15154400  0.08970300  1
  C  455  1  0.84597700  0.16972500  0.08873600  1
  C  456  1  0.82422900  0.17420800  0.08180200  1
  C  457  1  0.80976900  0.16030800  0.07546500  1
  C  458  1  0.81652800  0.14221400  0.07634500  1
  C  459  1  0.84061600  0.10421400  0.08182900  1
  C  460  1  0.85499400  0.08948800  0.08513800  1
  C  461  1  0.87679700  0.09189300  0.09302800  1
  C  462  1  0.88407100  0.10944400  0.09762600  1
  C  463  1  0.87767400  0.14864800  0.11630000  1
  C  464  1  0.89879700  0.15712000  0.11836200  1
  C  465  1  0.90946900  0.15792800  0.10175100  1
  C  466  1  0.89519300  0.15016200  0.08887700  1
  C  467  1  0.93106700  0.16454900  0.09710800  1
  C  468  1  0.93848000  0.16290700  0.07922700  1
  C  469  1  0.92456200  0.15478000  0.06585600  1
  C  470  1  0.90261300  0.14855400  0.07092500  1
  C  471  1  0.86312900  0.14647100  0.13124700  1
  C  472  1  0.87022300  0.15265600  0.14833800  1
  C  473  1  0.89175200  0.16112700  0.15012800  1
  C  474  1  0.90614700  0.16335700  0.13520300  1
  C  487  1  0.87380300  0.14364900  0.09725700  1
  C  488  1  0.93239200  0.15206000  0.04839500  1
  C  489  1  0.85613000  0.15144300  0.16308700  1
  C  490  1  0.89129400  0.07737100  0.09451000  1
  C  491  1  0.81708500  0.19186700  0.08120600  1
  C  496  1  0.36962500  0.37543900  0.88845000  1
  C  497  1  0.34834700  0.37814900  0.89648800  1
  C  498  1  0.33802400  0.36160400  0.89917100  1
  C  499  1  0.35271000  0.34811500  0.89307300  1
  C  500  1  0.34599500  0.32993700  0.89401400  1
  C  501  1  0.32426900  0.32545900  0.90099500  1
  C  502  1  0.30984900  0.33935600  0.90739100  1
  C  503  1  0.31662800  0.35744700  0.90653000  1
  C  504  1  0.34073700  0.39543900  0.90105400  1
  C  505  1  0.35512000  0.41016000  0.89774300  1
  C  506  1  0.37688700  0.40775400  0.88979400  1
  C  507  1  0.38412900  0.39020800  0.88514800  1
  C  508  1  0.37764600  0.35104100  0.86643300  1
  C  509  1  0.39874200  0.34253900  0.86432600  1
  C  510  1  0.40946000  0.34170000  0.88091900  1
  C  511  1  0.39522700  0.34945500  0.89382900  1
  C  512  1  0.43109300  0.33510700  0.88550600  1
  C  513  1  0.43857700  0.33675900  0.90336900  1
  C  514  1  0.42470200  0.34487800  0.91677200  1
  C  515  1  0.40272200  0.35108000  0.91175900  1
  C  516  1  0.36303800  0.35321800  0.85152500  1
  C  517  1  0.37005800  0.34702200  0.83442100  1
  C  518  1  0.39156400  0.33852800  0.83257700  1
  C  519  1  0.40602000  0.33629700  0.84746600  1
  C  532  1  0.37382800  0.35600800  0.88549100  1
  C  533  1  0.43257900  0.34758900  0.93422100  1
  C  534  1  0.35588400  0.34820900  0.81972100  1
  C  535  1  0.39138400  0.42227300  0.88826900  1
  C  536  1  0.31710300  0.30780600  0.90157400  1
  C  541  1  0.37891100  0.64748400  0.61575100  1
  C  542  1  0.39910000  0.65723100  0.61787400  1
  C  543  1  0.40910800  0.65952800  0.60113400  1
  C  544  1  0.39528300  0.65145800  0.58813700  1
  C  545  1  0.40257200  0.65073000  0.57009100  1
  C  546  1  0.42398000  0.65807200  0.56505900  1
  C  547  1  0.43732200  0.66666667  0.57853500  1
  C  548  1  0.43004500  0.66737500  0.59651300  1
  C  549  1  0.40687200  0.66229400  0.63498100  1
  C  550  1  0.39401600  0.65734000  0.65012800  1
  C  551  1  0.37347400  0.64738600  0.64838400  1
  C  552  1  0.36599300  0.64249600  0.63094500  1
  C  553  1  0.37113700  0.62425900  0.59245600  1
  C  554  1  0.34962400  0.62146100  0.58483200  1
  C  555  1  0.33851800  0.63785200  0.58337600  1
  C  556  1  0.35289200  0.65133000  0.58992600  1
  C  557  1  0.31672900  0.64190500  0.57669900  1
  C  558  1  0.30933500  0.65987300  0.57682400  1
  C  559  1  0.32351200  0.67377300  0.58355200  1
  C  560  1  0.34554400  0.66938400  0.58998100  1
  C  561  1  0.38617400  0.60964900  0.59486100  1
  C  562  1  0.37922300  0.59215900  0.58974600  1
  C  563  1  0.35729900  0.58966900  0.58209900  1
  C  564  1  0.34240000  0.60423900  0.57965900  1
  C  577  1  0.37463000  0.64358400  0.59650800  1
  C  578  1  0.31609000  0.69139500  0.58343900  1
  C  579  1  0.39389200  0.57771900  0.59086600  1
  C  580  1  0.36190200  0.64134100  0.66347100  1
  C  581  1  0.43195800  0.65592900  0.54754400  1
  C  586  1  0.87881500  0.85218800  0.36702800  1
  C  587  1  0.89893800  0.84235800  0.36490500  1
  C  588  1  0.90891900  0.83999300  0.38164500  1
  C  589  1  0.89520000  0.84819200  0.39463200  1
  C  590  1  0.90247500  0.84886200  0.41268400  1
  C  591  1  0.92384700  0.84145100  0.41770900  1
  C  592  1  0.93713300  0.83285800  0.40423100  1
  C  593  1  0.92982800  0.83209300  0.38626100  1
  C  594  1  0.90661800  0.83718900  0.34780500  1
  C  595  1  0.89378300  0.84218200  0.33265900  1
  C  596  1  0.87331400  0.85223000  0.33440100  1
  C  597  1  0.86589900  0.85719100  0.35183800  1
  C  598  1  0.87117300  0.87545100  0.39031500  1
  C  599  1  0.84969300  0.87831200  0.39797400  1
  C  600  1  0.83851800  0.86195200  0.39946000  1
  C  601  1  0.85280700  0.84843500  0.39287600  1
  C  602  1  0.81673100  0.85795800  0.40617700  1
  C  603  1  0.80925800  0.84000900  0.40607000  1
  C  604  1  0.82335500  0.82607200  0.39931700  1
  C  605  1  0.84538600  0.83040000  0.39284000  1
  C  606  1  0.88626700  0.89002000  0.38787600  1
  C  607  1  0.87941900  0.90752400  0.39302300  1
  C  608  1  0.85754100  0.91007700  0.40072700  1
  C  609  1  0.84257600  0.89555200  0.40318600  1
  C  622  1  0.87457200  0.85611500  0.38627200  1
  C  623  1  0.81585700  0.80846900  0.39943800  1
  C  624  1  0.89416100  0.92191400  0.39185400  1
  C  625  1  0.86178300  0.85831800  0.31931200  1
  C  626  1  0.93185400  0.84358900  0.43521600  1
  C  631  1  0.62790800  0.37504300  0.09233000  1
  C  632  1  0.64895800  0.37701700  0.08372300  1
  C  633  1  0.65958200  0.36038600  0.08297000  1
  C  634  1  0.64534200  0.34758300  0.09089300  1
  C  635  1  0.65274100  0.32963400  0.09259800  1
  C  636  1  0.67464300  0.32450000  0.08632500  1
  C  637  1  0.68852200  0.33779400  0.07803100  1
  C  638  1  0.68112900  0.35567200  0.07629500  1
  C  639  1  0.65630700  0.39381200  0.07736200  1
  C  640  1  0.64200100  0.40878700  0.07962700  1
  C  641  1  0.62056300  0.40708000  0.08824900  1
  C  642  1  0.61344800  0.39003600  0.09454100  1
  C  643  1  0.61986300  0.35322600  0.11690300  1
  C  644  1  0.59852900  0.34531500  0.11971500  1
  C  645  1  0.58812000  0.34257100  0.10321100  1
  C  646  1  0.60282700  0.34847200  0.08964700  1
  C  647  1  0.56666300  0.33527100  0.09914500  1
  C  648  1  0.55984500  0.33427000  0.08106900  1
  C  649  1  0.57428200  0.34047600  0.06709700  1
  C  650  1  0.59605900  0.34740900  0.07148800  1
  C  651  1  0.63450500  0.35644400  0.13160400  1
  C  652  1  0.62734700  0.35185700  0.14918700  1
  C  653  1  0.60549700  0.34408100  0.15170100  1
  C  654  1  0.59096800  0.34086000  0.13704800  1
  C  667  1  0.62401300  0.35603300  0.09744200  1
  C  668  1  0.56709400  0.33976000  0.04945100  1
  C  669  1  0.64205400  0.35313900  0.16360500  1
  C  670  1  0.60664000  0.42190500  0.08962500  1
  C  671  1  0.68245300  0.30704400  0.08911800  1
  C  676  1  0.12793000  0.12464500  0.89034400  1
  C  677  1  0.14899600  0.12266900  0.89892300  1
  C  678  1  0.15960000  0.13930900  0.89970400  1
  C  679  1  0.14532600  0.15212000  0.89182900  1
  C  680  1  0.15274200  0.17006100  0.89008600  1
  C  681  1  0.17468400  0.17518000  0.89628500  1
  C  682  1  0.18859800  0.16187800  0.90452500  1
  C  683  1  0.18119400  0.14400600  0.90629500  1
  C  684  1  0.15638400  0.10586500  0.90523200  1
  C  685  1  0.14208900  0.09088500  0.90295700  1
  C  686  1  0.12063300  0.09259100  0.89436200  1
  C  687  1  0.11348500  0.10964500  0.88811600  1
  C  688  1  0.11985700  0.14649600  0.86580700  1
  C  689  1  0.09852300  0.15441000  0.86300700  1
  C  690  1  0.08811300  0.15712400  0.87951400  1
  C  691  1  0.10280800  0.15118700  0.89307000  1
  C  692  1  0.06665900  0.16442400  0.88358700  1
  C  693  1  0.05983500  0.16539900  0.90166200  1
  C  694  1  0.07426800  0.15917100  0.91562800  1
  C  695  1  0.09605000  0.15224800  0.91123100  1
  C  696  1  0.13449700  0.14329900  0.85109900  1
  C  697  1  0.12731700  0.14787500  0.83351700  1
  C  698  1  0.10546300  0.15564800  0.83101900  1
  C  699  1  0.09095900  0.15888900  0.84568200  1
  C  712  1  0.12400900  0.14366100  0.88526400  1
  C  713  1  0.06706700  0.15986600  0.93327000  1
  C  714  1  0.14198900  0.14656500  0.81907900  1
  C  715  1  0.10671700  0.07776000  0.89298500  1
  C  716  1  0.18250500  0.19262700  0.89345400  1
  C  721  1  0.78512100  0.21282800  0.39981200  1
  C  722  1  0.76866000  0.21650400  0.41327600  1
  C  724  1  0.75672100  0.24324400  0.39786600  1
  C  725  1  0.77281200  0.24016700  0.38398600  1
  C  726  1  0.78683100  0.22480600  0.38511000  1
  C  728  1  0.74237400  0.25844300  0.39726100  1
  C  729  1  0.71303700  0.27611400  0.41077200  1
  C  730  1  0.71421700  0.28899200  0.39688000  1
  C  731  1  0.73014000  0.28622900  0.38296700  1
  C  733  1  0.74423300  0.27085400  0.38283400  1
  C  734  1  0.76021900  0.26767900  0.36902900  1
  C  735  1  0.77430700  0.25240800  0.36955300  1
  C  740  1  0.76460600  0.20530600  0.42940000  1
  C  746  1  0.28520200  0.28681100  0.58293000  1
  C  747  1  0.26875200  0.28313000  0.56945700  1
  C  749  1  0.25677000  0.25641400  0.58488800  1
  C  750  1  0.27284900  0.25949800  0.59877600  1
  C  751  1  0.28689000  0.27484500  0.59764200  1
  C  753  1  0.24240800  0.24122400  0.58550100  1
  C  754  1  0.21307300  0.22355300  0.57198800  1
  C  755  1  0.21422900  0.21068800  0.58589400  1
  C  756  1  0.23013800  0.21345900  0.59981500  1
  C  758  1  0.24423800  0.22882900  0.59994300  1
  C  759  1  0.26021000  0.23201100  0.61375700  1
  C  760  1  0.27431400  0.24727400  0.61322600  1
  C  765  1  0.26472500  0.29431600  0.55332000  1
  C  771  1  0.03574200  0.84481800  0.95416300  1
  C  772  1  0.01944400  0.83126300  0.95796400  1
  C  774  1  0.00761900  0.84665800  0.98473700  1
  C  775  1  0.02359100  0.86060100  0.98156900  1
  C  776  1  0.03748300  0.85952500  0.96613300  1
  C  778  1  0.99337600  0.84721900  0.99999500  1
  C  779  1  0.96422700  0.83361500  0.01776800  1
  C  780  1  0.96535600  0.84753900  0.03061400  1
  C  781  1  0.98121400  0.86149000  0.02781000  1
  C  783  1  0.99522400  0.86166300  0.01238600  1
  C  784  1  0.01111500  0.87551900  0.00913900  1
  C  785  1  0.02509700  0.87504000  0.99380400  1
  C  790  1  0.01539600  0.81509500  0.94682200  1
  C  796  1  0.53555100  0.65487500  0.02863400  1
  C  797  1  0.51924500  0.66842400  0.02483500  1
  C  799  1  0.50753700  0.65309500  0.99799000  1
  C  800  1  0.52351600  0.63915600  0.00115700  1
  C  801  1  0.53734700  0.64019900  0.01662900  1
  C  803  1  0.49335700  0.65256500  0.98269500  1
  C  804  1  0.46424700  0.66618600  0.96489200  1
  C  805  1  0.46543600  0.65229100  0.95201700  1
  C  806  1  0.48131200  0.63835200  0.95481700  1
  C  808  1  0.49526900  0.63815500  0.97027100  1
  C  809  1  0.51116500  0.62430300  0.97351800  1
  C  810  1  0.52509000  0.62475200  0.98888600  1
  C  815  1  0.51513800  0.68456000  0.03600900  1
  C  821  1  0.21407100  0.78703100  0.58656700  1
  C  822  1  0.23039500  0.78325800  0.57302400  1
  C  824  1  0.24227100  0.75649600  0.58842200  1
  C  825  1  0.22627400  0.75964000  0.60235200  1
  C  826  1  0.21235100  0.77505700  0.60127200  1
  C  828  1  0.25654700  0.74125600  0.58899400  1
  C  829  1  0.28575400  0.72351500  0.57541600  1
  C  830  1  0.28463400  0.71067100  0.58934300  1
  C  831  1  0.26874900  0.71345600  0.60327900  1
  C  833  1  0.25470600  0.72886200  0.60343600  1
  C  834  1  0.23879100  0.73208600  0.61727800  1
  C  835  1  0.22477500  0.74740100  0.61678900  1
  C  840  1  0.23442900  0.79441000  0.55686200  1
  C  846  1  0.71381000  0.71288200  0.39611600  1
  C  847  1  0.73008700  0.71665800  0.40969400  1
  C  849  1  0.74198400  0.74343600  0.39433800  1
  C  850  1  0.72603200  0.74029300  0.38037500  1
  C  851  1  0.71211800  0.72486800  0.38141700  1
  C  853  1  0.75625800  0.75868000  0.39379900  1
  C  854  1  0.78544400  0.77640400  0.40742600  1
  C  855  1  0.78433100  0.78927000  0.39351800  1
  C  856  1  0.76850000  0.78648300  0.37954600  1
  C  858  1  0.75445800  0.77107800  0.37935800  1
  C  859  1  0.73858500  0.76785600  0.36548400  1
  C  860  1  0.72457100  0.75253800  0.36594000  1
  C  865  1  0.73408900  0.70549700  0.42585400  1
  C  871  1  0.96363800  0.15741300  0.02804000  1
  C  872  1  0.98018000  0.17082600  0.02441600  1
  C  874  1  0.99240900  0.15519000  0.99790600  1
  C  875  1  0.97618700  0.14139000  0.00091100  1
  C  876  1  0.96195900  0.14265700  0.01613400  1
  C  878  1  0.00702700  0.15441200  0.98288700  1
  C  879  1  0.03676700  0.16768400  0.96547500  1
  C  880  1  0.03571400  0.15370500  0.95268700  1
  C  881  1  0.01967800  0.13986000  0.95536900  1
  C  883  1  0.00530700  0.13989200  0.97057600  1
  C  884  1  0.98917100  0.12617700  0.97366000  1
  C  885  1  0.97480700  0.12687200  0.98876300  1
  C  890  1  0.98418900  0.18699200  0.03556700  1
  C  896  1  0.46387400  0.34227300  0.95453200  1
  C  897  1  0.48047100  0.32889400  0.95812800  1
  C  899  1  0.49258200  0.34447000  0.98470900  1
  C  900  1  0.47630900  0.35823800  0.98173000  1
  C  901  1  0.46211700  0.35698700  0.96648500  1
  C  903  1  0.50715800  0.34523000  0.99975400  1
  C  904  1  0.53691000  0.33197400  0.01716700  1
  C  905  1  0.53579100  0.34591900  0.02998900  1
  C  906  1  0.51968300  0.35971800  0.02734200  1
  C  908  1  0.50534700  0.35970200  0.01211500  1
  C  909  1  0.48916100  0.37338600  0.00905600  1
  C  910  1  0.47484100  0.37271000  0.99392700  1
  C  915  1  0.48456500  0.31277600  0.94693000  1
  C  921  1  0.28594800  0.71345500  0.90217000  1
  C  922  1  0.26890500  0.71671300  0.91528100  1
  C  924  1  0.25656900  0.74320900  0.89966500  1
  C  925  1  0.27325600  0.74054000  0.88614000  1
  C  926  1  0.28777700  0.72549900  0.88754100  1
  C  928  1  0.24167400  0.75805700  0.89876100  1
  C  929  1  0.21127500  0.77503600  0.91168500  1
  C  930  1  0.21251800  0.78798200  0.89786400  1
  C  931  1  0.22895900  0.78558500  0.88426400  1
  C  933  1  0.24357700  0.77052600  0.88439300  1
  C  934  1  0.26014900  0.76775700  0.87093500  1
  C  935  1  0.27478900  0.75282700  0.87175000  1
  C  940  1  0.26466700  0.70535200  0.93125900  1
  C  946  1  0.78591400  0.78616800  0.08064400  1
  C  947  1  0.76898000  0.78287200  0.06745400  1
  C  949  1  0.75648100  0.75644200  0.08310100  1
  C  950  1  0.77305700  0.75914700  0.09670200  1
  C  951  1  0.78761600  0.77416800  0.09532000  1
  C  953  1  0.74155500  0.74161300  0.08398300  1
  C  954  1  0.71123600  0.72461700  0.07096700  1
  C  955  1  0.71234600  0.71172000  0.08484200  1
  C  956  1  0.72867900  0.71414900  0.09851700  1
  C  958  1  0.74332100  0.72919600  0.09840800  1
  C  959  1  0.75978300  0.73199900  0.11194100  1
  C  960  1  0.77445200  0.74691300  0.11114600  1
  C  965  1  0.76488500  0.79418100  0.05141600  1
  C  971  1  0.53531400  0.34165900  0.45442800  1
  C  972  1  0.51880200  0.32821400  0.45803100  1
  C  974  1  0.50670000  0.34365000  0.48470600  1
  C  975  1  0.52284000  0.35750900  0.48170100  1
  C  976  1  0.53697400  0.35636100  0.46641000  1
  C  978  1  0.49224200  0.34427300  0.49983900  1
  C  979  1  0.46277200  0.33078400  0.51738200  1
  C  980  1  0.46389300  0.34467200  0.53026800  1
  C  981  1  0.47984800  0.35857400  0.52757300  1
  C  983  1  0.49403800  0.35869900  0.51225500  1
  C  984  1  0.51007100  0.37248600  0.50915200  1
  C  985  1  0.52427200  0.37194300  0.49394600  1
  C  990  1  0.51479700  0.31208800  0.44682200  1
  C  996  1  0.03540000  0.15805500  0.52825500  1
  C  997  1  0.01887600  0.17149500  0.52466900  1
  C  999  1  0.00674900  0.15606300  0.49799800  1
  C  1000  1  0.02290500  0.14221000  0.50098400  1
  C  1001  1  0.03705500  0.14335800  0.51626800  1
  C  1003  1  0.99226900  0.15543600  0.48288000  1
  C  1004  1  0.96275200  0.16890900  0.46537300  1
  C  1005  1  0.96383900  0.15501300  0.45249400  1
  C  1006  1  0.97983300  0.14113300  0.45515800  1
  C  1008  1  0.99405500  0.14101200  0.47046000  1
  C  1009  1  0.01010700  0.12723600  0.47354100  1
  C  1010  1  0.02433400  0.12778200  0.48873300  1
  C  1015  1  0.01487100  0.18761200  0.53588800  1
  C  1021  1  0.71367400  0.28664700  0.08376000  1
  C  1022  1  0.73031200  0.28308700  0.07040200  1
  C  1024  1  0.74247100  0.25652800  0.08598600  1
  C  1025  1  0.72616500  0.25947200  0.09973700  1
  C  1026  1  0.71192900  0.27469200  0.09847100  1
  C  1028  1  0.75708900  0.24151000  0.08675200  1
  C  1029  1  0.78688000  0.22414900  0.07349100  1
  C  1030  1  0.78579000  0.21131600  0.08742700  1
  C  1031  1  0.76966200  0.21392600  0.10122000  1
  C  1033  1  0.75528900  0.22913400  0.10121000  1
  C  1034  1  0.73907500  0.23215900  0.11488100  1
  C  1035  1  0.72470900  0.24726200  0.11419900  1
  C  1040  1  0.73441200  0.29429300  0.05428900  1
  C  1046  1  0.21366700  0.21305900  0.89890400  1
  C  1047  1  0.23020800  0.21666300  0.91232400  1
  C  1049  1  0.24248200  0.24316800  0.89670700  1
  C  1050  1  0.22627600  0.24018200  0.88289300  1
  C  1051  1  0.21203100  0.22496600  0.88414400  1
  C  1053  1  0.25710700  0.25818500  0.89595600  1
  C  1054  1  0.28682000  0.27557800  0.90928800  1
  C  1055  1  0.28578000  0.28839300  0.89533100  1
  C  1056  1  0.26977400  0.28572700  0.88146100  1
  C  1058  1  0.25541100  0.27051400  0.88145000  1
  C  1059  1  0.23929600  0.26744400  0.86771700  1
  C  1060  1  0.22492700  0.25234200  0.86838300  1
  C  1065  1  0.23419400  0.20550900  0.92849100  1
  C  1071  1  0.46400500  0.66052800  0.52783900  1
  C  1072  1  0.48091700  0.67372300  0.52448200  1
  C  1074  1  0.49324600  0.65810000  0.49798400  1
  C  1075  1  0.47667500  0.64450400  0.50074100  1
  C  1076  1  0.46221400  0.64587300  0.51582400  1
  C  1078  1  0.50807600  0.65722700  0.48309100  1
  C  1079  1  0.53830100  0.67023800  0.46598000  1
  C  1080  1  0.53709400  0.65638000  0.45306800  1
  C  1081  1  0.52076700  0.64271100  0.45556100  1
  C  1083  1  0.50622100  0.64281500  0.47066700  1
  C  1084  1  0.48976200  0.62929000  0.47352100  1
  C  1085  1  0.47518700  0.63007800  0.48849200  1
  C  1090  1  0.48508800  0.68975000  0.53579000  1
  C  1096  1  0.96395100  0.83903900  0.45487900  1
  C  1097  1  0.98090900  0.82587500  0.45820500  1
  C  1099  1  0.99319900  0.84147400  0.48472900  1
  C  1100  1  0.97658500  0.85504400  0.48200000  1
  C  1101  1  0.96212400  0.85367500  0.46691700  1
  C  1103  1  0.00803100  0.84235000  0.49962100  1
  C  1104  1  0.03830300  0.82936600  0.51670300  1
  C  1105  1  0.03708300  0.84321200  0.52962500  1
  C  1106  1  0.02068900  0.85684000  0.52717400  1
  C  1108  1  0.00613600  0.85673400  0.51207200  1
  C  1109  1  0.98963100  0.87023100  0.50924800  1
  C  1110  1  0.97505800  0.86944400  0.49427500  1
  C  1115  1  0.98512200  0.80987400  0.44687100  1
  C  1121  1  0.85346300  0.14679900  0.28746600  1
  C  1122  1  0.84802500  0.16180700  0.27654700  1
  C  1124  1  0.84860600  0.14344800  0.25002000  1
  C  1125  1  0.85359100  0.12793000  0.26035700  1
  C  1126  1  0.85579100  0.12981000  0.27914100  1
  C  1128  1  0.84891800  0.14259300  0.23108600  1
  C  1129  1  0.84850600  0.15812700  0.20302300  1
  C  1130  1  0.85507600  0.14246700  0.19367000  1
  C  1131  1  0.85792100  0.12645400  0.20353400  1
  C  1133  1  0.85465800  0.12623900  0.22233600  1
  C  1134  1  0.85858500  0.11066200  0.23269600  1
  C  1135  1  0.85793300  0.11148000  0.25156300  1
  C  1140  1  0.84569800  0.18047000  0.28315700  1
  C  1146  1  0.35359400  0.35278700  0.69534400  1
  C  1147  1  0.34835700  0.33774500  0.70627600  1
  C  1149  1  0.34865900  0.35613500  0.73277900  1
  C  1150  1  0.35342500  0.37168700  0.72242900  1
  C  1151  1  0.35563200  0.36981300  0.70364200  1
  C  1153  1  0.34892100  0.35701800  0.75171200  1
  C  1154  1  0.34859600  0.34152000  0.77979500  1
  C  1155  1  0.35487600  0.35725300  0.78915200  1
  C  1156  1  0.35754600  0.37327400  0.77926900  1
  C  1158  1  0.35438700  0.37343100  0.76045500  1
  C  1159  1  0.35814200  0.38902300  0.75007900  1
  C  1160  1  0.35753300  0.38818100  0.73121100  1
  C  1165  1  0.34629800  0.31905300  0.69968800  1
  C  1171  1  0.10564400  0.95349400  0.88559500  1
  C  1172  1  0.10025400  0.96403500  0.90088500  1
  C  1174  1  0.10034400  0.99095800  0.88311200  1
  C  1175  1  0.10524200  0.98099700  0.86733000  1
  C  1176  1  0.10762800  0.96218600  0.86876600  1
  C  1178  1  0.10040500  0.00990900  0.88267300  1
  C  1179  1  0.09978800  0.03762400  0.89881000  1
  C  1180  1  0.10596100  0.04739400  0.88330200  1
  C  1181  1  0.10875900  0.03788500  0.86706700  1
  C  1183  1  0.10580000  0.01906000  0.86647000  1
  C  1184  1  0.10969300  0.00907500  0.85064500  1
  C  1185  1  0.10930200  0.99019000  0.85105400  1
  C  1190  1  0.09818700  0.95701700  0.91942000  1
  C  1196  1  0.60563000  0.54618100  0.09705000  1
  C  1197  1  0.60025500  0.53564000  0.08175700  1
  C  1199  1  0.60038800  0.50871300  0.09952200  1
  C  1200  1  0.60526900  0.51867100  0.11530700  1
  C  1201  1  0.60765300  0.53748100  0.11387100  1
  C  1203  1  0.60044800  0.48976300  0.09995700  1
  C  1204  1  0.59978400  0.46205000  0.08381900  1
  C  1205  1  0.60593300  0.45227200  0.09932900  1
  C  1206  1  0.60877300  0.46178300  0.11555700  1
  C  1208  1  0.60582100  0.48060800  0.11616200  1
  C  1209  1  0.60971200  0.49059000  0.13198800  1
  C  1210  1  0.60932500  0.50947600  0.13158200  1
  C  1215  1  0.59816600  0.54266200  0.06322400  1
  C  1221  1  0.64686500  0.35118500  0.28808300  1
  C  1222  1  0.65169100  0.33666600  0.27635300  1
  C  1224  1  0.65100400  0.35635800  0.25079100  1
  C  1225  1  0.64652900  0.37139000  0.26195500  1
  C  1226  1  0.64471400  0.36859500  0.28064700  1
  C  1228  1  0.65044300  0.35820300  0.23192900  1
  C  1229  1  0.65019200  0.34416000  0.20310300  1
  C  1230  1  0.64382300  0.36035200  0.19460400  1
  C  1231  1  0.64133700  0.37584100  0.20532900  1
  C  1233  1  0.64488200  0.37505000  0.22408600  1
  C  1234  1  0.64136900  0.39010600  0.23527200  1
  C  1235  1  0.64232600  0.38831200  0.25406300  1
  C  1240  1  0.65376000  0.31767000  0.28199200  1
  C  1246  1  0.14692900  0.14848100  0.69462000  1
  C  1247  1  0.15174700  0.16300500  0.70634500  1
  C  1249  1  0.15109500  0.14331700  0.73191200  1
  C  1250  1  0.14661900  0.12828100  0.72075300  1
  C  1251  1  0.14479400  0.13107000  0.70206000  1
  C  1253  1  0.15051900  0.14147300  0.75077400  1
  C  1254  1  0.15026100  0.15554200  0.77959700  1
  C  1255  1  0.14378000  0.13936300  0.78807200  1
  C  1256  1  0.14134800  0.12385600  0.77737300  1
  C  1258  1  0.14495100  0.12463200  0.75862300  1
  C  1259  1  0.14144600  0.10957300  0.74744000  1
  C  1260  1  0.14241600  0.11136000  0.72864800  1
  C  1265  1  0.15382200  0.18199700  0.70069400  1
  C  1271  1  0.39494300  0.54676100  0.88824300  1
  C  1272  1  0.40012100  0.53529300  0.90289400  1
  C  1274  1  0.39945900  0.50943700  0.88359700  1
  C  1275  1  0.39466700  0.52034100  0.86843300  1
  C  1276  1  0.39267400  0.53906000  0.87095500  1
  C  1278  1  0.39907200  0.49054700  0.88204300  1
  C  1279  1  0.39930100  0.46194200  0.89654400  1
  C  1280  1  0.39275500  0.45317300  0.88054000  1
  C  1281  1  0.39001300  0.46362000  0.86489400  1
  C  1283  1  0.39339700  0.48240600  0.86536300  1
  C  1284  1  0.38958400  0.49333800  0.85016600  1
  C  1285  1  0.39035300  0.51216100  0.85166500  1
  C  1290  1  0.40242500  0.54123600  0.92178100  1
  C  1296  1  0.89485400  0.95289300  0.09460000  1
  C  1297  1  0.90013200  0.96434700  0.07996300  1
  C  1299  1  0.89941800  0.99021400  0.09924900  1
  C  1300  1  0.89453300  0.97932100  0.11440200  1
  C  1301  1  0.89249800  0.96060400  0.11187400  1
  C  1303  1  0.89905200  0.00910500  0.10079000  1
  C  1304  1  0.89938900  0.03770500  0.08628000  1
  C  1305  1  0.89275600  0.04648500  0.10225300  1
  C  1306  1  0.88988400  0.03603800  0.11788900  1
  C  1308  1  0.89327900  0.01725400  0.11744600  1
  C  1309  1  0.88937400  0.00633300  0.13263600  1
  C  1310  1  0.89017100  0.98750900  0.13115800  1
  C  1315  1  0.90248900  0.95839900  0.06108100  1
  C  1321  1  0.14418900  0.85458300  0.69523400  1
  C  1322  1  0.14980300  0.83922200  0.70559600  1
  C  1324  1  0.15010300  0.85675400  0.73267800  1
  C  1325  1  0.14497100  0.87260700  0.72290400  1
  C  1326  1  0.14223100  0.87131800  0.70411200  1
  C  1328  1  0.15039100  0.85703800  0.75163300  1
  C  1329  1  0.15153000  0.84067600  0.77921900  1
  C  1330  1  0.14544300  0.85609400  0.78916100  1
  C  1331  1  0.14248700  0.87241000  0.77982400  1
  C  1333  1  0.14512400  0.87316000  0.76097400  1
  C  1334  1  0.14103600  0.88906200  0.75116200  1
  C  1335  1  0.14107400  0.88880700  0.73227200  1
  C  1340  1  0.15186100  0.82076000  0.69838700  1
  C  1346  1  0.64400700  0.64521200  0.28737200  1
  C  1347  1  0.64938700  0.66061700  0.27699900  1
  C  1349  1  0.64999100  0.64306300  0.24993800  1
  C  1350  1  0.64510700  0.62716900  0.25972300  1
  C  1351  1  0.64236200  0.62844200  0.27851800  1
  C  1353  1  0.65033200  0.64276000  0.23098600  1
  C  1354  1  0.65135900  0.65909700  0.20338400  1
  C  1355  1  0.64560600  0.64360300  0.19343100  1
  C  1356  1  0.64287600  0.62726800  0.20278400  1
  C  1358  1  0.64538100  0.62657500  0.22164700  1
  C  1359  1  0.64149400  0.61065000  0.23147200  1
  C  1360  1  0.64148200  0.61092300  0.25036400  1
  C  1365  1  0.65114400  0.67910700  0.28419100  1
  C  1371  1  0.35462800  0.64766100  0.69460900  1
  C  1372  1  0.34927500  0.66252700  0.70575200  1
  C  1374  1  0.34937700  0.64371400  0.73197300  1
  C  1375  1  0.35435300  0.62834900  0.72140600  1
  C  1376  1  0.35671500  0.63052400  0.70266400  1
  C  1378  1  0.34933000  0.64250600  0.75089500  1
  C  1379  1  0.34847700  0.65749700  0.77924500  1
  C  1380  1  0.35471900  0.64163600  0.78840200  1
  C  1381  1  0.35764300  0.62580900  0.77824700  1
  C  1383  1  0.35475000  0.62596000  0.75940500  1
  C  1384  1  0.35877200  0.61056400  0.74880200  1
  C  1385  1  0.35844200  0.61172700  0.72994800  1
  C  1390  1  0.34712600  0.68131100  0.69944900  1
  C  1396  1  0.85442500  0.85202900  0.28818500  1
  C  1397  1  0.84890400  0.83719300  0.27705400  1
  C  1399  1  0.84928400  0.85597400  0.25081300  1
  C  1400  1  0.85442000  0.87131400  0.26136800  1
  C  1401  1  0.85674600  0.86913900  0.28011000  1
  C  1403  1  0.84930600  0.85715900  0.23188900  1
  C  1404  1  0.84835900  0.84213400  0.20355700  1
  C  1405  1  0.85486600  0.85792700  0.19439700  1
  C  1406  1  0.85798300  0.87373800  0.20453900  1
  C  1408  1  0.85497000  0.87364800  0.22336900  1
  C  1409  1  0.85914900  0.88902700  0.23395700  1
  C  1410  1  0.85874200  0.88789300  0.25281200  1
  C  1415  1  0.84652200  0.81843500  0.28337800  1
  C  1421  1  0.60328100  0.45393700  0.38902500  1
  C  1422  1  0.59785600  0.46465600  0.40418200  1
  C  1424  1  0.59789800  0.49137100  0.38609000  1
  C  1425  1  0.60284400  0.48122800  0.37043500  1
  C  1426  1  0.60529300  0.46244100  0.37210200  1
  C  1428  1  0.59790200  0.51031800  0.38542000  1
  C  1429  1  0.59723600  0.53823700  0.40121100  1
  C  1430  1  0.60338000  0.54783000  0.38558400  1
  C  1431  1  0.60620000  0.53811200  0.36947400  1
  C  1433  1  0.60328000  0.51927800  0.36910700  1
  C  1434  1  0.60722000  0.50910700  0.35340900  1
  C  1435  1  0.60689000  0.49022700  0.35405000  1
  C  1440  1  0.59577200  0.45784100  0.42279100  1
  C  1446  1  0.10343900  0.04567900  0.59354200  1
  C  1447  1  0.09825400  0.03494600  0.57834200  1
  C  1449  1  0.09798100  0.00825200  0.59645900  1
  C  1450  1  0.10270300  0.01840300  0.61215200  1
  C  1451  1  0.10519800  0.03718700  0.61049100  1
  C  1453  1  0.09790900  0.98930700  0.59715900  1
  C  1454  1  0.09729900  0.96136500  0.58139500  1
  C  1455  1  0.10319900  0.95178600  0.59709300  1
  C  1456  1  0.10577500  0.96150200  0.61322600  1
  C  1458  1  0.10296300  0.98035000  0.61353600  1
  C  1459  1  0.10669200  0.99053500  0.62925700  1
  C  1460  1  0.10645500  0.00941600  0.62858900  1
  C  1465  1  0.09641400  0.04174500  0.55971100  1
  C  1471  1  0.89702700  0.04643100  0.39117900  1
  C  1472  1  0.90211700  0.03503900  0.40590600  1
  C  1474  1  0.90191100  0.00910700  0.38669500  1
  C  1475  1  0.89719900  0.01993600  0.37146100  1
  C  1476  1  0.89501300  0.03865500  0.37390700  1
  C  1478  1  0.90173600  0.99020700  0.38519500  1
  C  1479  1  0.90208900  0.96162900  0.39976700  1
  C  1480  1  0.89584600  0.95277200  0.38373500  1
  C  1481  1  0.89321300  0.96317200  0.36804300  1
  C  1483  1  0.89636500  0.98198400  0.36849200  1
  C  1484  1  0.89262200  0.99284700  0.35323700  1
  C  1485  1  0.89316900  0.01167900  0.35468800  1
  C  1490  1  0.90416100  0.04107100  0.42478300  1
  C  1496  1  0.39710900  0.45320800  0.59166700  1
  C  1497  1  0.40241500  0.46457800  0.57697100  1
  C  1499  1  0.40195900  0.49053700  0.59614500  1
  C  1500  1  0.39703700  0.47972900  0.61135300  1
  C  1501  1  0.39485300  0.46101100  0.60890900  1
  C  1503  1  0.40173700  0.50944000  0.59761600  1
  C  1504  1  0.40223600  0.53799700  0.58300100  1
  C  1505  1  0.39571600  0.54686700  0.59895300  1
  C  1506  1  0.39283800  0.53648200  0.61463200  1
  C  1508  1  0.39608500  0.51768000  0.61425100  1
  C  1509  1  0.39214000  0.50683700  0.62949000  1
  C  1510  1  0.39278300  0.48800500  0.62808500  1
  C  1515  1  0.40467200  0.45852100  0.55811900  1
  N  723  1  0.75545200  0.23140300  0.41168700  1
  N  732  1  0.72697100  0.26159700  0.41052800  1
  N  744  1  0.79712000  0.19772200  0.40069800  1
  N  745  1  0.70289500  0.30438900  0.39727700  1
  N  748  1  0.25552900  0.26824000  0.57105300  1
  N  757  1  0.22701600  0.23806500  0.57222500  1
  N  769  1  0.29721000  0.30191300  0.58204100  1
  N  770  1  0.20290800  0.19529100  0.58549500  1
  N  773  1  0.00635200  0.83281300  0.97292600  1
  N  782  1  0.97808000  0.83389300  0.00320800  1
  N  794  1  0.04762100  0.84386700  0.93900600  1
  N  795  1  0.95412500  0.84704300  0.04604800  1
  N  798  1  0.50620900  0.66690500  0.00983800  1
  N  807  1  0.47805300  0.66588400  0.97948100  1
  N  819  1  0.54741300  0.65581300  0.04380100  1
  N  820  1  0.45421200  0.65278500  0.93657800  1
  N  823  1  0.24352500  0.76831400  0.57458100  1
  N  832  1  0.27187500  0.73806100  0.57568300  1
  N  844  1  0.20214900  0.80216900  0.58562000  1
  N  845  1  0.29589800  0.69525100  0.58887400  1
  N  848  1  0.74320500  0.73161100  0.40817300  1
  N  857  1  0.77155200  0.76186500  0.40713500  1
  N  869  1  0.70191900  0.69772800  0.39702500  1
  N  870  1  0.79565300  0.80466600  0.39399900  1
  N  873  1  0.99358500  0.16909500  0.00965100  1
  N  882  1  0.02256600  0.16759900  0.97982700  1
  N  894  1  0.95167300  0.15831900  0.04313400  1
  N  895  1  0.04716100  0.15399800  0.93736800  1
  N  898  1  0.49384100  0.33060900  0.97291500  1
  N  907  1  0.52274100  0.33207100  0.00279400  1
  N  919  1  0.45189600  0.34136400  0.93944300  1
  N  920  1  0.54719000  0.34561800  0.04533100  1
  N  923  1  0.25523600  0.73131700  0.91343700  1
  N  932  1  0.22571700  0.76082900  0.91170400  1
  N  944  1  0.29813900  0.69847000  0.90304500  1
  N  945  1  0.20095500  0.80324900  0.89813000  1
  N  948  1  0.75527700  0.76828600  0.06927900  1
  N  957  1  0.72570000  0.73880900  0.07097000  1
  N  969  1  0.79811900  0.80114500  0.07977700  1
  N  970  1  0.70077300  0.69645700  0.08456200  1
  N  973  1  0.50549000  0.32982400  0.47286800  1
  N  982  1  0.47680100  0.33101800  0.50292400  1
  N  994  1  0.54740300  0.34075200  0.43937300  1
  N  995  1  0.45251900  0.34425000  0.54563700  1
  N  998  1  0.00554500  0.16988500  0.50984300  1
  N  1007  1  0.97681200  0.16868400  0.47981400  1
  N  1019  1  0.04749900  0.15895700  0.54330600  1
  N  1020  1  0.95246000  0.15544400  0.43712700  1
  N  1023  1  0.74372200  0.26832600  0.07213000  1
  N  1032  1  0.77268900  0.23850600  0.07359700  1
  N  1044  1  0.70170300  0.30173500  0.08283900  1
  N  1045  1  0.79717600  0.19596800  0.08706900  1
  N  1048  1  0.24363400  0.23141700  0.91060600  1
  N  1057  1  0.27261900  0.26122700  0.90916700  1
  N  1069  1  0.20169000  0.19797300  0.89982100  1
  N  1070  1  0.29719600  0.30372600  0.89569100  1
  N  1073  1  0.49452700  0.67190900  0.50983900  1
  N  1082  1  0.52392800  0.67023100  0.48023300  1
  N  1094  1  0.45185500  0.66140700  0.54284900  1
  N  1095  1  0.54860000  0.65666600  0.43777100  1
  N  1098  1  0.99451900  0.82769000  0.47284900  1
  N  1107  1  0.02392100  0.82936900  0.50245500  1
  N  1119  1  0.95178400  0.83815800  0.43987600  1
  N  1120  1  0.04857400  0.84292500  0.54493100  1
  N  1123  1  0.84595800  0.15943500  0.25853200  1
  N  1132  1  0.84607700  0.15771600  0.22111300  1
  N  1144  1  0.86119400  0.14954800  0.30396700  1
  N  1145  1  0.86343500  0.14336000  0.17718300  1
  N  1148  1  0.34624100  0.34011600  0.72428500  1
  N  1157  1  0.34624900  0.34188200  0.76169900  1
  N  1169  1  0.36133200  0.35008000  0.67883900  1
  N  1170  1  0.36306900  0.35649700  0.80570300  1
  N  1173  1  0.09797000  0.98208100  0.89892500  1
  N  1182  1  0.09762400  0.01952500  0.89803200  1
  N  1194  1  0.11343100  0.93695700  0.88799600  1
  N  1195  1  0.11406900  0.06394100  0.88446400  1
  N  1198  1  0.59799700  0.51759000  0.08371000  1
  N  1207  1  0.59765000  0.48015100  0.08459700  1
  N  1219  1  0.61337800  0.56273000  0.09465100  1
  N  1220  1  0.61399500  0.43570900  0.09817300  1
  N  1223  1  0.65346500  0.33992400  0.25845400  1
  N  1232  1  0.65288300  0.34359300  0.22116200  1
  N  1244  1  0.63968500  0.34777400  0.30463200  1
  N  1245  1  0.63489800  0.36022200  0.17828400  1
  N  1248  1  0.15354000  0.15975100  0.72424500  1
  N  1257  1  0.15294800  0.15609000  0.76153400  1
  N  1269  1  0.13970700  0.15188200  0.67808100  1
  N  1270  1  0.13479000  0.13957800  0.80436800  1
  N  1273  1  0.40205400  0.51736200  0.89989100  1
  N  1282  1  0.40180200  0.48002600  0.89680200  1
  N  1294  1  0.38778200  0.56335100  0.89147300  1
  N  1295  1  0.38399000  0.43680600  0.88104400  1
  N  1298  1  0.90207500  0.98228000  0.08296400  1
  N  1307  1  0.90187400  0.01961900  0.08603700  1
  N  1319  1  0.88768200  0.93630700  0.09136100  1
  N  1320  1  0.88395900  0.06284000  0.10177500  1
  N  1323  1  0.15238000  0.84102600  0.72363600  1
  N  1332  1  0.15338100  0.84160800  0.76110200  1
  N  1344  1  0.13625200  0.85235400  0.67871200  1
  N  1345  1  0.13756600  0.85485400  0.80578100  1
  N  1348  1  0.65200900  0.65882200  0.25896400  1
  N  1357  1  0.65312300  0.65820600  0.22150600  1
  N  1369  1  0.63607100  0.64738300  0.30390200  1
  N  1370  1  0.63793300  0.64469200  0.17673500  1
  N  1373  1  0.34698800  0.65986100  0.72371100  1
  N  1382  1  0.34641300  0.65744800  0.76112100  1
  N  1394  1  0.36201800  0.65060800  0.67802500  1
  N  1395  1  0.36314600  0.64226300  0.80488100  1
  N  1398  1  0.84667800  0.83985600  0.25908800  1
  N  1407  1  0.84622500  0.84222600  0.22167800  1
  N  1419  1  0.86182600  0.84904700  0.30475800  1
  N  1420  1  0.86345100  0.85716700  0.17798000  1
  N  1423  1  0.59552500  0.48267600  0.40200700  1
  N  1432  1  0.59508700  0.52012700  0.40065500  1
  N  1444  1  0.61119300  0.43745500  0.39159700  1
  N  1445  1  0.61155300  0.56437700  0.38650300  1
  N  1448  1  0.09586600  0.01693100  0.58051400  1
  N  1457  1  0.09528300  0.97948600  0.58191100  1
  N  1469  1  0.11129200  0.06218700  0.59102100  1
  N  1470  1  0.11114100  0.93515600  0.59628300  1
  N  1473  1  0.90424400  0.01710500  0.40298100  1
  N  1482  1  0.90438900  0.97973500  0.39999800  1
  N  1494  1  0.88964300  0.06299400  0.39426100  1
  N  1495  1  0.88725400  0.93633800  0.38412300  1
  N  1498  1  0.40450600  0.48251600  0.57989100  1
  N  1507  1  0.40458800  0.51989500  0.58282100  1
  N  1519  1  0.38968600  0.43666300  0.58855800  1
  N  1520  1  0.38697100  0.56324600  0.59849100  1
