# generated using pymatgen
data_H8C14N3
_symmetry_space_group_name_H-M   'P 1'
_cell_length_a   37.69860000
_cell_length_b   37.69860000
_cell_length_c   37.69860000
_cell_angle_alpha   90.00000000
_cell_angle_beta   90.00000000
_cell_angle_gamma   90.00000000
_symmetry_Int_Tables_number   1
_chemical_formula_structural   H8C14N3
_chemical_formula_sum   'H384 C672 N144'
_cell_volume   53576.66380367
_cell_formula_units_Z   48
loop_
 _symmetry_equiv_pos_site_id
 _symmetry_equiv_pos_as_xyz
  1  'x, y, z'
loop_
 _atom_site_type_symbol
 _atom_site_label
 _atom_site_symmetry_multiplicity
 _atom_site_fract_x
 _atom_site_fract_y
 _atom_site_fract_z
 _atom_site_occupancy
  H  7  1  0.08531400  0.03728500  0.25494000  1
  H  8  1  0.13449600  0.09014200  0.17094200  1
  H  15  1  0.11962400  0.92769500  0.34572100  1
  H  16  1  0.08481400  0.95841000  0.24508400  1
  H  19  1  0.18101700  0.96425100  0.21960400  1
  H  20  1  0.20094800  0.98596500  0.18724200  1
  H  21  1  0.19808200  0.01725000  0.31102500  1
  H  22  1  0.18505000  0.03027700  0.27151900  1
  H  29  1  0.42118800  0.96914500  0.75476600  1
  H  30  1  0.37147500  0.91593400  0.67129800  1
  H  37  1  0.38669600  0.07875900  0.84563700  1
  H  38  1  0.42155200  0.04793700  0.74502500  1
  H  41  1  0.32535700  0.04208900  0.71962400  1
  H  42  1  0.30520500  0.02023800  0.68748700  1
  H  43  1  0.30835900  0.98906900  0.81107000  1
  H  44  1  0.32145800  0.97592300  0.77163100  1
  H  51  1  0.92099200  0.53741800  0.25136600  1
  H  52  1  0.87121000  0.59061100  0.33478400  1
  H  59  1  0.88673100  0.42781400  0.16051100  1
  H  60  1  0.92144000  0.45851300  0.26120600  1
  H  63  1  0.82532000  0.46431500  0.28661300  1
  H  64  1  0.80511500  0.48616700  0.31871800  1
  H  65  1  0.80834300  0.51744600  0.19506500  1
  H  66  1  0.82136500  0.53052400  0.23455300  1
  H  73  1  0.58525500  0.46896500  0.75123000  1
  H  74  1  0.63471600  0.41593100  0.83494100  1
  H  81  1  0.61951700  0.57867400  0.66057400  1
  H  82  1  0.58466700  0.54794900  0.76119600  1
  H  85  1  0.68078700  0.54215000  0.78671700  1
  H  86  1  0.70086700  0.52035100  0.81893000  1
  H  87  1  0.69790400  0.48906300  0.69524400  1
  H  88  1  0.68484500  0.47600700  0.73472800  1
  H  95  1  0.25502300  0.08527700  0.03733200  1
  H  96  1  0.17126900  0.13468500  0.09035200  1
  H  103  1  0.34574800  0.11961900  0.92764200  1
  H  104  1  0.24514700  0.08478300  0.95846300  1
  H  107  1  0.21960700  0.18089300  0.96422700  1
  H  108  1  0.18737800  0.20095100  0.98602400  1
  H  109  1  0.31114700  0.19804600  0.01725400  1
  H  110  1  0.27166000  0.18500900  0.03032600  1
  H  117  1  0.75490900  0.42113300  0.96908400  1
  H  118  1  0.67104900  0.37180200  0.91612500  1
  H  125  1  0.84570800  0.38670700  0.07869300  1
  H  126  1  0.74508900  0.42158100  0.04792100  1
  H  129  1  0.71963700  0.32536800  0.04207100  1
  H  130  1  0.68733400  0.30538500  0.02031800  1
  H  131  1  0.81101700  0.30830100  0.98909300  1
  H  132  1  0.77156500  0.32140500  0.97598900  1
  H  139  1  0.25129000  0.92100500  0.53743900  1
  H  140  1  0.33465200  0.87124500  0.59073000  1
  H  147  1  0.16062000  0.88669400  0.42768400  1
  H  148  1  0.26125000  0.92149900  0.45850300  1
  H  151  1  0.28676700  0.82546300  0.46428500  1
  H  152  1  0.31884000  0.80525300  0.48617500  1
  H  153  1  0.19513600  0.80835400  0.51737800  1
  H  154  1  0.23459500  0.82141800  0.53050500  1
  H  161  1  0.75121700  0.58533800  0.46898800  1
  H  162  1  0.83517700  0.63453300  0.41609300  1
  H  169  1  0.66060300  0.61967300  0.57871700  1
  H  170  1  0.76121200  0.58476700  0.54800500  1
  H  173  1  0.78669500  0.68093300  0.54210300  1
  H  174  1  0.81903300  0.70088000  0.52036700  1
  H  175  1  0.69529700  0.69798600  0.48904000  1
  H  176  1  0.73477800  0.68490100  0.47599400  1
  H  183  1  0.03732600  0.25498700  0.08528700  1
  H  184  1  0.09030900  0.17119800  0.13469800  1
  H  191  1  0.92765300  0.34573200  0.11960900  1
  H  192  1  0.95845200  0.24511700  0.08479300  1
  H  195  1  0.96422500  0.21960900  0.18092600  1
  H  196  1  0.98598400  0.18732200  0.20093500  1
  H  197  1  0.01725400  0.31112000  0.19804700  1
  H  198  1  0.03031700  0.27162800  0.18501600  1
  H  205  1  0.96905800  0.75495400  0.42111100  1
  H  206  1  0.91615600  0.67100100  0.37188100  1
  H  213  1  0.07866200  0.84574000  0.38669600  1
  H  214  1  0.04791500  0.74511000  0.42156000  1
  H  217  1  0.04204600  0.71966100  0.32536000  1
  H  218  1  0.02029400  0.68735500  0.30538000  1
  H  219  1  0.98905800  0.81104400  0.30829500  1
  H  220  1  0.97596800  0.77158300  0.32139400  1
  H  227  1  0.53738100  0.25136000  0.92096300  1
  H  228  1  0.59051000  0.33492000  0.87135600  1
  H  235  1  0.42779900  0.16053000  0.88668300  1
  H  236  1  0.45846500  0.26122500  0.92141100  1
  H  239  1  0.46431500  0.28663900  0.82527800  1
  H  240  1  0.48615400  0.31878100  0.80512000  1
  H  241  1  0.51743900  0.19512100  0.80831700  1
  H  242  1  0.53049500  0.23461600  0.82134400  1
  H  249  1  0.46901500  0.75129100  0.58530000  1
  H  250  1  0.41622300  0.83535500  0.63442200  1
  H  257  1  0.57857100  0.66052600  0.61957000  1
  H  258  1  0.54802900  0.76123000  0.58480200  1
  H  261  1  0.54205200  0.78659700  0.68102000  1
  H  262  1  0.52034000  0.81895900  0.70095700  1
  H  263  1  0.48893900  0.69525700  0.69791700  1
  H  264  1  0.47596500  0.73477800  0.68488800  1
  H  275  1  0.02561600  0.97701800  0.39343700  1
  H  276  1  0.99923400  0.92384100  0.42033900  1
  H  277  1  0.06220600  0.82755400  0.28884900  1
  H  278  1  0.08754500  0.87886100  0.26279900  1
  H  289  1  0.48056200  0.02915900  0.89331500  1
  H  290  1  0.50698700  0.08226200  0.92031300  1
  H  291  1  0.44434800  0.17885900  0.78886000  1
  H  292  1  0.41889900  0.12759400  0.76271800  1
  H  303  1  0.98061200  0.47697500  0.11275200  1
  H  304  1  0.00695900  0.42377500  0.08586300  1
  H  305  1  0.94434300  0.32760400  0.21762800  1
  H  306  1  0.91899500  0.37900100  0.24366500  1
  H  317  1  0.52562500  0.52926700  0.61284300  1
  H  318  1  0.49929700  0.58242800  0.58585800  1
  H  319  1  0.56194700  0.67882400  0.71750200  1
  H  320  1  0.58729000  0.62744300  0.74359800  1
  H  331  1  0.39346800  0.02556300  0.97695700  1
  H  332  1  0.42038200  0.99924400  0.92375400  1
  H  333  1  0.28888100  0.06228600  0.82752400  1
  H  334  1  0.26283100  0.08758000  0.87885500  1
  H  345  1  0.89344700  0.48059100  0.02916200  1
  H  346  1  0.92040300  0.50703200  0.08228100  1
  H  347  1  0.78892100  0.44430800  0.17879000  1
  H  348  1  0.76281400  0.41887200  0.12750400  1
  H  359  1  0.11287500  0.98061200  0.47696000  1
  H  360  1  0.08595800  0.00697000  0.42377700  1
  H  361  1  0.21764900  0.94434300  0.32751400  1
  H  362  1  0.24371200  0.91898400  0.37889200  1
  H  373  1  0.61291700  0.52573600  0.52925300  1
  H  374  1  0.58590000  0.49940600  0.58239600  1
  H  375  1  0.71744900  0.56209500  0.67889300  1
  H  376  1  0.74357700  0.58744900  0.62753000  1
  H  387  1  0.97699200  0.39341300  0.02554300  1
  H  388  1  0.92380100  0.42032300  0.99919700  1
  H  389  1  0.82752700  0.28887000  0.06227100  1
  H  390  1  0.87884500  0.26281900  0.08758400  1
  H  401  1  0.02929200  0.89350800  0.48064100  1
  H  402  1  0.08244300  0.92042200  0.50705600  1
  H  403  1  0.17881800  0.78892100  0.44420200  1
  H  404  1  0.12748100  0.76284600  0.41880900  1
  H  415  1  0.47701500  0.11278400  0.98053600  1
  H  416  1  0.42383000  0.08588400  0.00690100  1
  H  417  1  0.32758800  0.21764000  0.94435900  1
  H  418  1  0.37896600  0.24370600  0.91897600  1
  H  429  1  0.52936200  0.61285100  0.52561900  1
  H  430  1  0.58254700  0.58594000  0.49926000  1
  H  431  1  0.67883700  0.71757600  0.56210300  1
  H  432  1  0.62742700  0.74362500  0.58744400  1
  H  443  1  0.72227400  0.27670500  0.86638300  1
  H  444  1  0.66928000  0.25258600  0.83710600  1
  H  445  1  0.57045600  0.31542000  0.96675200  1
  H  446  1  0.62157800  0.33913200  0.99471600  1
  H  457  1  0.78442200  0.72985500  0.36651500  1
  H  458  1  0.83753800  0.75394300  0.33744000  1
  H  459  1  0.93597100  0.69039200  0.46696400  1
  H  460  1  0.88473600  0.66666667  0.49484600  1
  H  471  1  0.22196800  0.22958100  0.14026600  1
  H  472  1  0.16883300  0.25358400  0.16938600  1
  H  473  1  0.07054300  0.19106600  0.03920900  1
  H  474  1  0.12182200  0.16742600  0.01132500  1
  H  485  1  0.28472200  0.77613000  0.64054900  1
  H  486  1  0.33802600  0.75223500  0.66944400  1
  H  487  1  0.43564800  0.81565400  0.53915800  1
  H  488  1  0.38417100  0.83906100  0.51152600  1
  H  499  1  0.77615100  0.64045600  0.28450900  1
  H  500  1  0.75226400  0.66945800  0.33776100  1
  H  501  1  0.81549200  0.53932000  0.43561600  1
  H  502  1  0.83894700  0.51159000  0.38427400  1
  H  513  1  0.22963600  0.13990800  0.22213900  1
  H  514  1  0.25375900  0.16910400  0.16910300  1
  H  515  1  0.19076000  0.03950400  0.07040100  1
  H  516  1  0.16702700  0.01155000  0.12154100  1
  H  527  1  0.72987100  0.36630300  0.78448600  1
  H  528  1  0.75384300  0.33725900  0.83767600  1
  H  529  1  0.69064400  0.46717700  0.93582800  1
  H  530  1  0.66704600  0.49502100  0.88451900  1
  H  541  1  0.27666800  0.86603800  0.72237200  1
  H  542  1  0.25262200  0.83677400  0.66933500  1
  H  543  1  0.31496100  0.96682900  0.57071600  1
  H  544  1  0.33863600  0.99474300  0.62191500  1
  H  555  1  0.14002500  0.22180600  0.23006200  1
  H  556  1  0.16909100  0.16861200  0.25399800  1
  H  557  1  0.03936900  0.07046300  0.19035700  1
  H  558  1  0.01155400  0.12175400  0.16686100  1
  H  569  1  0.64041400  0.28428400  0.77653600  1
  H  570  1  0.66953200  0.33741900  0.75253000  1
  H  571  1  0.53936800  0.43567900  0.81511500  1
  H  572  1  0.51154200  0.38442600  0.83873700  1
  H  583  1  0.86629800  0.72240100  0.27705300  1
  H  584  1  0.83695500  0.66945200  0.25291900  1
  H  585  1  0.96683200  0.57045600  0.31502000  1
  H  586  1  0.99488900  0.62157000  0.33884300  1
  H  597  1  0.36653900  0.78425000  0.72958400  1
  H  598  1  0.33729600  0.83729900  0.75361700  1
  H  599  1  0.46706000  0.93596600  0.69076300  1
  H  600  1  0.49501100  0.88476000  0.66709100  1
  H  607  1  0.08531400  0.03728500  0.67935900  1
  H  608  1  0.13449600  0.09014200  0.59536100  1
  H  615  1  0.11962400  0.92769500  0.77014000  1
  H  616  1  0.08481400  0.95841000  0.66950300  1
  H  619  1  0.18101700  0.96425100  0.64402300  1
  H  620  1  0.20094800  0.98596500  0.61166100  1
  H  621  1  0.19808200  0.01725000  0.73544400  1
  H  622  1  0.18505000  0.03027700  0.69593800  1
  H  629  1  0.42118800  0.96914500  0.17918500  1
  H  630  1  0.37147500  0.91593400  0.09571690  1
  H  637  1  0.38669600  0.07875900  0.27005600  1
  H  638  1  0.42155200  0.04793700  0.16944400  1
  H  641  1  0.32535700  0.04208900  0.14404300  1
  H  642  1  0.30520500  0.02023800  0.11190600  1
  H  643  1  0.30835900  0.98906900  0.23548900  1
  H  644  1  0.32145800  0.97592300  0.19605000  1
  H  651  1  0.92099200  0.53741800  0.67578500  1
  H  652  1  0.87121000  0.59061100  0.75920300  1
  H  659  1  0.88673100  0.42781400  0.58493000  1
  H  660  1  0.92144000  0.45851300  0.68562500  1
  H  663  1  0.82532000  0.46431500  0.71103200  1
  H  664  1  0.80511500  0.48616700  0.74313700  1
  H  665  1  0.80834300  0.51744600  0.61948400  1
  H  666  1  0.82136500  0.53052400  0.65897200  1
  H  673  1  0.58525500  0.46896500  0.17564900  1
  H  674  1  0.63471600  0.41593100  0.25936000  1
  H  681  1  0.61951700  0.57867400  0.08499290  1
  H  682  1  0.58466700  0.54794900  0.18561500  1
  H  685  1  0.68078700  0.54215000  0.21113600  1
  H  686  1  0.70086700  0.52035100  0.24334900  1
  H  687  1  0.69790400  0.48906300  0.11966300  1
  H  688  1  0.68484500  0.47600700  0.15914700  1
  H  695  1  0.25502300  0.08527700  0.46175100  1
  H  696  1  0.17126900  0.13468500  0.51477100  1
  H  703  1  0.34574800  0.11961900  0.35206100  1
  H  704  1  0.24514700  0.08478300  0.38288200  1
  H  707  1  0.21960700  0.18089300  0.38864600  1
  H  708  1  0.18737800  0.20095100  0.41044300  1
  H  709  1  0.31114700  0.19804600  0.44167300  1
  H  710  1  0.27166000  0.18500900  0.45474500  1
  H  717  1  0.75490900  0.42113300  0.39350300  1
  H  718  1  0.67104900  0.37180200  0.34054400  1
  H  725  1  0.84570800  0.38670700  0.50311200  1
  H  726  1  0.74508900  0.42158100  0.47234000  1
  H  729  1  0.71963700  0.32536800  0.46649000  1
  H  730  1  0.68733400  0.30538500  0.44473700  1
  H  731  1  0.81101700  0.30830100  0.41351200  1
  H  732  1  0.77156500  0.32140500  0.40040800  1
  H  739  1  0.25129000  0.92100500  0.96185800  1
  H  740  1  0.33465200  0.87124500  0.01514890  1
  H  747  1  0.16062000  0.88669400  0.85210300  1
  H  748  1  0.26125000  0.92149900  0.88292200  1
  H  751  1  0.28676700  0.82546300  0.88870400  1
  H  752  1  0.31884000  0.80525300  0.91059400  1
  H  753  1  0.19513600  0.80835400  0.94179700  1
  H  754  1  0.23459500  0.82141800  0.95492400  1
  H  761  1  0.75121700  0.58533800  0.89340700  1
  H  762  1  0.83517700  0.63453300  0.84051200  1
  H  769  1  0.66060300  0.61967300  0.00313594  1
  H  770  1  0.76121200  0.58476700  0.97242400  1
  H  773  1  0.78669500  0.68093300  0.96652200  1
  H  774  1  0.81903300  0.70088000  0.94478600  1
  H  775  1  0.69529700  0.69798600  0.91345900  1
  H  776  1  0.73477800  0.68490100  0.90041300  1
  H  783  1  0.03732600  0.25498700  0.50970600  1
  H  784  1  0.09030900  0.17119800  0.55911700  1
  H  791  1  0.92765300  0.34573200  0.54402800  1
  H  792  1  0.95845200  0.24511700  0.50921200  1
  H  795  1  0.96422500  0.21960900  0.60534500  1
  H  796  1  0.98598400  0.18732200  0.62535400  1
  H  797  1  0.01725400  0.31112000  0.62246600  1
  H  798  1  0.03031700  0.27162800  0.60943500  1
  H  805  1  0.96905800  0.75495400  0.84553000  1
  H  806  1  0.91615600  0.67100100  0.79630000  1
  H  813  1  0.07866200  0.84574000  0.81111500  1
  H  814  1  0.04791500  0.74511000  0.84597900  1
  H  817  1  0.04204600  0.71966100  0.74977900  1
  H  818  1  0.02029400  0.68735500  0.72979900  1
  H  819  1  0.98905800  0.81104400  0.73271400  1
  H  820  1  0.97596800  0.77158300  0.74581300  1
  H  827  1  0.53738100  0.25136000  0.34538200  1
  H  828  1  0.59051000  0.33492000  0.29577500  1
  H  835  1  0.42779900  0.16053000  0.31110200  1
  H  836  1  0.45846500  0.26122500  0.34583000  1
  H  839  1  0.46431500  0.28663900  0.24969700  1
  H  840  1  0.48615400  0.31878100  0.22953900  1
  H  841  1  0.51743900  0.19512100  0.23273600  1
  H  842  1  0.53049500  0.23461600  0.24576300  1
  H  849  1  0.46901500  0.75129100  0.00971894  1
  H  850  1  0.41622300  0.83535500  0.05884090  1
  H  857  1  0.57857100  0.66052600  0.04398890  1
  H  858  1  0.54802900  0.76123000  0.00922094  1
  H  861  1  0.54205200  0.78659700  0.10543900  1
  H  862  1  0.52034000  0.81895900  0.12537600  1
  H  863  1  0.48893900  0.69525700  0.12233600  1
  H  864  1  0.47596500  0.73477800  0.10930700  1
  H  875  1  0.02561600  0.97701800  0.81785600  1
  H  876  1  0.99923400  0.92384100  0.84475800  1
  H  877  1  0.06220600  0.82755400  0.71326800  1
  H  878  1  0.08754500  0.87886100  0.68721800  1
  H  889  1  0.48056200  0.02915900  0.31773400  1
  H  890  1  0.50698700  0.08226200  0.34473200  1
  H  891  1  0.44434800  0.17885900  0.21327900  1
  H  892  1  0.41889900  0.12759400  0.18713700  1
  H  903  1  0.98061200  0.47697500  0.53717100  1
  H  904  1  0.00695900  0.42377500  0.51028200  1
  H  905  1  0.94434300  0.32760400  0.64204700  1
  H  906  1  0.91899500  0.37900100  0.66808400  1
  H  917  1  0.52562500  0.52926700  0.03726190  1
  H  918  1  0.49929700  0.58242800  0.01027690  1
  H  919  1  0.56194700  0.67882400  0.14192100  1
  H  920  1  0.58729000  0.62744300  0.16801700  1
  H  931  1  0.39346800  0.02556300  0.40137600  1
  H  932  1  0.42038200  0.99924400  0.34817300  1
  H  933  1  0.28888100  0.06228600  0.25194300  1
  H  934  1  0.26283100  0.08758000  0.30327400  1
  H  945  1  0.89344700  0.48059100  0.45358100  1
  H  946  1  0.92040300  0.50703200  0.50670000  1
  H  947  1  0.78892100  0.44430800  0.60320900  1
  H  948  1  0.76281400  0.41887200  0.55192300  1
  H  959  1  0.11287500  0.98061200  0.90137900  1
  H  960  1  0.08595800  0.00697000  0.84819600  1
  H  961  1  0.21764900  0.94434300  0.75193300  1
  H  962  1  0.24371200  0.91898400  0.80331100  1
  H  973  1  0.61291700  0.52573600  0.95367200  1
  H  974  1  0.58590000  0.49940600  0.00681494  1
  H  975  1  0.71744900  0.56209500  0.10331200  1
  H  976  1  0.74357700  0.58744900  0.05194890  1
  H  987  1  0.97699200  0.39341300  0.44996200  1
  H  988  1  0.92380100  0.42032300  0.42361600  1
  H  989  1  0.82752700  0.28887000  0.48669000  1
  H  990  1  0.87884500  0.26281900  0.51200300  1
  H  1001  1  0.02929200  0.89350800  0.90506000  1
  H  1002  1  0.08244300  0.92042200  0.93147500  1
  H  1003  1  0.17881800  0.78892100  0.86862100  1
  H  1004  1  0.12748100  0.76284600  0.84322800  1
  H  1015  1  0.47701500  0.11278400  0.40495500  1
  H  1016  1  0.42383000  0.08588400  0.43132000  1
  H  1017  1  0.32758800  0.21764000  0.36877800  1
  H  1018  1  0.37896600  0.24370600  0.34339500  1
  H  1029  1  0.52936200  0.61285100  0.95003800  1
  H  1030  1  0.58254700  0.58594000  0.92367900  1
  H  1031  1  0.67883700  0.71757600  0.98652200  1
  H  1032  1  0.62742700  0.74362500  0.01186290  1
  H  1043  1  0.72227400  0.27670500  0.29080200  1
  H  1044  1  0.66928000  0.25258600  0.26152500  1
  H  1045  1  0.57045600  0.31542000  0.39117100  1
  H  1046  1  0.62157800  0.33913200  0.41913500  1
  H  1057  1  0.78442200  0.72985500  0.79093400  1
  H  1058  1  0.83753800  0.75394300  0.76185900  1
  H  1059  1  0.93597100  0.69039200  0.89138300  1
  H  1060  1  0.88473600  0.66666667  0.91926500  1
  H  1071  1  0.22196800  0.22958100  0.56468500  1
  H  1072  1  0.16883300  0.25358400  0.59380500  1
  H  1073  1  0.07054300  0.19106600  0.46362800  1
  H  1074  1  0.12182200  0.16742600  0.43574400  1
  H  1085  1  0.28472200  0.77613000  0.06496790  1
  H  1086  1  0.33802600  0.75223500  0.09386290  1
  H  1087  1  0.43564800  0.81565400  0.96357700  1
  H  1088  1  0.38417100  0.83906100  0.93594500  1
  H  1099  1  0.77615100  0.64045600  0.70892800  1
  H  1100  1  0.75226400  0.66945800  0.76218000  1
  H  1101  1  0.81549200  0.53932000  0.86003500  1
  H  1102  1  0.83894700  0.51159000  0.80869300  1
  H  1113  1  0.22963600  0.13990800  0.64655800  1
  H  1114  1  0.25375900  0.16910400  0.59352200  1
  H  1115  1  0.19076000  0.03950400  0.49482000  1
  H  1116  1  0.16702700  0.01155000  0.54596000  1
  H  1127  1  0.72987100  0.36630300  0.20890500  1
  H  1128  1  0.75384300  0.33725900  0.26209500  1
  H  1129  1  0.69064400  0.46717700  0.36024700  1
  H  1130  1  0.66704600  0.49502100  0.30893800  1
  H  1141  1  0.27666800  0.86603800  0.14679100  1
  H  1142  1  0.25262200  0.83677400  0.09375390  1
  H  1143  1  0.31496100  0.96682900  0.99513500  1
  H  1144  1  0.33863600  0.99474300  0.04633390  1
  H  1155  1  0.14002500  0.22180600  0.65448100  1
  H  1156  1  0.16909100  0.16861200  0.67841700  1
  H  1157  1  0.03936900  0.07046300  0.61477600  1
  H  1158  1  0.01155400  0.12175400  0.59128000  1
  H  1169  1  0.64041400  0.28428400  0.20095500  1
  H  1170  1  0.66953200  0.33741900  0.17694900  1
  H  1171  1  0.53936800  0.43567900  0.23953400  1
  H  1172  1  0.51154200  0.38442600  0.26315600  1
  H  1183  1  0.86629800  0.72240100  0.70147200  1
  H  1184  1  0.83695500  0.66945200  0.67733800  1
  H  1185  1  0.96683200  0.57045600  0.73943900  1
  H  1186  1  0.99488900  0.62157000  0.76326200  1
  H  1197  1  0.36653900  0.78425000  0.15400300  1
  H  1198  1  0.33729600  0.83729900  0.17803600  1
  H  1199  1  0.46706000  0.93596600  0.11518200  1
  H  1200  1  0.49501100  0.88476000  0.09150990  1
  C  1  1  0.13019200  0.01028900  0.23385300  1
  C  2  1  0.10411300  0.03752800  0.23529400  1
  C  3  1  0.10563500  0.06719900  0.21259900  1
  C  4  1  0.13352500  0.06874800  0.18781600  1
  C  5  1  0.15935600  0.04176500  0.18440400  1
  C  6  1  0.15737000  0.01158200  0.20723300  1
  C  9  1  0.13084300  0.98565200  0.26297600  1
  C  10  1  0.15576000  0.98900300  0.29166900  1
  C  11  1  0.15129800  0.96757200  0.32260100  1
  C  12  1  0.12224200  0.94392700  0.32397500  1
  C  13  1  0.09770000  0.93988100  0.29608300  1
  C  14  1  0.10308500  0.96020100  0.26512400  1
  C  23  1  0.37617900  0.99602400  0.73383400  1
  C  24  1  0.40229400  0.96881400  0.73521600  1
  C  25  1  0.40050800  0.93895300  0.71278800  1
  C  26  1  0.37251800  0.93736700  0.68811600  1
  C  27  1  0.34671600  0.96437300  0.68468600  1
  C  28  1  0.34887000  0.99466900  0.70734800  1
  C  31  1  0.37556300  0.02067400  0.76296200  1
  C  32  1  0.35065000  0.01732700  0.79166100  1
  C  33  1  0.35505600  0.03885000  0.82253800  1
  C  34  1  0.38409900  0.06250900  0.82390400  1
  C  35  1  0.40867600  0.06650400  0.79603000  1
  C  36  1  0.40332500  0.04612100  0.76510600  1
  C  45  1  0.87606500  0.51042500  0.27237400  1
  C  46  1  0.90212900  0.53768900  0.27094700  1
  C  47  1  0.90023300  0.56762300  0.29327100  1
  C  48  1  0.87226100  0.56917800  0.31796400  1
  C  49  1  0.84655200  0.54209500  0.32148700  1
  C  50  1  0.84876400  0.51178000  0.29886000  1
  C  53  1  0.87548900  0.48580600  0.24322700  1
  C  54  1  0.85058600  0.48915100  0.21451600  1
  C  55  1  0.85505600  0.46769700  0.18359800  1
  C  56  1  0.88412900  0.44407200  0.18223900  1
  C  57  1  0.90866000  0.44003800  0.21014700  1
  C  58  1  0.90324900  0.46035900  0.24109700  1
  C  67  1  0.63003700  0.49604500  0.77242400  1
  C  68  1  0.60401700  0.46874700  0.77091000  1
  C  69  1  0.60580300  0.43888100  0.79333000  1
  C  70  1  0.63369500  0.43735900  0.81811600  1
  C  71  1  0.65938600  0.46445800  0.82169100  1
  C  72  1  0.65725000  0.49473500  0.79900600  1
  C  75  1  0.63066600  0.52067200  0.74328800  1
  C  76  1  0.65560600  0.51733500  0.71461300  1
  C  77  1  0.65116500  0.53878200  0.68368600  1
  C  78  1  0.62209000  0.56240300  0.68229400  1
  C  79  1  0.59753400  0.56644600  0.71017800  1
  C  80  1  0.60292700  0.54614300  0.74114700  1
  C  89  1  0.23395900  0.13017700  0.01035100  1
  C  90  1  0.23542300  0.10412300  0.03761400  1
  C  91  1  0.21287500  0.10578100  0.06739000  1
  C  92  1  0.18813300  0.13370500  0.06895100  1
  C  93  1  0.18466900  0.15949600  0.04193400  1
  C  94  1  0.20737100  0.15738700  0.01166500  1
  C  97  1  0.26306200  0.13081200  0.98569000  1
  C  98  1  0.29175600  0.15573000  0.98901900  1
  C  99  1  0.32266700  0.15127600  0.96755400  1
  C  100  1  0.32401700  0.12223100  0.94389500  1
  C  101  1  0.29612500  0.09768500  0.93987600  1
  C  102  1  0.26518800  0.10305600  0.96023500  1
  C  111  1  0.73386000  0.37621300  0.99602900  1
  C  112  1  0.73528000  0.40232000  0.96881400  1
  C  113  1  0.71269800  0.40068300  0.93906200  1
  C  114  1  0.68790600  0.37279400  0.93753100  1
  C  115  1  0.68449500  0.34696800  0.96451400  1
  C  116  1  0.70728400  0.34899200  0.99472400  1
  C  119  1  0.76298900  0.37556600  0.02067500  1
  C  120  1  0.79166900  0.35063400  0.01732900  1
  C  121  1  0.82256400  0.35504500  0.03882200  1
  C  122  1  0.82395900  0.38410200  0.06246400  1
  C  123  1  0.79608600  0.40867300  0.06648300  1
  C  124  1  0.76515300  0.40333900  0.04611000  1
  C  133  1  0.27239700  0.87613600  0.51043300  1
  C  134  1  0.27089600  0.90216900  0.53772000  1
  C  135  1  0.29316200  0.90025400  0.56769800  1
  C  136  1  0.31787100  0.87229800  0.56926800  1
  C  137  1  0.32148200  0.84663100  0.54215600  1
  C  138  1  0.29891300  0.84886200  0.51179900  1
  C  141  1  0.24327800  0.87553700  0.48578200  1
  C  142  1  0.21458000  0.85061600  0.48910300  1
  C  143  1  0.18368900  0.85505300  0.46760600  1
  C  144  1  0.18233900  0.88410200  0.44395600  1
  C  145  1  0.21023300  0.90865500  0.43994800  1
  C  146  1  0.24115700  0.90328600  0.46032200  1
  C  155  1  0.77245900  0.63009000  0.49607700  1
  C  156  1  0.77094400  0.60404900  0.46880000  1
  C  157  1  0.79351300  0.60568300  0.43903800  1
  C  158  1  0.81834100  0.63353800  0.43751500  1
  C  159  1  0.82188000  0.65926900  0.46457400  1
  C  160  1  0.79908300  0.65726100  0.49478000  1
  C  163  1  0.74331200  0.63075000  0.52069100  1
  C  164  1  0.71464500  0.65569300  0.51733000  1
  C  165  1  0.68372300  0.65128200  0.53878900  1
  C  166  1  0.68232800  0.62223600  0.56244800  1
  C  167  1  0.71020400  0.59767200  0.56650400  1
  C  168  1  0.74116800  0.60303600  0.54618800  1
  C  177  1  0.01033900  0.23393000  0.13018600  1
  C  178  1  0.03760700  0.23539100  0.10413700  1
  C  179  1  0.06739900  0.21286700  0.10582500  1
  C  180  1  0.06891600  0.18807100  0.13371000  1
  C  181  1  0.04186700  0.18458000  0.15945600  1
  C  182  1  0.01163700  0.20733500  0.15738800  1
  C  185  1  0.98568200  0.26303500  0.13081800  1
  C  186  1  0.98901600  0.29173200  0.15573100  1
  C  187  1  0.96755600  0.32264600  0.15127300  1
  C  188  1  0.94389800  0.32399600  0.12222700  1
  C  189  1  0.93987300  0.29609900  0.09768700  1
  C  190  1  0.96022700  0.26516000  0.10306200  1
  C  199  1  0.99601100  0.73388400  0.37620800  1
  C  200  1  0.96880000  0.73530300  0.40231700  1
  C  201  1  0.93909400  0.71265800  0.40074200  1
  C  202  1  0.93755000  0.68787500  0.37285200  1
  C  203  1  0.96449800  0.68450600  0.34697600  1
  C  204  1  0.99470300  0.70730000  0.34899200  1
  C  207  1  0.02065500  0.76301300  0.37555300  1
  C  208  1  0.01730300  0.79169600  0.35062100  1
  C  209  1  0.03879000  0.82259600  0.35503700  1
  C  210  1  0.06243600  0.82398900  0.38408900  1
  C  211  1  0.06647400  0.79610900  0.40864900  1
  C  212  1  0.04609900  0.76517700  0.40331800  1
  C  221  1  0.51038800  0.27241300  0.87606200  1
  C  222  1  0.53763600  0.27097600  0.90213700  1
  C  223  1  0.56750900  0.29338800  0.90033600  1
  C  224  1  0.56907700  0.31809700  0.87238300  1
  C  225  1  0.54203900  0.32158000  0.84661800  1
  C  226  1  0.51174300  0.29892400  0.84878300  1
  C  229  1  0.48577400  0.24326000  0.87546300  1
  C  230  1  0.48912700  0.21455400  0.85055400  1
  C  231  1  0.46768300  0.18362800  0.85502200  1
  C  232  1  0.44405600  0.18225800  0.88408900  1
  C  233  1  0.44001700  0.21015700  0.90863100  1
  C  234  1  0.46032200  0.24111700  0.90322000  1
  C  243  1  0.49608000  0.77247200  0.63009800  1
  C  244  1  0.46883200  0.77100800  0.60402300  1
  C  245  1  0.43909600  0.79361300  0.60563300  1
  C  246  1  0.43760800  0.81847100  0.63346400  1
  C  247  1  0.46461400  0.82192500  0.65926300  1
  C  248  1  0.49478500  0.79908000  0.65728500  1
  C  251  1  0.52067200  0.74330600  0.63074500  1
  C  252  1  0.51727100  0.71461600  0.65565900  1
  C  253  1  0.53867800  0.68366200  0.65120500  1
  C  254  1  0.56232100  0.68226200  0.62214500  1
  C  255  1  0.56643000  0.71016700  0.59762500  1
  C  256  1  0.54617400  0.74116300  0.60303900  1
  C  265  1  0.03850100  0.85321000  0.33290900  1
  C  266  1  0.03363500  0.88720000  0.34831000  1
  C  267  1  0.04887000  0.91791800  0.33275800  1
  C  268  1  0.06932700  0.91564400  0.30125300  1
  C  269  1  0.07079600  0.88234100  0.28390700  1
  C  270  1  0.05581700  0.85169000  0.29956800  1
  C  272  1  0.02757100  0.95282900  0.38141800  1
  C  273  1  0.01251300  0.92247200  0.39677600  1
  C  279  1  0.46789800  0.15301200  0.83286700  1
  C  280  1  0.47271300  0.11903700  0.84830000  1
  C  281  1  0.45744400  0.08836900  0.83268600  1
  C  282  1  0.43702700  0.09079500  0.80115500  1
  C  283  1  0.43571700  0.12406800  0.78375900  1
  C  284  1  0.45078100  0.15467600  0.79943100  1
  C  286  1  0.47866300  0.05336400  0.88132000  1
  C  287  1  0.49374500  0.08368100  0.89673400  1
  C  293  1  0.96776000  0.35323900  0.17344600  1
  C  294  1  0.97260700  0.38719500  0.15794900  1
  C  295  1  0.95738600  0.41792600  0.17350300  1
  C  296  1  0.93695600  0.41570000  0.20505900  1
  C  297  1  0.93560300  0.38241200  0.22243200  1
  C  298  1  0.95061100  0.35174500  0.20685300  1
  C  300  1  0.97865700  0.45279400  0.12478400  1
  C  301  1  0.99371400  0.42242700  0.10944600  1
  C  307  1  0.53844500  0.65307000  0.67339400  1
  C  308  1  0.53359300  0.61911100  0.65791600  1
  C  309  1  0.54881400  0.58840700  0.67350800  1
  C  310  1  0.56921800  0.59077600  0.70505600  1
  C  311  1  0.57058400  0.62405300  0.72244100  1
  C  312  1  0.55546900  0.65468000  0.70686700  1
  C  314  1  0.52757700  0.55346600  0.62484000  1
  C  315  1  0.51254400  0.58381200  0.60943900  1
  C  321  1  0.33294100  0.03856400  0.85315900  1
  C  322  1  0.34835000  0.03367300  0.88714200  1
  C  323  1  0.33279000  0.04886800  0.91787800  1
  C  324  1  0.30127900  0.06932000  0.91562600  1
  C  325  1  0.28393900  0.07082800  0.88232000  1
  C  326  1  0.29960300  0.05588000  0.85165500  1
  C  328  1  0.38145200  0.02754300  0.95276800  1
  C  329  1  0.39681600  0.01252200  0.92239500  1
  C  335  1  0.83291700  0.46791400  0.15297400  1
  C  336  1  0.84836600  0.47275300  0.11900900  1
  C  337  1  0.83277700  0.45748400  0.08832900  1
  C  338  1  0.80125800  0.43706200  0.09071800  1
  C  339  1  0.78385200  0.43570100  0.12399200  1
  C  340  1  0.79950000  0.45076200  0.15461500  1
  C  342  1  0.88143100  0.47869700  0.05335900  1
  C  343  1  0.89682100  0.49378800  0.08368400  1
  C  349  1  0.17349100  0.96777100  0.35318000  1
  C  350  1  0.15801800  0.97261700  0.38715000  1
  C  351  1  0.17358900  0.95738900  0.41786700  1
  C  352  1  0.20514200  0.93695800  0.41562000  1
  C  353  1  0.22248600  0.93559700  0.38231900  1
  C  354  1  0.20689200  0.95061400  0.35166300  1
  C  356  1  0.12489300  0.97865700  0.45276800  1
  C  357  1  0.10953800  0.99372200  0.42241400  1
  C  363  1  0.67336500  0.53858500  0.65310700  1
  C  364  1  0.65791100  0.53373100  0.61913500  1
  C  365  1  0.67352700  0.54895200  0.58844400  1
  C  366  1  0.70506900  0.56935800  0.59083400  1
  C  367  1  0.72242500  0.57073800  0.62412400  1
  C  368  1  0.70683300  0.55562000  0.65474100  1
  C  370  1  0.62489300  0.52769900  0.55346400  1
  C  371  1  0.60947100  0.51266100  0.58379900  1
  C  377  1  0.85317800  0.33291700  0.03853400  1
  C  378  1  0.88716600  0.34831000  0.03364100  1
  C  379  1  0.91789400  0.33275300  0.04885200  1
  C  380  1  0.91562900  0.30125300  0.06931700  1
  C  381  1  0.88232000  0.28392000  0.07082400  1
  C  382  1  0.85166300  0.29958400  0.05586200  1
  C  384  1  0.95280000  0.38139900  0.02752000  1
  C  385  1  0.92243500  0.39676300  0.01248200  1
  C  391  1  0.15305700  0.83292300  0.46784300  1
  C  392  1  0.11910600  0.84838200  0.47271800  1
  C  393  1  0.08840700  0.83281100  0.45747100  1
  C  394  1  0.09070500  0.80129500  0.43702700  1
  C  395  1  0.12399500  0.78389700  0.43562400  1
  C  396  1  0.15464900  0.79955800  0.45059800  1
  C  398  1  0.05348000  0.88148100  0.47872400  1
  C  399  1  0.08382400  0.89684500  0.49380400  1
  C  405  1  0.35325500  0.17345700  0.96774200  1
  C  406  1  0.38721900  0.15796300  0.97256400  1
  C  407  1  0.41794100  0.17351800  0.95732800  1
  C  408  1  0.41565200  0.20508000  0.93691600  1
  C  409  1  0.38238600  0.22247300  0.93558200  1
  C  410  1  0.35173700  0.20687200  0.95060600  1
  C  412  1  0.45282900  0.12481100  0.97858600  1
  C  413  1  0.42247200  0.10946600  0.99365500  1
  C  419  1  0.65312800  0.67346000  0.53854800  1
  C  420  1  0.61917700  0.65796900  0.53366700  1
  C  421  1  0.58846000  0.67352100  0.54890700  1
  C  422  1  0.59080200  0.70505300  0.56934000  1
  C  423  1  0.62406100  0.72247000  0.57073200  1
  C  424  1  0.65470600  0.70688100  0.55567100  1
  C  426  1  0.55355700  0.62485900  0.52759300  1
  C  427  1  0.58391600  0.60950000  0.51254400  1
  C  433  1  0.59705700  0.29115900  0.92354900  1
  C  434  1  0.63132100  0.28595500  0.90893300  1
  C  435  1  0.66195100  0.29989500  0.92586500  1
  C  436  1  0.65924000  0.31978700  0.95771800  1
  C  437  1  0.62525400  0.32252700  0.97352500  1
  C  438  1  0.59477000  0.30842300  0.95682900  1
  C  440  1  0.69778200  0.27898100  0.87771500  1
  C  441  1  0.66752400  0.26523200  0.86099000  1
  C  447  1  0.90951200  0.71496100  0.42388600  1
  C  448  1  0.87526100  0.72027600  0.40925100  1
  C  449  1  0.84455200  0.70636600  0.42606100  1
  C  450  1  0.84723900  0.68639200  0.45784500  1
  C  451  1  0.88113900  0.68349300  0.47377400  1
  C  452  1  0.91167300  0.69752500  0.45710700  1
  C  454  1  0.80887900  0.72750200  0.37790500  1
  C  455  1  0.83920900  0.74123200  0.36129500  1
  C  461  1  0.09693300  0.21508800  0.08260700  1
  C  462  1  0.13116900  0.22027100  0.09736600  1
  C  463  1  0.16188900  0.20639900  0.08053100  1
  C  464  1  0.15925400  0.18657000  0.04862200  1
  C  465  1  0.12537200  0.18389800  0.03264100  1
  C  466  1  0.09483300  0.19797300  0.04924400  1
  C  468  1  0.19751900  0.22728300  0.12884700  1
  C  469  1  0.16718400  0.24098500  0.14547000  1
  C  475  1  0.40948200  0.79124500  0.58252300  1
  C  476  1  0.37534600  0.78586000  0.59739900  1
  C  477  1  0.34453300  0.79966700  0.58069000  1
  C  478  1  0.34692800  0.81959000  0.54883000  1
  C  479  1  0.38078600  0.82245500  0.53276300  1
  C  480  1  0.41145000  0.80844700  0.54920400  1
  C  482  1  0.30912600  0.77854400  0.62906100  1
  C  483  1  0.33956200  0.76492000  0.64556500  1
  C  489  1  0.79106200  0.58265100  0.40938100  1
  C  490  1  0.78573500  0.59740400  0.37519400  1
  C  491  1  0.79955000  0.58064000  0.34441600  1
  C  492  1  0.81946300  0.54877900  0.34687500  1
  C  493  1  0.82232300  0.53279200  0.38076500  1
  C  494  1  0.80838300  0.54937100  0.41138700  1
  C  496  1  0.77851500  0.62898900  0.30892900  1
  C  497  1  0.76489900  0.64555700  0.33933600  1
  C  503  1  0.21515900  0.08262200  0.09696400  1
  C  504  1  0.22036900  0.09723800  0.13123700  1
  C  505  1  0.20643800  0.08035900  0.16189700  1
  C  506  1  0.18653600  0.04854000  0.15912300  1
  C  507  1  0.18375600  0.03264400  0.12519800  1
  C  508  1  0.19790200  0.04931100  0.09471400  1
  C  510  1  0.22737100  0.12853400  0.19766600  1
  C  511  1  0.24112000  0.14521500  0.16738100  1
  C  517  1  0.71493900  0.42387500  0.90952000  1
  C  518  1  0.72022300  0.40917700  0.87526900  1
  C  519  1  0.70637700  0.42596300  0.84450900  1
  C  520  1  0.68645300  0.45779400  0.84713300  1
  C  521  1  0.68359900  0.47376600  0.88099900  1
  C  522  1  0.69764700  0.45716800  0.91155700  1
  C  524  1  0.72748100  0.37771700  0.80893000  1
  C  525  1  0.74116300  0.36113600  0.83929700  1
  C  531  1  0.29093400  0.92347800  0.59724000  1
  C  532  1  0.28578300  0.90875600  0.63148000  1
  C  533  1  0.29968500  0.92567100  0.66213400  1
  C  534  1  0.31950500  0.95757200  0.65945700  1
  C  535  1  0.32210500  0.97348000  0.62550400  1
  C  536  1  0.30787100  0.95692200  0.59499800  1
  C  538  1  0.27891800  0.87740700  0.69789400  1
  C  539  1  0.26520300  0.86069500  0.66761400  1
  C  545  1  0.08253100  0.09680200  0.21497800  1
  C  546  1  0.09719500  0.13102300  0.22035900  1
  C  547  1  0.08039200  0.16177600  0.20652800  1
  C  548  1  0.04858600  0.15921800  0.18656600  1
  C  549  1  0.03270000  0.12529800  0.18355200  1
  C  550  1  0.04932800  0.09471500  0.19751500  1
  C  552  1  0.12861500  0.19736100  0.22766700  1
  C  553  1  0.14522000  0.16698700  0.24131100  1
  C  559  1  0.58270600  0.40925100  0.79097700  1
  C  560  1  0.59748400  0.37505700  0.78578300  1
  C  561  1  0.58064500  0.34435200  0.79966400  1
  C  562  1  0.54874700  0.34695200  0.81951400  1
  C  563  1  0.53271800  0.38083900  0.82210000  1
  C  564  1  0.54929600  0.41140300  0.80801700  1
  C  566  1  0.62897600  0.30872800  0.77879600  1
  C  567  1  0.64560800  0.33906800  0.76511600  1
  C  573  1  0.92350700  0.59713400  0.29114100  1
  C  574  1  0.90885100  0.63141900  0.28606600  1
  C  575  1  0.92582000  0.66202500  0.30001900  1
  C  576  1  0.95773100  0.65920200  0.31981800  1
  C  577  1  0.97357800  0.62524600  0.32239400  1
  C  578  1  0.95687900  0.59480700  0.30820500  1
  C  580  1  0.87762400  0.69790200  0.27927300  1
  C  581  1  0.86087300  0.66767200  0.26549500  1
  C  587  1  0.42379000  0.90945900  0.71493100  1
  C  588  1  0.40912900  0.87518100  0.72014600  1
  C  589  1  0.42602700  0.84450700  0.70626300  1
  C  590  1  0.45788500  0.84727600  0.68639700  1
  C  591  1  0.47379200  0.88119200  0.68368100  1
  C  592  1  0.45719500  0.91167900  0.69789900  1
  C  594  1  0.37787400  0.80873300  0.72724200  1
  C  595  1  0.36117000  0.83902400  0.74094800  1
  C  601  1  0.13019200  0.01028900  0.65827200  1
  C  602  1  0.10411300  0.03752800  0.65971300  1
  C  603  1  0.10563500  0.06719900  0.63701800  1
  C  604  1  0.13352500  0.06874800  0.61223500  1
  C  605  1  0.15935600  0.04176500  0.60882300  1
  C  606  1  0.15737000  0.01158200  0.63165200  1
  C  609  1  0.13084300  0.98565200  0.68739500  1
  C  610  1  0.15576000  0.98900300  0.71608800  1
  C  611  1  0.15129800  0.96757200  0.74702000  1
  C  612  1  0.12224200  0.94392700  0.74839400  1
  C  613  1  0.09770000  0.93988100  0.72050200  1
  C  614  1  0.10308500  0.96020100  0.68954300  1
  C  623  1  0.37617900  0.99602400  0.15825300  1
  C  624  1  0.40229400  0.96881400  0.15963500  1
  C  625  1  0.40050800  0.93895300  0.13720700  1
  C  626  1  0.37251800  0.93736700  0.11253500  1
  C  627  1  0.34671600  0.96437300  0.10910500  1
  C  628  1  0.34887000  0.99466900  0.13176700  1
  C  631  1  0.37556300  0.02067400  0.18738100  1
  C  632  1  0.35065000  0.01732700  0.21608000  1
  C  633  1  0.35505600  0.03885000  0.24695700  1
  C  634  1  0.38409900  0.06250900  0.24832300  1
  C  635  1  0.40867600  0.06650400  0.22044900  1
  C  636  1  0.40332500  0.04612100  0.18952500  1
  C  645  1  0.87606500  0.51042500  0.69679300  1
  C  646  1  0.90212900  0.53768900  0.69536600  1
  C  647  1  0.90023300  0.56762300  0.71769000  1
  C  648  1  0.87226100  0.56917800  0.74238300  1
  C  649  1  0.84655200  0.54209500  0.74590600  1
  C  650  1  0.84876400  0.51178000  0.72327900  1
  C  653  1  0.87548900  0.48580600  0.66764600  1
  C  654  1  0.85058600  0.48915100  0.63893500  1
  C  655  1  0.85505600  0.46769700  0.60801700  1
  C  656  1  0.88412900  0.44407200  0.60665800  1
  C  657  1  0.90866000  0.44003800  0.63456600  1
  C  658  1  0.90324900  0.46035900  0.66551600  1
  C  667  1  0.63003700  0.49604500  0.19684300  1
  C  668  1  0.60401700  0.46874700  0.19532900  1
  C  669  1  0.60580300  0.43888100  0.21774900  1
  C  670  1  0.63369500  0.43735900  0.24253500  1
  C  671  1  0.65938600  0.46445800  0.24611000  1
  C  672  1  0.65725000  0.49473500  0.22342500  1
  C  675  1  0.63066600  0.52067200  0.16770700  1
  C  676  1  0.65560600  0.51733500  0.13903200  1
  C  677  1  0.65116500  0.53878200  0.10810500  1
  C  678  1  0.62209000  0.56240300  0.10671300  1
  C  679  1  0.59753400  0.56644600  0.13459700  1
  C  680  1  0.60292700  0.54614300  0.16556600  1
  C  689  1  0.23395900  0.13017700  0.43477000  1
  C  690  1  0.23542300  0.10412300  0.46203300  1
  C  691  1  0.21287500  0.10578100  0.49180900  1
  C  692  1  0.18813300  0.13370500  0.49337000  1
  C  693  1  0.18466900  0.15949600  0.46635300  1
  C  694  1  0.20737100  0.15738700  0.43608400  1
  C  697  1  0.26306200  0.13081200  0.41010900  1
  C  698  1  0.29175600  0.15573000  0.41343800  1
  C  699  1  0.32266700  0.15127600  0.39197300  1
  C  700  1  0.32401700  0.12223100  0.36831400  1
  C  701  1  0.29612500  0.09768500  0.36429500  1
  C  702  1  0.26518800  0.10305600  0.38465400  1
  C  711  1  0.73386000  0.37621300  0.42044800  1
  C  712  1  0.73528000  0.40232000  0.39323300  1
  C  713  1  0.71269800  0.40068300  0.36348100  1
  C  714  1  0.68790600  0.37279400  0.36195000  1
  C  715  1  0.68449500  0.34696800  0.38893300  1
  C  716  1  0.70728400  0.34899200  0.41914300  1
  C  719  1  0.76298900  0.37556600  0.44509400  1
  C  720  1  0.79166900  0.35063400  0.44174800  1
  C  721  1  0.82256400  0.35504500  0.46324100  1
  C  722  1  0.82395900  0.38410200  0.48688300  1
  C  723  1  0.79608600  0.40867300  0.49090200  1
  C  724  1  0.76515300  0.40333900  0.47052900  1
  C  733  1  0.27239700  0.87613600  0.93485200  1
  C  734  1  0.27089600  0.90216900  0.96213900  1
  C  735  1  0.29316200  0.90025400  0.99211700  1
  C  736  1  0.31787100  0.87229800  0.99368700  1
  C  737  1  0.32148200  0.84663100  0.96657500  1
  C  738  1  0.29891300  0.84886200  0.93621800  1
  C  741  1  0.24327800  0.87553700  0.91020100  1
  C  742  1  0.21458000  0.85061600  0.91352200  1
  C  743  1  0.18368900  0.85505300  0.89202500  1
  C  744  1  0.18233900  0.88410200  0.86837500  1
  C  745  1  0.21023300  0.90865500  0.86436700  1
  C  746  1  0.24115700  0.90328600  0.88474100  1
  C  755  1  0.77245900  0.63009000  0.92049600  1
  C  756  1  0.77094400  0.60404900  0.89321900  1
  C  757  1  0.79351300  0.60568300  0.86345700  1
  C  758  1  0.81834100  0.63353800  0.86193400  1
  C  759  1  0.82188000  0.65926900  0.88899300  1
  C  760  1  0.79908300  0.65726100  0.91919900  1
  C  763  1  0.74331200  0.63075000  0.94511000  1
  C  764  1  0.71464500  0.65569300  0.94174900  1
  C  765  1  0.68372300  0.65128200  0.96320800  1
  C  766  1  0.68232800  0.62223600  0.98686700  1
  C  767  1  0.71020400  0.59767200  0.99092300  1
  C  768  1  0.74116800  0.60303600  0.97060700  1
  C  777  1  0.01033900  0.23393000  0.55460500  1
  C  778  1  0.03760700  0.23539100  0.52855600  1
  C  779  1  0.06739900  0.21286700  0.53024400  1
  C  780  1  0.06891600  0.18807100  0.55812900  1
  C  781  1  0.04186700  0.18458000  0.58387500  1
  C  782  1  0.01163700  0.20733500  0.58180700  1
  C  785  1  0.98568200  0.26303500  0.55523700  1
  C  786  1  0.98901600  0.29173200  0.58015000  1
  C  787  1  0.96755600  0.32264600  0.57569200  1
  C  788  1  0.94389800  0.32399600  0.54664600  1
  C  789  1  0.93987300  0.29609900  0.52210600  1
  C  790  1  0.96022700  0.26516000  0.52748100  1
  C  799  1  0.99601100  0.73388400  0.80062700  1
  C  800  1  0.96880000  0.73530300  0.82673600  1
  C  801  1  0.93909400  0.71265800  0.82516100  1
  C  802  1  0.93755000  0.68787500  0.79727100  1
  C  803  1  0.96449800  0.68450600  0.77139500  1
  C  804  1  0.99470300  0.70730000  0.77341100  1
  C  807  1  0.02065500  0.76301300  0.79997200  1
  C  808  1  0.01730300  0.79169600  0.77504000  1
  C  809  1  0.03879000  0.82259600  0.77945600  1
  C  810  1  0.06243600  0.82398900  0.80850800  1
  C  811  1  0.06647400  0.79610900  0.83306800  1
  C  812  1  0.04609900  0.76517700  0.82773700  1
  C  821  1  0.51038800  0.27241300  0.30048100  1
  C  822  1  0.53763600  0.27097600  0.32655600  1
  C  823  1  0.56750900  0.29338800  0.32475500  1
  C  824  1  0.56907700  0.31809700  0.29680200  1
  C  825  1  0.54203900  0.32158000  0.27103700  1
  C  826  1  0.51174300  0.29892400  0.27320200  1
  C  829  1  0.48577400  0.24326000  0.29988200  1
  C  830  1  0.48912700  0.21455400  0.27497300  1
  C  831  1  0.46768300  0.18362800  0.27944100  1
  C  832  1  0.44405600  0.18225800  0.30850800  1
  C  833  1  0.44001700  0.21015700  0.33305000  1
  C  834  1  0.46032200  0.24111700  0.32763900  1
  C  843  1  0.49608000  0.77247200  0.05451690  1
  C  844  1  0.46883200  0.77100800  0.02844190  1
  C  845  1  0.43909600  0.79361300  0.03005190  1
  C  846  1  0.43760800  0.81847100  0.05788290  1
  C  847  1  0.46461400  0.82192500  0.08368190  1
  C  848  1  0.49478500  0.79908000  0.08170390  1
  C  851  1  0.52067200  0.74330600  0.05516390  1
  C  852  1  0.51727100  0.71461600  0.08007790  1
  C  853  1  0.53867800  0.68366200  0.07562390  1
  C  854  1  0.56232100  0.68226200  0.04656390  1
  C  855  1  0.56643000  0.71016700  0.02204390  1
  C  856  1  0.54617400  0.74116300  0.02745790  1
  C  865  1  0.03850100  0.85321000  0.75732800  1
  C  866  1  0.03363500  0.88720000  0.77272900  1
  C  867  1  0.04887000  0.91791800  0.75717700  1
  C  868  1  0.06932700  0.91564400  0.72567200  1
  C  869  1  0.07079600  0.88234100  0.70832600  1
  C  870  1  0.05581700  0.85169000  0.72398700  1
  C  872  1  0.02757100  0.95282900  0.80583700  1
  C  873  1  0.01251300  0.92247200  0.82119500  1
  C  879  1  0.46789800  0.15301200  0.25728600  1
  C  880  1  0.47271300  0.11903700  0.27271900  1
  C  881  1  0.45744400  0.08836900  0.25710500  1
  C  882  1  0.43702700  0.09079500  0.22557400  1
  C  883  1  0.43571700  0.12406800  0.20817800  1
  C  884  1  0.45078100  0.15467600  0.22385000  1
  C  886  1  0.47866300  0.05336400  0.30573900  1
  C  887  1  0.49374500  0.08368100  0.32115300  1
  C  893  1  0.96776000  0.35323900  0.59786500  1
  C  894  1  0.97260700  0.38719500  0.58236800  1
  C  895  1  0.95738600  0.41792600  0.59792200  1
  C  896  1  0.93695600  0.41570000  0.62947800  1
  C  897  1  0.93560300  0.38241200  0.64685100  1
  C  898  1  0.95061100  0.35174500  0.63127200  1
  C  900  1  0.97865700  0.45279400  0.54920300  1
  C  901  1  0.99371400  0.42242700  0.53386500  1
  C  907  1  0.53844500  0.65307000  0.09781290  1
  C  908  1  0.53359300  0.61911100  0.08233490  1
  C  909  1  0.54881400  0.58840700  0.09792690  1
  C  910  1  0.56921800  0.59077600  0.12947500  1
  C  911  1  0.57058400  0.62405300  0.14686000  1
  C  912  1  0.55546900  0.65468000  0.13128600  1
  C  914  1  0.52757700  0.55346600  0.04925890  1
  C  915  1  0.51254400  0.58381200  0.03385790  1
  C  921  1  0.33294100  0.03856400  0.27757800  1
  C  922  1  0.34835000  0.03367300  0.31156100  1
  C  923  1  0.33279000  0.04886800  0.34229700  1
  C  924  1  0.30127900  0.06932000  0.34004500  1
  C  925  1  0.28393900  0.07082800  0.30673900  1
  C  926  1  0.29960300  0.05588000  0.27607400  1
  C  928  1  0.38145200  0.02754300  0.37718700  1
  C  929  1  0.39681600  0.01252200  0.34681400  1
  C  935  1  0.83291700  0.46791400  0.57739300  1
  C  936  1  0.84836600  0.47275300  0.54342800  1
  C  937  1  0.83277700  0.45748400  0.51274800  1
  C  938  1  0.80125800  0.43706200  0.51513700  1
  C  939  1  0.78385200  0.43570100  0.54841100  1
  C  940  1  0.79950000  0.45076200  0.57903400  1
  C  942  1  0.88143100  0.47869700  0.47777800  1
  C  943  1  0.89682100  0.49378800  0.50810300  1
  C  949  1  0.17349100  0.96777100  0.77759900  1
  C  950  1  0.15801800  0.97261700  0.81156900  1
  C  951  1  0.17358900  0.95738900  0.84228600  1
  C  952  1  0.20514200  0.93695800  0.84003900  1
  C  953  1  0.22248600  0.93559700  0.80673800  1
  C  954  1  0.20689200  0.95061400  0.77608200  1
  C  956  1  0.12489300  0.97865700  0.87718700  1
  C  957  1  0.10953800  0.99372200  0.84683300  1
  C  963  1  0.67336500  0.53858500  0.07752590  1
  C  964  1  0.65791100  0.53373100  0.04355390  1
  C  965  1  0.67352700  0.54895200  0.01286290  1
  C  966  1  0.70506900  0.56935800  0.01525290  1
  C  967  1  0.72242500  0.57073800  0.04854290  1
  C  968  1  0.70683300  0.55562000  0.07915990  1
  C  970  1  0.62489300  0.52769900  0.97788300  1
  C  971  1  0.60947100  0.51266100  0.00821794  1
  C  977  1  0.85317800  0.33291700  0.46295300  1
  C  978  1  0.88716600  0.34831000  0.45806000  1
  C  979  1  0.91789400  0.33275300  0.47327100  1
  C  980  1  0.91562900  0.30125300  0.49373600  1
  C  981  1  0.88232000  0.28392000  0.49524300  1
  C  982  1  0.85166300  0.29958400  0.48028100  1
  C  984  1  0.95280000  0.38139900  0.45193900  1
  C  985  1  0.92243500  0.39676300  0.43690100  1
  C  991  1  0.15305700  0.83292300  0.89226200  1
  C  992  1  0.11910600  0.84838200  0.89713700  1
  C  993  1  0.08840700  0.83281100  0.88189000  1
  C  994  1  0.09070500  0.80129500  0.86144600  1
  C  995  1  0.12399500  0.78389700  0.86004300  1
  C  996  1  0.15464900  0.79955800  0.87501700  1
  C  998  1  0.05348000  0.88148100  0.90314300  1
  C  999  1  0.08382400  0.89684500  0.91822300  1
  C  1005  1  0.35325500  0.17345700  0.39216100  1
  C  1006  1  0.38721900  0.15796300  0.39698300  1
  C  1007  1  0.41794100  0.17351800  0.38174700  1
  C  1008  1  0.41565200  0.20508000  0.36133500  1
  C  1009  1  0.38238600  0.22247300  0.36000100  1
  C  1010  1  0.35173700  0.20687200  0.37502500  1
  C  1012  1  0.45282900  0.12481100  0.40300500  1
  C  1013  1  0.42247200  0.10946600  0.41807400  1
  C  1019  1  0.65312800  0.67346000  0.96296700  1
  C  1020  1  0.61917700  0.65796900  0.95808600  1
  C  1021  1  0.58846000  0.67352100  0.97332600  1
  C  1022  1  0.59080200  0.70505300  0.99375900  1
  C  1023  1  0.62406100  0.72247000  0.99515100  1
  C  1024  1  0.65470600  0.70688100  0.98009000  1
  C  1026  1  0.55355700  0.62485900  0.95201200  1
  C  1027  1  0.58391600  0.60950000  0.93696300  1
  C  1033  1  0.59705700  0.29115900  0.34796800  1
  C  1034  1  0.63132100  0.28595500  0.33333333  1
  C  1035  1  0.66195100  0.29989500  0.35028400  1
  C  1036  1  0.65924000  0.31978700  0.38213700  1
  C  1037  1  0.62525400  0.32252700  0.39794400  1
  C  1038  1  0.59477000  0.30842300  0.38124800  1
  C  1040  1  0.69778200  0.27898100  0.30213400  1
  C  1041  1  0.66752400  0.26523200  0.28540900  1
  C  1047  1  0.90951200  0.71496100  0.84830500  1
  C  1048  1  0.87526100  0.72027600  0.83367000  1
  C  1049  1  0.84455200  0.70636600  0.85048000  1
  C  1050  1  0.84723900  0.68639200  0.88226400  1
  C  1051  1  0.88113900  0.68349300  0.89819300  1
  C  1052  1  0.91167300  0.69752500  0.88152600  1
  C  1054  1  0.80887900  0.72750200  0.80232400  1
  C  1055  1  0.83920900  0.74123200  0.78571400  1
  C  1061  1  0.09693300  0.21508800  0.50702600  1
  C  1062  1  0.13116900  0.22027100  0.52178500  1
  C  1063  1  0.16188900  0.20639900  0.50495000  1
  C  1064  1  0.15925400  0.18657000  0.47304100  1
  C  1065  1  0.12537200  0.18389800  0.45706000  1
  C  1066  1  0.09483300  0.19797300  0.47366300  1
  C  1068  1  0.19751900  0.22728300  0.55326600  1
  C  1069  1  0.16718400  0.24098500  0.56988900  1
  C  1075  1  0.40948200  0.79124500  0.00694194  1
  C  1076  1  0.37534600  0.78586000  0.02181790  1
  C  1077  1  0.34453300  0.79966700  0.00510894  1
  C  1078  1  0.34692800  0.81959000  0.97324900  1
  C  1079  1  0.38078600  0.82245500  0.95718200  1
  C  1080  1  0.41145000  0.80844700  0.97362300  1
  C  1082  1  0.30912600  0.77854400  0.05347990  1
  C  1083  1  0.33956200  0.76492000  0.06998390  1
  C  1089  1  0.79106200  0.58265100  0.83380000  1
  C  1090  1  0.78573500  0.59740400  0.79961300  1
  C  1091  1  0.79955000  0.58064000  0.76883500  1
  C  1092  1  0.81946300  0.54877900  0.77129400  1
  C  1093  1  0.82232300  0.53279200  0.80518400  1
  C  1094  1  0.80838300  0.54937100  0.83580600  1
  C  1096  1  0.77851500  0.62898900  0.73334800  1
  C  1097  1  0.76489900  0.64555700  0.76375500  1
  C  1103  1  0.21515900  0.08262200  0.52138300  1
  C  1104  1  0.22036900  0.09723800  0.55565600  1
  C  1105  1  0.20643800  0.08035900  0.58631600  1
  C  1106  1  0.18653600  0.04854000  0.58354200  1
  C  1107  1  0.18375600  0.03264400  0.54961700  1
  C  1108  1  0.19790200  0.04931100  0.51913300  1
  C  1110  1  0.22737100  0.12853400  0.62208500  1
  C  1111  1  0.24112000  0.14521500  0.59180000  1
  C  1117  1  0.71493900  0.42387500  0.33393900  1
  C  1118  1  0.72022300  0.40917700  0.29968800  1
  C  1119  1  0.70637700  0.42596300  0.26892800  1
  C  1120  1  0.68645300  0.45779400  0.27155200  1
  C  1121  1  0.68359900  0.47376600  0.30541800  1
  C  1122  1  0.69764700  0.45716800  0.33597600  1
  C  1124  1  0.72748100  0.37771700  0.23334900  1
  C  1125  1  0.74116300  0.36113600  0.26371600  1
  C  1131  1  0.29093400  0.92347800  0.02165890  1
  C  1132  1  0.28578300  0.90875600  0.05589890  1
  C  1133  1  0.29968500  0.92567100  0.08655290  1
  C  1134  1  0.31950500  0.95757200  0.08387590  1
  C  1135  1  0.32210500  0.97348000  0.04992290  1
  C  1136  1  0.30787100  0.95692200  0.01941690  1
  C  1138  1  0.27891800  0.87740700  0.12231300  1
  C  1139  1  0.26520300  0.86069500  0.09203290  1
  C  1145  1  0.08253100  0.09680200  0.63939700  1
  C  1146  1  0.09719500  0.13102300  0.64477800  1
  C  1147  1  0.08039200  0.16177600  0.63094700  1
  C  1148  1  0.04858600  0.15921800  0.61098500  1
  C  1149  1  0.03270000  0.12529800  0.60797100  1
  C  1150  1  0.04932800  0.09471500  0.62193400  1
  C  1152  1  0.12861500  0.19736100  0.65208600  1
  C  1153  1  0.14522000  0.16698700  0.66573000  1
  C  1159  1  0.58270600  0.40925100  0.21539600  1
  C  1160  1  0.59748400  0.37505700  0.21020200  1
  C  1161  1  0.58064500  0.34435200  0.22408300  1
  C  1162  1  0.54874700  0.34695200  0.24393300  1
  C  1163  1  0.53271800  0.38083900  0.24651900  1
  C  1164  1  0.54929600  0.41140300  0.23243600  1
  C  1166  1  0.62897600  0.30872800  0.20321500  1
  C  1167  1  0.64560800  0.33906800  0.18953500  1
  C  1173  1  0.92350700  0.59713400  0.71556000  1
  C  1174  1  0.90885100  0.63141900  0.71048500  1
  C  1175  1  0.92582000  0.66202500  0.72443800  1
  C  1176  1  0.95773100  0.65920200  0.74423700  1
  C  1177  1  0.97357800  0.62524600  0.74681300  1
  C  1178  1  0.95687900  0.59480700  0.73262400  1
  C  1180  1  0.87762400  0.69790200  0.70369200  1
  C  1181  1  0.86087300  0.66767200  0.68991400  1
  C  1187  1  0.42379000  0.90945900  0.13935000  1
  C  1188  1  0.40912900  0.87518100  0.14456500  1
  C  1189  1  0.42602700  0.84450700  0.13068200  1
  C  1190  1  0.45788500  0.84727600  0.11081600  1
  C  1191  1  0.47379200  0.88119200  0.10810000  1
  C  1192  1  0.45719500  0.91167900  0.12231800  1
  C  1194  1  0.37787400  0.80873300  0.15166100  1
  C  1195  1  0.36117000  0.83902400  0.16536700  1
  N  17  1  0.18218300  0.98537700  0.20489400  1
  N  18  1  0.18202500  0.01393900  0.29114600  1
  N  39  1  0.32407300  0.02089000  0.70502900  1
  N  40  1  0.32442600  0.99234500  0.79119400  1
  N  61  1  0.82404200  0.48549600  0.30123900  1
  N  62  1  0.82432000  0.51408800  0.21500000  1
  N  83  1  0.68196500  0.52102500  0.80142300  1
  N  84  1  0.68187200  0.49239800  0.71513800  1
  N  105  1  0.20497500  0.18213500  0.98540600  1
  N  106  1  0.29126300  0.18198900  0.01396100  1
  N  127  1  0.70496000  0.32417400  0.02092400  1
  N  128  1  0.79115700  0.32438900  0.99237100  1
  N  149  1  0.30135600  0.82417400  0.48548800  1
  N  150  1  0.21505400  0.82436000  0.51405100  1
  N  171  1  0.80147300  0.68203100  0.52102000  1
  N  172  1  0.71518100  0.68193800  0.49237700  1
  N  193  1  0.98538400  0.20495000  0.18214600  1
  N  194  1  0.01395900  0.29123600  0.18199100  1
  N  215  1  0.02090300  0.70497900  0.32417100  1
  N  216  1  0.99234200  0.79118100  0.32437800  1
  N  237  1  0.48548200  0.30129000  0.82403400  1
  N  238  1  0.51407000  0.21505300  0.82429400  1
  N  259  1  0.52099000  0.80140900  0.68209700  1
  N  260  1  0.49231800  0.71515900  0.68190400  1
  N  271  1  0.04529300  0.94933500  0.35033900  1
  N  274  1  0.01635500  0.89098600  0.37986600  1
  N  285  1  0.46096700  0.05692200  0.85023100  1
  N  288  1  0.48996000  0.11519700  0.87986300  1
  N  299  1  0.96096700  0.44932500  0.15588400  1
  N  302  1  0.98987300  0.39095600  0.12638200  1
  N  313  1  0.54525100  0.55697600  0.65594500  1
  N  316  1  0.51635600  0.61531000  0.62633700  1
  N  327  1  0.35036900  0.04526100  0.94929300  1
  N  330  1  0.37990800  0.01639600  0.89091100  1
  N  341  1  0.85034200  0.46099900  0.05689500  1
  N  344  1  0.87993200  0.49000200  0.11519100  1
  N  355  1  0.15598900  0.96096700  0.44927700  1
  N  358  1  0.12645500  0.98988600  0.39093200  1
  N  369  1  0.65599000  0.54538100  0.55699700  1
  N  372  1  0.62634200  0.51648400  0.61531000  1
  N  383  1  0.94931400  0.35032400  0.04524900  1
  N  386  1  0.89094600  0.37986000  0.01635200  1
  N  397  1  0.05698700  0.85039500  0.46101200  1
  N  400  1  0.11531800  0.87994300  0.48998700  1
  N  411  1  0.44934800  0.15591000  0.96089800  1
  N  414  1  0.39099600  0.12639700  0.98982800  1
  N  425  1  0.55704200  0.65594200  0.54531000  1
  N  428  1  0.61540200  0.62641300  0.51638500  1
  N  439  1  0.69379500  0.29594500  0.90915600  1
  N  442  1  0.63562600  0.26946400  0.87702500  1
  N  453  1  0.81274900  0.71043000  0.40930400  1
  N  456  1  0.87106500  0.73687100  0.37738300  1
  N  467  1  0.19366800  0.21037100  0.09736300  1
  N  470  1  0.13535500  0.23673000  0.12931100  1
  N  481  1  0.31282100  0.79554200  0.59760600  1
  N  484  1  0.37133000  0.76932100  0.62932100  1
  N  495  1  0.79547800  0.59751800  0.31267800  1
  N  498  1  0.76925200  0.62934700  0.37112800  1
  N  509  1  0.21038700  0.09709700  0.19372500  1
  N  512  1  0.23686800  0.12914600  0.13550300  1
  N  523  1  0.71046400  0.40914800  0.81273600  1
  N  526  1  0.73678400  0.37728200  0.87111800  1
  N  537  1  0.29579100  0.90890400  0.69395200  1
  N  540  1  0.26937900  0.87679400  0.63574300  1
  N  551  1  0.09718800  0.19355300  0.21063700  1
  N  554  1  0.12909200  0.13516000  0.23691300  1
  N  565  1  0.59748900  0.31257700  0.79570600  1
  N  568  1  0.62944300  0.37089700  0.76935300  1
  N  579  1  0.90910600  0.69388000  0.29615400  1
  N  582  1  0.87691100  0.63576700  0.26964100  1
  N  593  1  0.40931500  0.81267200  0.71026800  1
  N  596  1  0.37722400  0.87090300  0.73665900  1
  N  617  1  0.18218300  0.98537700  0.62931300  1
  N  618  1  0.18202500  0.01393900  0.71556500  1
  N  639  1  0.32407300  0.02089000  0.12944800  1
  N  640  1  0.32442600  0.99234500  0.21561300  1
  N  661  1  0.82404200  0.48549600  0.72565800  1
  N  662  1  0.82432000  0.51408800  0.63941900  1
  N  683  1  0.68196500  0.52102500  0.22584200  1
  N  684  1  0.68187200  0.49239800  0.13955700  1
  N  705  1  0.20497500  0.18213500  0.40982500  1
  N  706  1  0.29126300  0.18198900  0.43838000  1
  N  727  1  0.70496000  0.32417400  0.44534300  1
  N  728  1  0.79115700  0.32438900  0.41679000  1
  N  749  1  0.30135600  0.82417400  0.90990700  1
  N  750  1  0.21505400  0.82436000  0.93847000  1
  N  771  1  0.80147300  0.68203100  0.94543900  1
  N  772  1  0.71518100  0.68193800  0.91679600  1
  N  793  1  0.98538400  0.20495000  0.60656500  1
  N  794  1  0.01395900  0.29123600  0.60641000  1
  N  815  1  0.02090300  0.70497900  0.74859000  1
  N  816  1  0.99234200  0.79118100  0.74879700  1
  N  837  1  0.48548200  0.30129000  0.24845300  1
  N  838  1  0.51407000  0.21505300  0.24871300  1
  N  859  1  0.52099000  0.80140900  0.10651600  1
  N  860  1  0.49231800  0.71515900  0.10632300  1
  N  871  1  0.04529300  0.94933500  0.77475800  1
  N  874  1  0.01635500  0.89098600  0.80428500  1
  N  885  1  0.46096700  0.05692200  0.27465000  1
  N  888  1  0.48996000  0.11519700  0.30428200  1
  N  899  1  0.96096700  0.44932500  0.58030300  1
  N  902  1  0.98987300  0.39095600  0.55080100  1
  N  913  1  0.54525100  0.55697600  0.08036390  1
  N  916  1  0.51635600  0.61531000  0.05075590  1
  N  927  1  0.35036900  0.04526100  0.37371200  1
  N  930  1  0.37990800  0.01639600  0.31533000  1
  N  941  1  0.85034200  0.46099900  0.48131400  1
  N  944  1  0.87993200  0.49000200  0.53961000  1
  N  955  1  0.15598900  0.96096700  0.87369600  1
  N  958  1  0.12645500  0.98988600  0.81535100  1
  N  969  1  0.65599000  0.54538100  0.98141600  1
  N  972  1  0.62634200  0.51648400  0.03972890  1
  N  983  1  0.94931400  0.35032400  0.46966800  1
  N  986  1  0.89094600  0.37986000  0.44077100  1
  N  997  1  0.05698700  0.85039500  0.88543100  1
  N  1000  1  0.11531800  0.87994300  0.91440600  1
  N  1011  1  0.44934800  0.15591000  0.38531700  1
  N  1014  1  0.39099600  0.12639700  0.41424700  1
  N  1025  1  0.55704200  0.65594200  0.96972900  1
  N  1028  1  0.61540200  0.62641300  0.94080400  1
  N  1039  1  0.69379500  0.29594500  0.33357500  1
  N  1042  1  0.63562600  0.26946400  0.30144400  1
  N  1053  1  0.81274900  0.71043000  0.83372300  1
  N  1056  1  0.87106500  0.73687100  0.80180200  1
  N  1067  1  0.19366800  0.21037100  0.52178200  1
  N  1070  1  0.13535500  0.23673000  0.55373000  1
  N  1081  1  0.31282100  0.79554200  0.02202490  1
  N  1084  1  0.37133000  0.76932100  0.05373990  1
  N  1095  1  0.79547800  0.59751800  0.73709700  1
  N  1098  1  0.76925200  0.62934700  0.79554700  1
  N  1109  1  0.21038700  0.09709700  0.61814400  1
  N  1112  1  0.23686800  0.12914600  0.55992200  1
  N  1123  1  0.71046400  0.40914800  0.23715500  1
  N  1126  1  0.73678400  0.37728200  0.29553700  1
  N  1137  1  0.29579100  0.90890400  0.11837100  1
  N  1140  1  0.26937900  0.87679400  0.06016190  1
  N  1151  1  0.09718800  0.19355300  0.63505600  1
  N  1154  1  0.12909200  0.13516000  0.66133200  1
  N  1165  1  0.59748900  0.31257700  0.22012500  1
  N  1168  1  0.62944300  0.37089700  0.19377200  1
  N  1179  1  0.90910600  0.69388000  0.72057300  1
  N  1182  1  0.87691100  0.63576700  0.69406000  1
  N  1193  1  0.40931500  0.81267200  0.13468700  1
  N  1196  1  0.37722400  0.87090300  0.16107800  1
