# generated using pymatgen
data_SiH24C36(N2O)2
_symmetry_space_group_name_H-M   'P 1'
_cell_length_a   47.19870000
_cell_length_b   64.98640000
_cell_length_c   64.98640000
_cell_angle_alpha   90.00000000
_cell_angle_beta   90.00000000
_cell_angle_gamma   90.00000000
_symmetry_Int_Tables_number   1
_chemical_formula_structural   SiH24C36(N2O)2
_chemical_formula_sum   'Si32 H768 C1152 N128 O64'
_cell_volume   199331.06892827
_cell_formula_units_Z   32
loop_
 _symmetry_equiv_pos_site_id
 _symmetry_equiv_pos_as_xyz
  1  'x, y, z'
loop_
 _atom_site_type_symbol
 _atom_site_label
 _atom_site_symmetry_multiplicity
 _atom_site_fract_x
 _atom_site_fract_y
 _atom_site_fract_z
 _atom_site_occupancy
  Si  7  1  0.13341000  0.10732800  0.27801400  1
  Si  48  1  0.13335500  0.88960500  0.74387400  1
  Si  89  1  0.13337500  0.73136400  0.11980300  1
  Si  130  1  0.13345100  0.26552900  0.90204600  1
  Si  171  1  0.83047800  0.88965800  0.27793500  1
  Si  212  1  0.83045500  0.10737100  0.74383100  1
  Si  253  1  0.83047800  0.26554200  0.11976400  1
  Si  294  1  0.83047800  0.73148100  0.90209300  1
  Si  335  1  0.82622400  0.88760100  0.74404600  1
  Si  376  1  0.82624500  0.10936400  0.27765800  1
  Si  417  1  0.82621600  0.26530600  0.90006700  1
  Si  458  1  0.82622600  0.73167800  0.12173700  1
  Si  499  1  0.13759300  0.10931200  0.74407700  1
  Si  540  1  0.13763000  0.88763300  0.27770900  1
  Si  581  1  0.13763700  0.73166500  0.90003900  1
  Si  622  1  0.13761300  0.26529100  0.12177300  1
  Si  663  1  0.63843700  0.60841800  0.77904400  1
  Si  704  1  0.63836900  0.38857200  0.24283400  1
  Si  745  1  0.63832900  0.23048400  0.62080700  1
  Si  786  1  0.63843700  0.76658600  0.40099900  1
  Si  827  1  0.32548100  0.38863800  0.77895800  1
  Si  868  1  0.32551700  0.60838900  0.24291700  1
  Si  909  1  0.32547300  0.76659100  0.62080700  1
  Si  950  1  0.32548600  0.23043400  0.40102700  1
  Si  991  1  0.33117700  0.38648700  0.24421600  1
  Si  1032  1  0.33119800  0.61053100  0.77753000  1
  Si  1073  1  0.33117900  0.76518000  0.39890800  1
  Si  1114  1  0.33110400  0.23180200  0.62289800  1
  Si  1155  1  0.63275300  0.61048000  0.24424200  1
  Si  1196  1  0.63269800  0.38651000  0.77758400  1
  Si  1237  1  0.63270800  0.23180400  0.39889100  1
  Si  1278  1  0.63269800  0.76511400  0.62290600  1
  H  26  1  0.13925500  0.03668000  0.29638700  1
  H  27  1  0.13274400  0.07222400  0.30329000  1
  H  28  1  0.15429600  0.04992100  0.23373400  1
  H  29  1  0.14721100  0.08547900  0.24026600  1
  H  30  1  0.08570200  0.09680300  0.25439300  1
  H  31  1  0.03652700  0.09597800  0.26165200  1
  H  32  1  0.05260800  0.11346300  0.32310900  1
  H  33  1  0.10213700  0.11423200  0.31611100  1
  H  34  1  0.13229200  0.14581400  0.29803600  1
  H  35  1  0.16352000  0.16171700  0.32191200  1
  H  36  1  0.21412000  0.10819300  0.32306900  1
  H  37  1  0.18365100  0.09228900  0.29884600  1
  H  38  1  0.18252500  0.11450400  0.25374200  1
  H  39  1  0.09947400  0.13863800  0.25846500  1
  H  40  1  0.10906100  0.16147400  0.23151000  1
  H  41  1  0.19194800  0.13739300  0.22621800  1
  H  67  1  0.13915900  0.96027500  0.72555600  1
  H  68  1  0.13265400  0.92473300  0.71862900  1
  H  69  1  0.15417200  0.94699200  0.78820300  1
  H  70  1  0.14711300  0.91143700  0.78164500  1
  H  71  1  0.08559200  0.90009600  0.76745400  1
  H  72  1  0.03643000  0.90091500  0.76014500  1
  H  73  1  0.05263600  0.88342300  0.69870800  1
  H  74  1  0.10214800  0.88266900  0.70575400  1
  H  75  1  0.13234500  0.85112700  0.72383000  1
  H  76  1  0.16360700  0.83528100  0.69994200  1
  H  77  1  0.21409700  0.88886000  0.69883800  1
  H  78  1  0.18358100  0.90471200  0.72306200  1
  H  79  1  0.18250000  0.88243400  0.76810200  1
  H  80  1  0.09943600  0.85830600  0.76347400  1
  H  81  1  0.10906800  0.83548700  0.79044700  1
  H  82  1  0.19197200  0.85955200  0.79562900  1
  H  108  1  0.13928000  0.71288100  0.04918600  1
  H  109  1  0.13276500  0.70603200  0.08473600  1
  H  110  1  0.15415300  0.77557800  0.06232600  1
  H  111  1  0.14709200  0.76909300  0.09789100  1
  H  112  1  0.08564100  0.75495600  0.10927500  1
  H  113  1  0.03647500  0.74767000  0.10845100  1
  H  114  1  0.05261800  0.68622400  0.12594400  1
  H  115  1  0.10214100  0.69325100  0.12671600  1
  H  116  1  0.13227000  0.71136100  0.15830100  1
  H  117  1  0.16350200  0.68749600  0.17421500  1
  H  118  1  0.21412000  0.68633900  0.12070000  1
  H  119  1  0.18364600  0.71055000  0.10478700  1
  H  120  1  0.18246600  0.75567800  0.12691700  1
  H  121  1  0.09946300  0.75091600  0.15112300  1
  H  122  1  0.10905500  0.77789000  0.17393800  1
  H  123  1  0.19189500  0.78321900  0.14978500  1
  H  149  1  0.13941100  0.28401600  0.97265700  1
  H  150  1  0.13285400  0.29086100  0.93711000  1
  H  151  1  0.15435300  0.22133100  0.95951100  1
  H  152  1  0.14724700  0.22781100  0.92395000  1
  H  153  1  0.08578100  0.24189200  0.91262300  1
  H  154  1  0.03660500  0.24912700  0.91349400  1
  H  155  1  0.05259700  0.31057900  0.89594600  1
  H  156  1  0.10212900  0.30360500  0.89513500  1
  H  157  1  0.13225800  0.28553800  0.86354400  1
  H  158  1  0.16342600  0.30944500  0.84761900  1
  H  159  1  0.21412000  0.31061400  0.90109300  1
  H  160  1  0.18371800  0.28636600  0.91701500  1
  H  161  1  0.18256300  0.24124400  0.89487900  1
  H  162  1  0.09950500  0.24596100  0.87076400  1
  H  163  1  0.10908000  0.21899500  0.84793600  1
  H  164  1  0.19197500  0.21370900  0.87200100  1
  H  190  1  0.82464400  0.96033000  0.29621300  1
  H  191  1  0.83115200  0.92479200  0.30315900  1
  H  192  1  0.80962000  0.94702000  0.23357300  1
  H  193  1  0.81670500  0.91146300  0.24014700  1
  H  194  1  0.87820400  0.90016400  0.25431900  1
  H  195  1  0.92737100  0.90101900  0.26160100  1
  H  196  1  0.91125200  0.88356500  0.32306000  1
  H  197  1  0.86173400  0.88277500  0.31604500  1
  H  198  1  0.83157600  0.85120400  0.29803300  1
  H  199  1  0.80031700  0.83534700  0.32192300  1
  H  200  1  0.74970900  0.88886700  0.32292900  1
  H  201  1  0.78021600  0.90472600  0.29870700  1
  H  202  1  0.78134600  0.88244300  0.25369800  1
  H  203  1  0.86442000  0.85834400  0.25839400  1
  H  204  1  0.85481400  0.83547600  0.23146100  1
  H  205  1  0.77190500  0.85952000  0.22620300  1
  H  231  1  0.82449500  0.03678000  0.72528400  1
  H  232  1  0.83097200  0.07233600  0.71846300  1
  H  233  1  0.80989700  0.04984500  0.78802800  1
  H  234  1  0.81688900  0.08542200  0.78156300  1
  H  235  1  0.87819800  0.09685500  0.76742100  1
  H  236  1  0.92736200  0.09603600  0.76012700  1
  H  237  1  0.91119300  0.11350600  0.69867700  1
  H  238  1  0.86167200  0.11427500  0.70571200  1
  H  239  1  0.83160300  0.14587800  0.72383100  1
  H  240  1  0.80038400  0.16180800  0.69996300  1
  H  241  1  0.74968600  0.10833100  0.69884200  1
  H  242  1  0.78014000  0.09240800  0.72305300  1
  H  243  1  0.78139400  0.11444000  0.76818800  1
  H  244  1  0.86436300  0.13870300  0.76336300  1
  H  245  1  0.85477800  0.16151200  0.79034700  1
  H  246  1  0.77197700  0.13730000  0.79573900  1
  H  272  1  0.82462700  0.28386100  0.04910000  1
  H  273  1  0.83113900  0.29078900  0.08464000  1
  H  274  1  0.80966400  0.22120800  0.06238100  1
  H  275  1  0.81673000  0.22776600  0.09793600  1
  H  276  1  0.87820900  0.24194400  0.10922100  1
  H  277  1  0.92737700  0.24923200  0.10837600  1
  H  278  1  0.91124100  0.31066800  0.12590600  1
  H  279  1  0.86172500  0.30364500  0.12668400  1
  H  280  1  0.83156300  0.28558000  0.15824700  1
  H  281  1  0.80032700  0.30947200  0.17412100  1
  H  282  1  0.74976600  0.31059300  0.12057600  1
  H  283  1  0.78025200  0.28636600  0.10470000  1
  H  284  1  0.78132700  0.24132700  0.12694400  1
  H  285  1  0.86441800  0.24591600  0.15103800  1
  H  286  1  0.85479100  0.21892000  0.17383900  1
  H  287  1  0.77186000  0.21378500  0.14980900  1
  H  313  1  0.82469000  0.71329400  0.97279100  1
  H  314  1  0.83119000  0.70630300  0.93726100  1
  H  315  1  0.80958400  0.77590700  0.95940100  1
  H  316  1  0.81666400  0.76929000  0.92385000  1
  H  317  1  0.87820600  0.75511000  0.91256000  1
  H  318  1  0.92737500  0.74783200  0.91341600  1
  H  319  1  0.91125600  0.68635400  0.89603000  1
  H  320  1  0.86173600  0.69336500  0.89524600  1
  H  321  1  0.83155900  0.71136300  0.86365900  1
  H  322  1  0.80028900  0.68747100  0.84781900  1
  H  323  1  0.74971300  0.68647300  0.90135800  1
  H  324  1  0.78024000  0.71070100  0.91720600  1
  H  325  1  0.78132900  0.75568700  0.89485600  1
  H  326  1  0.86440700  0.75100800  0.87075900  1
  H  327  1  0.85477800  0.77791800  0.84787000  1
  H  328  1  0.77186200  0.78315800  0.87190700  1
  H  354  1  0.78648800  0.95483200  0.73338000  1
  H  355  1  0.79257900  0.91969700  0.72492100  1
  H  356  1  0.84372500  0.94852100  0.78287100  1
  H  357  1  0.84889000  0.91287100  0.77531400  1
  H  358  1  0.87492500  0.87239300  0.76605400  1
  H  359  1  0.92340300  0.87354100  0.75890600  1
  H  360  1  0.90674100  0.90479400  0.70313800  1
  H  361  1  0.85776300  0.90408900  0.71058900  1
  H  362  1  0.83779200  0.86599500  0.70588100  1
  H  363  1  0.80698200  0.85134400  0.68118400  1
  H  364  1  0.73623900  0.87179600  0.71524500  1
  H  365  1  0.76681800  0.88649300  0.74015200  1
  H  366  1  0.79650500  0.89310500  0.78292200  1
  H  367  1  0.83530700  0.84509100  0.74886600  1
  H  368  1  0.82599300  0.82190400  0.77627000  1
  H  369  1  0.78738800  0.86964000  0.81026600  1
  H  395  1  0.78589500  0.04227800  0.28806500  1
  H  396  1  0.79209200  0.07738000  0.29654400  1
  H  397  1  0.84413100  0.04830200  0.23915200  1
  H  398  1  0.84938600  0.08393800  0.24670200  1
  H  399  1  0.87496700  0.12489400  0.25586600  1
  H  400  1  0.92340700  0.12378800  0.26307500  1
  H  401  1  0.90670100  0.09205100  0.31856400  1
  H  402  1  0.85775700  0.09274000  0.31105400  1
  H  403  1  0.83772200  0.13080400  0.31594500  1
  H  404  1  0.80687400  0.14542600  0.34062500  1
  H  405  1  0.73619400  0.12534300  0.30627900  1
  H  406  1  0.76681600  0.11068400  0.28138300  1
  H  407  1  0.79697700  0.10361700  0.23862800  1
  H  408  1  0.83496400  0.15191200  0.27277700  1
  H  409  1  0.82562200  0.17499500  0.24528800  1
  H  410  1  0.78785000  0.12697500  0.21120400  1
  H  436  1  0.78607700  0.27581600  0.96720100  1
  H  437  1  0.79227000  0.28429800  0.93209200  1
  H  438  1  0.84381600  0.22661000  0.96105000  1
  H  439  1  0.84906200  0.23417200  0.92541400  1
  H  440  1  0.87491400  0.24335700  0.88475000  1
  H  441  1  0.92337100  0.25049100  0.88589600  1
  H  442  1  0.90675200  0.30615300  0.91735300  1
  H  443  1  0.85778200  0.29871800  0.91662900  1
  H  444  1  0.83779600  0.30353700  0.87856500  1
  H  445  1  0.80700500  0.32823300  0.86389300  1
  H  446  1  0.73624100  0.29404900  0.88410000  1
  H  447  1  0.76680300  0.26914600  0.89881300  1
  H  448  1  0.79659800  0.22639500  0.90564200  1
  H  449  1  0.83525200  0.26044200  0.85755500  1
  H  450  1  0.82599500  0.23298900  0.83441600  1
  H  451  1  0.78750900  0.19901200  0.88221700  1
  H  477  1  0.78586100  0.72141600  0.05464000  1
  H  478  1  0.79207900  0.71285700  0.08971700  1
  H  479  1  0.84401900  0.77035800  0.06077300  1
  H  480  1  0.84929200  0.76272900  0.09638900  1
  H  481  1  0.87494400  0.75349600  0.13723300  1
  H  482  1  0.92339000  0.74630100  0.13611200  1
  H  483  1  0.90670300  0.69081700  0.10436100  1
  H  484  1  0.85774800  0.69831500  0.10505800  1
  H  485  1  0.83775200  0.69336800  0.14312700  1
  H  486  1  0.80691800  0.66868600  0.15777600  1
  H  487  1  0.73621300  0.70303200  0.13774300  1
  H  488  1  0.76681100  0.72792800  0.12306100  1
  H  489  1  0.79686700  0.77069700  0.11616000  1
  H  490  1  0.83505700  0.73642600  0.16428500  1
  H  491  1  0.82573700  0.76382900  0.18747200  1
  H  492  1  0.78775500  0.79803500  0.13962700  1
  H  518  1  0.17777100  0.04219000  0.73359300  1
  H  519  1  0.17157400  0.07729600  0.72511000  1
  H  520  1  0.11994900  0.04831900  0.78274700  1
  H  521  1  0.11469800  0.08395500  0.77518800  1
  H  522  1  0.08887200  0.12464000  0.76600500  1
  H  523  1  0.04041600  0.12352000  0.75882300  1
  H  524  1  0.05709800  0.09205800  0.70317600  1
  H  525  1  0.10606200  0.09274700  0.71065900  1
  H  526  1  0.12602700  0.13081200  0.70583800  1
  H  527  1  0.15684500  0.14547900  0.68114600  1
  H  528  1  0.22757800  0.12528200  0.71537000  1
  H  529  1  0.19699800  0.11058100  0.74026600  1
  H  530  1  0.16718400  0.10373800  0.78300100  1
  H  531  1  0.12858000  0.15182900  0.74893000  1
  H  532  1  0.13788300  0.17497800  0.77636200  1
  H  533  1  0.17631400  0.12717700  0.81036600  1
  H  559  1  0.17778100  0.95476000  0.28820500  1
  H  560  1  0.17157000  0.91965700  0.29669600  1
  H  561  1  0.12003800  0.94861500  0.23900700  1
  H  562  1  0.11477100  0.91297900  0.24657600  1
  H  563  1  0.08890600  0.87231300  0.25578100  1
  H  564  1  0.04044300  0.87347500  0.26294300  1
  H  565  1  0.05713300  0.90494000  0.31858800  1
  H  566  1  0.10610400  0.90420800  0.31112500  1
  H  567  1  0.12606700  0.86614700  0.31595800  1
  H  568  1  0.15688400  0.85148900  0.34065100  1
  H  569  1  0.22761600  0.87166500  0.30641200  1
  H  570  1  0.19703400  0.88636200  0.28151600  1
  H  571  1  0.16724000  0.89319900  0.23879600  1
  H  572  1  0.12858700  0.84511800  0.27285100  1
  H  573  1  0.13786100  0.82197300  0.24540700  1
  H  574  1  0.17634200  0.86976700  0.21142100  1
  H  600  1  0.17765200  0.72104600  0.96718800  1
  H  601  1  0.17149200  0.71260800  0.93206700  1
  H  602  1  0.12002600  0.77032000  0.96104900  1
  H  603  1  0.11480300  0.76279600  0.92539800  1
  H  604  1  0.08893000  0.75362700  0.88474400  1
  H  605  1  0.04045900  0.74648100  0.88590700  1
  H  606  1  0.05712400  0.69078800  0.91729300  1
  H  607  1  0.10609700  0.69823700  0.91656700  1
  H  608  1  0.12606800  0.69346200  0.87848100  1
  H  609  1  0.15688300  0.66877400  0.86380700  1
  H  610  1  0.22762300  0.70293900  0.88410300  1
  H  611  1  0.19704000  0.72782900  0.89881600  1
  H  612  1  0.16721200  0.77058600  0.90566000  1
  H  613  1  0.12868100  0.73654500  0.85751800  1
  H  614  1  0.13799600  0.76400400  0.83439500  1
  H  615  1  0.17632400  0.79798400  0.88225800  1
  H  641  1  0.17772700  0.27591500  0.05465700  1
  H  642  1  0.17149500  0.28436100  0.08977100  1
  H  643  1  0.12019000  0.22658300  0.06077000  1
  H  644  1  0.11490400  0.23411100  0.09641400  1
  H  645  1  0.08888000  0.24328800  0.13694000  1
  H  646  1  0.04041300  0.25044800  0.13577500  1
  H  647  1  0.05712100  0.30620900  0.10452300  1
  H  648  1  0.10609700  0.29874700  0.10525100  1
  H  649  1  0.12599500  0.30347100  0.14334300  1
  H  650  1  0.15677600  0.32817300  0.15803300  1
  H  651  1  0.22756600  0.29405500  0.13774900  1
  H  652  1  0.19701800  0.26914700  0.12302400  1
  H  653  1  0.16734000  0.22642000  0.11624700  1
  H  654  1  0.12844900  0.26041300  0.16426800  1
  H  655  1  0.13770500  0.23297300  0.18742400  1
  H  656  1  0.17642900  0.19904900  0.13968800  1
  H  682  1  0.64536900  0.53886300  0.80045400  1
  H  683  1  0.63945400  0.57456200  0.80590700  1
  H  684  1  0.65628100  0.54923300  0.73679700  1
  H  685  1  0.65127900  0.58507300  0.74211400  1
  H  686  1  0.59155000  0.59434400  0.75642300  1
  H  687  1  0.54240500  0.59346000  0.76314700  1
  H  688  1  0.55636300  0.61865600  0.82215300  1
  H  689  1  0.60594700  0.61888300  0.81592300  1
  H  690  1  0.63738800  0.64782600  0.79748200  1
  H  691  1  0.66761400  0.66422200  0.82163500  1
  H  692  1  0.71816400  0.61071500  0.82480900  1
  H  693  1  0.68870800  0.59442700  0.80051400  1
  H  694  1  0.68805500  0.61610700  0.75550900  1
  H  695  1  0.60291100  0.63673300  0.75650400  1
  H  696  1  0.61193800  0.65789900  0.72803500  1
  H  697  1  0.69712300  0.63801300  0.72687400  1
  H  723  1  0.64531900  0.45813700  0.22144300  1
  H  724  1  0.63936100  0.42244500  0.21598500  1
  H  725  1  0.65625800  0.44774900  0.28509200  1
  H  726  1  0.65121700  0.41191700  0.27977200  1
  H  727  1  0.59141900  0.40261000  0.26540600  1
  H  728  1  0.54228600  0.40347400  0.25862500  1
  H  729  1  0.55640100  0.37829900  0.19962800  1
  H  730  1  0.60596800  0.37808800  0.20592200  1
  H  731  1  0.63740300  0.34915300  0.22442200  1
  H  732  1  0.66768200  0.33276300  0.20030000  1
  H  733  1  0.71813000  0.38631900  0.19709000  1
  H  734  1  0.68862100  0.40260100  0.22136000  1
  H  735  1  0.68797400  0.38088900  0.26637900  1
  H  736  1  0.60283000  0.36026300  0.26538000  1
  H  737  1  0.61186200  0.33908600  0.29384100  1
  H  738  1  0.69704700  0.35897200  0.29500300  1
  H  764  1  0.64523600  0.20902400  0.55126100  1
  H  765  1  0.63928700  0.20360400  0.58696000  1
  H  766  1  0.65626400  0.27267700  0.56159100  1
  H  767  1  0.65123000  0.26739100  0.59742800  1
  H  768  1  0.59139600  0.25305000  0.60672500  1
  H  769  1  0.54226100  0.24628200  0.60586500  1
  H  770  1  0.55633100  0.18731500  0.63112300  1
  H  771  1  0.60590400  0.19359400  0.63133500  1
  H  772  1  0.63737800  0.21213100  0.66025300  1
  H  773  1  0.66766200  0.18802900  0.67667100  1
  H  774  1  0.71805200  0.18470500  0.62309500  1
  H  775  1  0.68855300  0.20896500  0.60679000  1
  H  776  1  0.68794700  0.25402200  0.62848500  1
  H  777  1  0.60279200  0.25306200  0.64908800  1
  H  778  1  0.61183000  0.28153000  0.67025200  1
  H  779  1  0.69702600  0.28265300  0.65039100  1
  H  805  1  0.64543100  0.78800800  0.47055100  1
  H  806  1  0.63946000  0.79344900  0.43485900  1
  H  807  1  0.65635300  0.72435500  0.46018500  1
  H  808  1  0.65129800  0.72966000  0.42435500  1
  H  809  1  0.59154800  0.74397700  0.41509100  1
  H  810  1  0.54240900  0.75071100  0.41599000  1
  H  811  1  0.55637300  0.80970300  0.39075900  1
  H  812  1  0.60595100  0.80346200  0.39051900  1
  H  813  1  0.63739000  0.78501600  0.36158200  1
  H  814  1  0.66762000  0.80916900  0.34518500  1
  H  815  1  0.71816800  0.81234200  0.39869100  1
  H  816  1  0.68871400  0.78804800  0.41497600  1
  H  817  1  0.68805300  0.74305100  0.39329100  1
  H  818  1  0.60288700  0.74403600  0.37271000  1
  H  819  1  0.61190500  0.71557100  0.35153700  1
  H  820  1  0.69710800  0.71442200  0.37137800  1
  H  846  1  0.31854300  0.45819900  0.80033700  1
  H  847  1  0.32448600  0.42250700  0.80579800  1
  H  848  1  0.30761000  0.44781100  0.73669300  1
  H  849  1  0.31263800  0.41197500  0.74201200  1
  H  850  1  0.37240900  0.40274600  0.75639500  1
  H  851  1  0.42154300  0.40361800  0.76316400  1
  H  852  1  0.40748200  0.37833500  0.82212000  1
  H  853  1  0.35791500  0.37811600  0.81584400  1
  H  854  1  0.32645400  0.34919800  0.79733600  1
  H  855  1  0.29615200  0.33278200  0.82142900  1
  H  856  1  0.24573300  0.38634400  0.82470500  1
  H  857  1  0.27524300  0.40264600  0.80045200  1
  H  858  1  0.27587800  0.38090100  0.75542400  1
  H  859  1  0.36106900  0.36037400  0.75640300  1
  H  860  1  0.35206100  0.33916500  0.72796300  1
  H  861  1  0.26683400  0.35895000  0.72682100  1
  H  887  1  0.31868500  0.53883400  0.22149900  1
  H  888  1  0.32460000  0.57453200  0.21606200  1
  H  889  1  0.30765500  0.54917900  0.28514400  1
  H  890  1  0.31265700  0.58502700  0.27984300  1
  H  891  1  0.37244900  0.59433400  0.26550800  1
  H  892  1  0.42159000  0.59347800  0.25875000  1
  H  893  1  0.40752800  0.61869400  0.19976200  1
  H  894  1  0.35795700  0.61890000  0.20603200  1
  H  895  1  0.32647500  0.64783100  0.22454500  1
  H  896  1  0.29619900  0.66423100  0.20042700  1
  H  897  1  0.24582900  0.61064300  0.19711800  1
  H  898  1  0.27531500  0.59435800  0.22139400  1
  H  899  1  0.27588300  0.61606000  0.26643100  1
  H  900  1  0.36102900  0.63668900  0.26549600  1
  H  901  1  0.35196100  0.65784700  0.29396600  1
  H  902  1  0.26677900  0.63796000  0.29506600  1
  H  928  1  0.31857000  0.78796500  0.55124300  1
  H  929  1  0.32450500  0.79342600  0.58693500  1
  H  930  1  0.30757600  0.72432200  0.56163700  1
  H  931  1  0.31259800  0.72964800  0.59747400  1
  H  932  1  0.37237900  0.74398200  0.60673900  1
  H  933  1  0.42152200  0.75072500  0.60585900  1
  H  934  1  0.40751300  0.80972300  0.63105700  1
  H  935  1  0.35794000  0.80347300  0.63128100  1
  H  936  1  0.32649400  0.78500400  0.66022700  1
  H  937  1  0.29625000  0.80914200  0.67662900  1
  H  938  1  0.24577600  0.81238200  0.62308700  1
  H  939  1  0.27524700  0.78809900  0.60679800  1
  H  940  1  0.27583800  0.74308500  0.62851100  1
  H  941  1  0.36100600  0.74401700  0.64909600  1
  H  942  1  0.35194800  0.71555700  0.67027700  1
  H  943  1  0.26674500  0.71446500  0.65043000  1
  H  969  1  0.31855800  0.20909500  0.47060000  1
  H  970  1  0.32449600  0.20361600  0.43490900  1
  H  971  1  0.30758500  0.27273700  0.46017300  1
  H  972  1  0.31260600  0.26739100  0.42433800  1
  H  973  1  0.37240900  0.25303100  0.41508800  1
  H  974  1  0.42154300  0.24626500  0.41598100  1
  H  975  1  0.40750100  0.18727300  0.39078200  1
  H  976  1  0.35792900  0.19354200  0.39054600  1
  H  977  1  0.32647700  0.21203800  0.36160300  1
  H  978  1  0.29621200  0.18791500  0.34519800  1
  H  979  1  0.24578600  0.18463600  0.39876000  1
  H  980  1  0.27526800  0.20892100  0.41505300  1
  H  981  1  0.27587400  0.25395600  0.39329500  1
  H  982  1  0.36105400  0.25298100  0.37273800  1
  H  983  1  0.35202700  0.28142000  0.35153000  1
  H  984  1  0.26681000  0.28256200  0.37135200  1
  H  1010  1  0.32772300  0.45608600  0.22269900  1
  H  1011  1  0.33350300  0.42035100  0.21760400  1
  H  1012  1  0.31218900  0.44615200  0.28595500  1
  H  1013  1  0.31869900  0.41023700  0.28115700  1
  H  1014  1  0.37869100  0.39384900  0.26919600  1
  H  1015  1  0.42786100  0.39453600  0.26262300  1
  H  1016  1  0.41278500  0.38146900  0.19990500  1
  H  1017  1  0.36324500  0.38089700  0.20632200  1
  H  1018  1  0.33287100  0.34938700  0.22152900  1
  H  1019  1  0.30165500  0.33484500  0.19707200  1
  H  1020  1  0.24822700  0.38679200  0.20200400  1
  H  1021  1  0.27944800  0.40154600  0.22605500  1
  H  1022  1  0.28159000  0.38268900  0.26895600  1
  H  1023  1  0.36107800  0.35297700  0.26323500  1
  H  1024  1  0.34952200  0.33136000  0.29105300  1
  H  1025  1  0.27037600  0.36099700  0.29734800  1
  H  1051  1  0.32780800  0.54094100  0.79909800  1
  H  1052  1  0.33363600  0.57667800  0.80415400  1
  H  1053  1  0.31203400  0.55083700  0.73586600  1
  H  1054  1  0.31859800  0.58675000  0.74062300  1
  H  1055  1  0.37871000  0.60313100  0.75255400  1
  H  1056  1  0.42788000  0.60244400  0.75912300  1
  H  1057  1  0.41282100  0.61564600  0.82181500  1
  H  1058  1  0.36328800  0.61621200  0.81540400  1
  H  1059  1  0.33284200  0.64766600  0.80016000  1
  H  1060  1  0.30166100  0.66219900  0.82464800  1
  H  1061  1  0.24835200  0.61017400  0.81985800  1
  H  1062  1  0.27954400  0.59543200  0.79578500  1
  H  1063  1  0.28155000  0.61431600  0.75285900  1
  H  1064  1  0.36109000  0.64398500  0.75839200  1
  H  1065  1  0.34948400  0.66554700  0.73054200  1
  H  1066  1  0.27028100  0.63595100  0.72443600  1
  H  1092  1  0.32776800  0.78674800  0.46849600  1
  H  1093  1  0.33360700  0.79180600  0.43276100  1
  H  1094  1  0.31196800  0.72352100  0.45859600  1
  H  1095  1  0.31853800  0.72827800  0.42268400  1
  H  1096  1  0.37865900  0.74019600  0.40637100  1
  H  1097  1  0.42783400  0.74673900  0.40707000  1
  H  1098  1  0.41284800  0.80942300  0.39377800  1
  H  1099  1  0.36330700  0.80303700  0.39319900  1
  H  1100  1  0.33284200  0.78779100  0.36175900  1
  H  1101  1  0.30168000  0.81228400  0.34721300  1
  H  1102  1  0.24836900  0.80754900  0.39924000  1
  H  1103  1  0.27953500  0.78346500  0.41399100  1
  H  1104  1  0.28151800  0.74052700  0.39508000  1
  H  1105  1  0.36111200  0.74602700  0.36548100  1
  H  1106  1  0.34953700  0.71816300  0.34393000  1
  H  1107  1  0.27027400  0.71209200  0.37344900  1
  H  1133  1  0.32763000  0.21029300  0.55329600  1
  H  1134  1  0.33346300  0.20520100  0.58902600  1
  H  1135  1  0.31192800  0.27352500  0.56324700  1
  H  1136  1  0.31849600  0.26873200  0.59915600  1
  H  1137  1  0.37859100  0.25678800  0.61544700  1
  H  1138  1  0.42776600  0.25024000  0.61475900  1
  H  1139  1  0.41276100  0.18754400  0.62798100  1
  H  1140  1  0.36322000  0.19393300  0.62854700  1
  H  1141  1  0.33281900  0.20914100  0.66002300  1
  H  1142  1  0.30166100  0.18463600  0.67455800  1
  H  1143  1  0.24825500  0.18948900  0.62259300  1
  H  1144  1  0.27941400  0.21358300  0.60785200  1
  H  1145  1  0.28149700  0.25651400  0.62676600  1
  H  1146  1  0.36107600  0.25084800  0.65635900  1
  H  1147  1  0.34955800  0.27867100  0.67797900  1
  H  1148  1  0.27032100  0.28491500  0.64846000  1
  H  1174  1  0.63621200  0.54090200  0.22266200  1
  H  1175  1  0.63038400  0.57663800  0.21760900  1
  H  1176  1  0.65190400  0.55078300  0.28590600  1
  H  1177  1  0.64534600  0.58670000  0.28115100  1
  H  1178  1  0.58526600  0.60300600  0.26922400  1
  H  1179  1  0.53608700  0.60233400  0.26268000  1
  H  1180  1  0.55108900  0.61561300  0.19999600  1
  H  1181  1  0.60063100  0.61616600  0.20638200  1
  H  1182  1  0.63104100  0.64763400  0.22162600  1
  H  1183  1  0.66218100  0.66218600  0.19711800  1
  H  1184  1  0.71555800  0.61020000  0.20188100  1
  H  1185  1  0.68442100  0.59544300  0.22598100  1
  H  1186  1  0.68236800  0.61432200  0.26895000  1
  H  1187  1  0.60279200  0.64392500  0.26332400  1
  H  1188  1  0.61432800  0.66552700  0.29115600  1
  H  1189  1  0.69356800  0.63600200  0.29735900  1
  H  1215  1  0.63616200  0.45608000  0.79919300  1
  H  1216  1  0.63033300  0.42034300  0.80423100  1
  H  1217  1  0.65178500  0.44622900  0.73593500  1
  H  1218  1  0.64523200  0.41030900  0.74067800  1
  H  1219  1  0.58519600  0.39394100  0.75260200  1
  H  1220  1  0.53602100  0.39462600  0.75916000  1
  H  1221  1  0.55105500  0.38140900  0.82185300  1
  H  1222  1  0.60059500  0.38083700  0.81545200  1
  H  1223  1  0.63101300  0.34936700  0.80021800  1
  H  1224  1  0.66219600  0.33481900  0.82470200  1
  H  1225  1  0.71556400  0.38680900  0.81987300  1
  H  1226  1  0.68438500  0.40155800  0.79580300  1
  H  1227  1  0.68231800  0.38272000  0.75288200  1
  H  1228  1  0.60278400  0.35305100  0.75848300  1
  H  1229  1  0.61433900  0.33149400  0.73061700  1
  H  1230  1  0.69354000  0.36108000  0.72444500  1
  H  1256  1  0.63620800  0.21022200  0.46846900  1
  H  1257  1  0.63038400  0.20516400  0.43273400  1
  H  1258  1  0.65179600  0.27348000  0.45858700  1
  H  1259  1  0.64524200  0.26871900  0.42267000  1
  H  1260  1  0.58522000  0.25680600  0.40630200  1
  H  1261  1  0.53604000  0.25025700  0.40700200  1
  H  1262  1  0.55105100  0.18754400  0.39386400  1
  H  1263  1  0.60059100  0.19393600  0.39327800  1
  H  1264  1  0.63095400  0.20915600  0.36175900  1
  H  1265  1  0.66209500  0.18465600  0.34719700  1
  H  1266  1  0.71553500  0.18946900  0.39915100  1
  H  1267  1  0.68439200  0.21356200  0.41391600  1
  H  1268  1  0.68231300  0.25652100  0.39510400  1
  H  1269  1  0.60279800  0.25087600  0.36541500  1
  H  1270  1  0.61436200  0.27871800  0.34382900  1
  H  1271  1  0.69353400  0.28494000  0.37344600  1
  H  1297  1  0.63616800  0.78672000  0.55333700  1
  H  1298  1  0.63033500  0.79175800  0.58907200  1
  H  1299  1  0.65178900  0.72346200  0.56319000  1
  H  1300  1  0.64522800  0.72820500  0.59911000  1
  H  1301  1  0.58519000  0.74013200  0.61551800  1
  H  1302  1  0.53601900  0.74670200  0.61481800  1
  H  1303  1  0.55107900  0.80941200  0.62793600  1
  H  1304  1  0.60061600  0.80299900  0.62851900  1
  H  1305  1  0.63099800  0.78778500  0.66001800  1
  H  1306  1  0.66218100  0.81227600  0.67455200  1
  H  1307  1  0.71560200  0.80736900  0.62259800  1
  H  1308  1  0.68441500  0.78329200  0.60785500  1
  H  1309  1  0.68230700  0.74039600  0.62669600  1
  H  1310  1  0.60279400  0.74604500  0.65638700  1
  H  1311  1  0.61436400  0.71821300  0.67798000  1
  H  1312  1  0.69354200  0.71199200  0.64837100  1
  H  1319  1  0.19444800  0.97903600  0.25144600  1
  H  1322  1  0.22132600  0.00556300  0.22597000  1
  H  1323  1  0.22746600  0.03238800  0.22851900  1
  H  1324  1  0.19461200  0.02352400  0.21901500  1
  H  1332  1  0.19447500  0.01790500  0.77007000  1
  H  1335  1  0.22084500  0.99126700  0.79595900  1
  H  1336  1  0.22730300  0.96450200  0.79321200  1
  H  1337  1  0.19423700  0.97309300  0.80255100  1
  H  1345  1  0.19419200  0.75817500  0.99145800  1
  H  1348  1  0.22079400  0.78380400  0.01789900  1
  H  1349  1  0.22690200  0.78140800  0.04474300  1
  H  1350  1  0.19395000  0.79065600  0.03579900  1
  H  1358  1  0.19437800  0.23882800  0.03039500  1
  H  1361  1  0.22102700  0.21320500  0.00395300  1
  H  1362  1  0.22716300  0.21561900  0.97711500  1
  H  1363  1  0.19421500  0.20634000  0.98603400  1
  H  1371  1  0.76922700  0.01795200  0.25206000  1
  H  1374  1  0.74282100  0.99136700  0.22626000  1
  H  1375  1  0.73604600  0.96466300  0.22911400  1
  H  1376  1  0.76916100  0.97299100  0.21962300  1
  H  1384  1  0.76997500  0.97898600  0.77107200  1
  H  1387  1  0.74367300  0.00534900  0.79683000  1
  H  1388  1  0.73759400  0.03220900  0.79458600  1
  H  1389  1  0.77065500  0.02318900  0.80355400  1
  H  1397  1  0.76933300  0.23925900  0.99147400  1
  H  1400  1  0.74303100  0.21335800  0.01812100  1
  H  1401  1  0.73659400  0.21609100  0.04489100  1
  H  1402  1  0.76967400  0.20679900  0.03628000  1
  H  1410  1  0.76913600  0.75737500  0.03033400  1
  H  1413  1  0.74266900  0.78312100  0.00370200  1
  H  1414  1  0.73592300  0.78021400  0.97700000  1
  H  1415  1  0.76899200  0.78978800  0.98532600  1
  H  1423  1  0.68490400  0.47676700  0.74649300  1
  H  1426  1  0.70820600  0.49991400  0.71851600  1
  H  1427  1  0.71536700  0.52669800  0.71748200  1
  H  1428  1  0.68029800  0.51777300  0.71428900  1
  H  1436  1  0.68501900  0.52022000  0.27530100  1
  H  1439  1  0.70766600  0.49696100  0.30354700  1
  H  1440  1  0.71507300  0.47020900  0.30446500  1
  H  1441  1  0.67988100  0.47892800  0.30742700  1
  H  1449  1  0.68494100  0.26289500  0.48914800  1
  H  1452  1  0.70828600  0.29086400  0.51229200  1
  H  1453  1  0.71542700  0.29190000  0.53907900  1
  H  1454  1  0.68037500  0.29514000  0.53013700  1
  H  1462  1  0.68493200  0.73402600  0.53266100  1
  H  1465  1  0.70821900  0.70604600  0.50951600  1
  H  1466  1  0.71538600  0.70501100  0.48273200  1
  H  1467  1  0.68031100  0.70184400  0.49165200  1
  H  1475  1  0.27889100  0.52029800  0.74651600  1
  H  1478  1  0.25654700  0.49708400  0.71822300  1
  H  1479  1  0.24879900  0.47039100  0.71732800  1
  H  1480  1  0.28412600  0.47885400  0.71444500  1
  H  1488  1  0.27901400  0.47672700  0.27537900  1
  H  1491  1  0.25564700  0.49987100  0.30334300  1
  H  1492  1  0.24848100  0.52665500  0.30436700  1
  H  1493  1  0.28354000  0.51773100  0.30761700  1
  H  1501  1  0.27885900  0.73414400  0.48914700  1
  H  1504  1  0.25618900  0.70589800  0.51240100  1
  H  1505  1  0.24876100  0.70498100  0.53915100  1
  H  1506  1  0.28395900  0.70201600  0.53044500  1
  H  1514  1  0.27876800  0.26288700  0.53265300  1
  H  1517  1  0.25644600  0.29117900  0.50941700  1
  H  1518  1  0.24873800  0.29207300  0.48271800  1
  H  1519  1  0.28404600  0.29497900  0.49121200  1
  H  1527  1  0.24184600  0.14890300  0.38460400  1
  H  1530  1  0.23491700  0.10138900  0.36162000  1
  H  1531  1  0.20631100  0.09293100  0.37695900  1
  H  1532  1  0.23264600  0.10913700  0.38778700  1
  H  1540  1  0.24167600  0.84806400  0.63719800  1
  H  1543  1  0.23456800  0.89559700  0.66064600  1
  H  1544  1  0.20625800  0.90408800  0.64505500  1
  H  1545  1  0.23286000  0.88798600  0.63442000  1
  H  1553  1  0.24186900  0.62481500  0.16139100  1
  H  1556  1  0.23493900  0.64780500  0.11389300  1
  H  1557  1  0.20633500  0.63247100  0.10542300  1
  H  1558  1  0.23266300  0.62163500  0.12163000  1
  H  1566  1  0.24175900  0.37216900  0.86043700  1
  H  1569  1  0.23486500  0.34914700  0.90791100  1
  H  1570  1  0.20625400  0.36446100  0.91640600  1
  H  1571  1  0.23256100  0.37532300  0.90019900  1
  H  1579  1  0.72227800  0.84802500  0.38463400  1
  H  1582  1  0.72942100  0.89557500  0.36104900  1
  H  1583  1  0.75753800  0.90403200  0.37684700  1
  H  1584  1  0.73084000  0.88789200  0.38727000  1
  H  1592  1  0.72201400  0.14898900  0.63728100  1
  H  1595  1  0.72894000  0.10149600  0.66029200  1
  H  1596  1  0.75754600  0.09302300  0.64496300  1
  H  1597  1  0.73121700  0.10922400  0.63411900  1
  H  1605  1  0.72224400  0.37222200  0.16140900  1
  H  1608  1  0.72930800  0.34878200  0.11387000  1
  H  1609  1  0.75760600  0.36437500  0.10536200  1
  H  1610  1  0.73102200  0.37500800  0.12148100  1
  H  1618  1  0.72227600  0.62476800  0.86049200  1
  H  1621  1  0.72942500  0.64834200  0.90805800  1
  H  1622  1  0.75754800  0.63254500  0.91650100  1
  H  1623  1  0.73084900  0.62212600  0.90036100  1
  H  1631  1  0.72952400  0.84064800  0.63330500  1
  H  1634  1  0.74763900  0.89263700  0.65837800  1
  H  1635  1  0.77488400  0.89552100  0.63998900  1
  H  1636  1  0.74184500  0.88480700  0.63251400  1
  H  1644  1  0.72935500  0.15615400  0.38839200  1
  H  1647  1  0.74763700  0.10427700  0.36262000  1
  H  1648  1  0.77440100  0.10110900  0.38131400  1
  H  1649  1  0.74119200  0.11173400  0.38851200  1
  H  1657  1  0.72945200  0.37605700  0.85317200  1
  H  1660  1  0.74749900  0.35089500  0.90510500  1
  H  1661  1  0.77471200  0.36929700  0.90806400  1
  H  1662  1  0.74169200  0.37677100  0.89731500  1
  H  1670  1  0.72932700  0.62094800  0.16854100  1
  H  1673  1  0.74730900  0.64614700  0.11660300  1
  H  1674  1  0.77449400  0.62773100  0.11360600  1
  H  1675  1  0.74148200  0.62026800  0.12437300  1
  H  1683  1  0.23438400  0.15618200  0.63333900  1
  H  1686  1  0.21633400  0.10435500  0.65893600  1
  H  1687  1  0.18964500  0.10119800  0.64017700  1
  H  1688  1  0.22275600  0.11204100  0.63310000  1
  H  1696  1  0.23448100  0.84082800  0.38845200  1
  H  1699  1  0.21640900  0.89273700  0.36323300  1
  H  1700  1  0.18921300  0.89571700  0.38164600  1
  H  1701  1  0.22224300  0.88498200  0.38911500  1
  H  1709  1  0.23439000  0.62094400  0.85310500  1
  H  1712  1  0.21600000  0.64666800  0.90500200  1
  H  1713  1  0.18921900  0.62797700  0.90811500  1
  H  1714  1  0.22245300  0.62078200  0.89752800  1
  H  1722  1  0.23427800  0.37604500  0.16871500  1
  H  1725  1  0.21617500  0.35043900  0.11689600  1
  H  1726  1  0.18946600  0.36918600  0.11375900  1
  H  1727  1  0.22258700  0.37627900  0.12457700  1
  H  1735  1  0.20102400  0.16977700  0.21185700  1
  H  1738  1  0.24162700  0.17513700  0.18237700  1
  H  1739  1  0.24906200  0.19721200  0.16722100  1
  H  1740  1  0.22250400  0.17979800  0.15928600  1
  H  1748  1  0.20100900  0.82698200  0.80975200  1
  H  1751  1  0.24133900  0.82180700  0.83986600  1
  H  1752  1  0.24897100  0.79947300  0.85458200  1
  H  1753  1  0.22211400  0.81650800  0.86276800  1
  H  1761  1  0.20100800  0.79753900  0.18219000  1
  H  1764  1  0.24160800  0.82709100  0.18750500  1
  H  1765  1  0.24907500  0.84220100  0.20960700  1
  H  1766  1  0.22248300  0.85016700  0.19223400  1
  H  1774  1  0.20105600  0.19935900  0.83962200  1
  H  1777  1  0.24161000  0.16980800  0.83428800  1
  H  1778  1  0.24906600  0.15468800  0.81219400  1
  H  1779  1  0.22245100  0.14674800  0.82956000  1
  H  1787  1  0.76285200  0.82703800  0.21200400  1
  H  1790  1  0.72289100  0.82209500  0.18185600  1
  H  1791  1  0.71497700  0.79982900  0.16713200  1
  H  1792  1  0.74209000  0.81666000  0.15896400  1
  H  1800  1  0.76284300  0.16972000  0.81003700  1
  H  1803  1  0.72224000  0.17506300  0.83955400  1
  H  1804  1  0.71477600  0.19716100  0.85466600  1
  H  1805  1  0.74136400  0.17978700  0.86263300  1
  H  1813  1  0.76286400  0.19968800  0.18241800  1
  H  1816  1  0.72257100  0.16939100  0.18755600  1
  H  1817  1  0.71495000  0.15476600  0.20995300  1
  H  1818  1  0.74182600  0.14652600  0.19296200  1
  H  1826  1  0.76280900  0.79732700  0.83939100  1
  H  1829  1  0.72274000  0.82729900  0.83435500  1
  H  1830  1  0.71486100  0.84207600  0.81211600  1
  H  1831  1  0.74186600  0.85025200  0.82903800  1
  H  1839  1  0.69974600  0.67557400  0.71682700  1
  H  1842  1  0.74439100  0.69115400  0.69740300  1
  H  1843  1  0.74786400  0.71362900  0.68209500  1
  H  1844  1  0.73363900  0.69098000  0.67119900  1
  H  1852  1  0.69965500  0.32139600  0.30497600  1
  H  1855  1  0.74427300  0.30615300  0.32486800  1
  H  1856  1  0.74781700  0.28352500  0.33993700  1
  H  1857  1  0.73314900  0.30593900  0.35098400  1
  H  1865  1  0.69962300  0.29263400  0.68796400  1
  H  1868  1  0.74432300  0.31201100  0.70357200  1
  H  1869  1  0.74780500  0.32727300  0.72607800  1
  H  1870  1  0.73362600  0.33822800  0.70344100  1
  H  1878  1  0.69972300  0.70440400  0.33382400  1
  H  1881  1  0.74436400  0.68500200  0.31824000  1
  H  1882  1  0.74785100  0.66968500  0.29577100  1
  H  1883  1  0.73360500  0.65879900  0.31841900  1
  H  1891  1  0.26427000  0.32138600  0.71688500  1
  H  1894  1  0.21979400  0.30629600  0.69697700  1
  H  1895  1  0.21606300  0.28361800  0.68202400  1
  H  1896  1  0.23087900  0.30591900  0.67084500  1
  H  1904  1  0.26418500  0.67557200  0.30503500  1
  H  1907  1  0.21950400  0.69124300  0.32436900  1
  H  1908  1  0.21605300  0.71375900  0.33962200  1
  H  1909  1  0.23016900  0.69110900  0.35059200  1
  H  1917  1  0.26418300  0.70449700  0.68803900  1
  H  1920  1  0.21956300  0.68458500  0.70330600  1
  H  1921  1  0.21605500  0.66950000  0.72592700  1
  H  1922  1  0.23067200  0.65846200  0.70349000  1
  H  1930  1  0.26422300  0.29253700  0.33377600  1
  H  1933  1  0.21976500  0.31249200  0.31869400  1
  H  1934  1  0.21605300  0.32744800  0.29601600  1
  H  1935  1  0.23087900  0.33861700  0.31831900  1
  H  1943  1  0.95319400  0.08310900  0.31748800  1
  H  1946  1  0.01239800  0.09639800  0.34844800  1
  H  1947  1  0.02333500  0.07057800  0.35137500  1
  H  1948  1  0.98666500  0.07651700  0.35018700  1
  H  1956  1  0.95319600  0.91410500  0.70455500  1
  H  1959  1  0.01290000  0.90048500  0.67372100  1
  H  1960  1  0.02348900  0.92634600  0.67058300  1
  H  1961  1  0.98689800  0.92014500  0.67167400  1
  H  1969  1  0.95321500  0.69197100  0.09538000  1
  H  1972  1  0.01245900  0.66093700  0.10869400  1
  H  1973  1  0.02340500  0.65807800  0.08286900  1
  H  1974  1  0.98673300  0.65923200  0.08880600  1
  H  1982  1  0.95325100  0.30505600  0.92632300  1
  H  1985  1  0.01235700  0.33595600  0.91285600  1
  H  1986  1  0.02340000  0.33898900  0.93863900  1
  H  1987  1  0.98670700  0.33775500  0.93278700  1
  H  1995  1  0.01066500  0.91417400  0.31723300  1
  H  1998  1  0.95095600  0.90052200  0.34799400  1
  H  1999  1  0.94059000  0.92642100  0.35123200  1
  H  2000  1  0.97711600  0.92008300  0.35002600  1
  H  2008  1  0.01060300  0.08292200  0.70444600  1
  H  2011  1  0.95133800  0.09620900  0.67339800  1
  H  2012  1  0.94040100  0.07037800  0.67056600  1
  H  2013  1  0.97707100  0.07632400  0.67170800  1
  H  2021  1  0.01065900  0.30481000  0.09520700  1
  H  2024  1  0.95096500  0.33564400  0.10883600  1
  H  2025  1  0.94036700  0.33879400  0.08297900  1
  H  2026  1  0.97695900  0.33769400  0.08917100  1
  H  2034  1  0.01067300  0.69217100  0.92656800  1
  H  2037  1  0.95098200  0.66140900  0.91294200  1
  H  2038  1  0.94060600  0.65818100  0.93884100  1
  H  2039  1  0.97713500  0.65939300  0.93251000  1
  H  2047  1  0.45659700  0.59381300  0.82313400  1
  H  2050  1  0.51246800  0.61333800  0.85009800  1
  H  2051  1  0.52520100  0.58960200  0.85956400  1
  H  2052  1  0.48826600  0.59323800  0.85599400  1
  H  2060  1  0.45659700  0.40332000  0.19866300  1
  H  2063  1  0.51297000  0.38348600  0.17197300  1
  H  2064  1  0.52535100  0.40721400  0.16226800  1
  H  2065  1  0.48846500  0.40330100  0.16579600  1
  H  2073  1  0.45658500  0.18625700  0.60615400  1
  H  2076  1  0.51248400  0.15931900  0.62574200  1
  H  2077  1  0.52526000  0.14987700  0.60200900  1
  H  2078  1  0.48831600  0.15341100  0.60562700  1
  H  2086  1  0.45662900  0.81075000  0.41560500  1
  H  2089  1  0.51247600  0.83763700  0.39599200  1
  H  2090  1  0.52526000  0.84715900  0.41969100  1
  H  2091  1  0.48831600  0.84359300  0.41610100  1
  H  2099  1  0.50727500  0.40330100  0.82312900  1
  H  2102  1  0.45073500  0.38334300  0.84965300  1
  H  2103  1  0.43865400  0.40707900  0.85954600  1
  H  2104  1  0.47547300  0.40298900  0.85591100  1
  H  2112  1  0.50727000  0.59375000  0.19871200  1
  H  2115  1  0.45136600  0.61331000  0.17177000  1
  H  2116  1  0.43859300  0.58956900  0.16234000  1
  H  2117  1  0.47553900  0.59319200  0.16587000  1
  H  2125  1  0.50729200  0.81067700  0.60607900  1
  H  2128  1  0.45096600  0.83734900  0.62592900  1
  H  2129  1  0.43855900  0.84709100  0.60222400  1
  H  2130  1  0.47544700  0.84354400  0.60610700  1
  H  2138  1  0.50727500  0.18630200  0.41576200  1
  H  2141  1  0.45074800  0.15974000  0.39584300  1
  H  2142  1  0.43865000  0.14989300  0.41959400  1
  H  2143  1  0.47547100  0.15352100  0.41551000  1
  C  1  1  0.15141100  0.15172300  0.22562300  1
  C  2  1  0.12466500  0.15130000  0.23550800  1
  C  3  1  0.11886000  0.13751500  0.25157000  1
  C  4  1  0.13940600  0.12316000  0.25828200  1
  C  5  1  0.16657200  0.12409400  0.24902900  1
  C  6  1  0.17231400  0.13785700  0.23282300  1
  C  8  1  0.15386700  0.11695500  0.29654000  1
  C  9  1  0.17812900  0.10654600  0.30409300  1
  C  10  1  0.19637000  0.11593400  0.31839100  1
  C  11  1  0.19122200  0.13619700  0.32519700  1
  C  12  1  0.16745300  0.14686300  0.31750300  1
  C  13  1  0.14901500  0.13735200  0.30345300  1
  C  14  1  0.09915200  0.10643900  0.28427500  1
  C  15  1  0.14066200  0.08282200  0.27269700  1
  C  16  1  0.13781500  0.06798700  0.28855600  1
  C  17  1  0.14150100  0.04694500  0.28454300  1
  C  18  1  0.14804200  0.04007500  0.26450800  1
  C  19  1  0.15061300  0.05461600  0.24852400  1
  C  20  1  0.14658700  0.07568100  0.25253300  1
  C  21  1  0.07934900  0.10032200  0.26905500  1
  C  22  1  0.05020100  0.09985800  0.27325600  1
  C  23  1  0.03990000  0.10472700  0.29305400  1
  C  24  1  0.05951400  0.10973200  0.30866100  1
  C  25  1  0.08874800  0.11053200  0.30433100  1
  C  42  1  0.15143200  0.84523500  0.79626700  1
  C  43  1  0.12466100  0.84565800  0.78642000  1
  C  44  1  0.11882700  0.85944000  0.77035800  1
  C  45  1  0.13937500  0.87377200  0.76359800  1
  C  46  1  0.16655600  0.87284400  0.77283200  1
  C  47  1  0.17232800  0.85908900  0.78903900  1
  C  49  1  0.15385300  0.88001000  0.72535500  1
  C  50  1  0.17809100  0.89045200  0.71780400  1
  C  51  1  0.19635900  0.88109700  0.70350400  1
  C  52  1  0.19125500  0.86083500  0.69667800  1
  C  53  1  0.16750600  0.85013600  0.70436100  1
  C  54  1  0.14904900  0.85961400  0.71841900  1
  C  55  1  0.09910500  0.89046200  0.73758700  1
  C  56  1  0.14055300  0.91411300  0.74921500  1
  C  57  1  0.13770800  0.92896200  0.73336900  1
  C  58  1  0.14139100  0.95000200  0.73739600  1
  C  59  1  0.14791700  0.95685900  0.75743800  1
  C  60  1  0.15044700  0.94230900  0.77341600  1
  C  61  1  0.14646700  0.92124500  0.76938600  1
  C  62  1  0.07926800  0.89656900  0.75279000  1
  C  63  1  0.05012700  0.89703100  0.74855800  1
  C  64  1  0.03986800  0.89216200  0.72874900  1
  C  65  1  0.05951000  0.88714600  0.71316500  1
  C  66  1  0.08873700  0.88635900  0.71752200  1
  C  83  1  0.15138200  0.78379500  0.16415000  1
  C  84  1  0.12464400  0.77389900  0.16375000  1
  C  85  1  0.11882800  0.75783500  0.14996700  1
  C  86  1  0.13936700  0.75111200  0.13561000  1
  C  87  1  0.16651900  0.76039100  0.13651300  1
  C  88  1  0.17227100  0.77660100  0.15027000  1
  C  90  1  0.15385500  0.71286100  0.12944700  1
  C  91  1  0.17812200  0.70530600  0.11904500  1
  C  92  1  0.19636800  0.69101500  0.12843800  1
  C  93  1  0.19121700  0.68421400  0.14870200  1
  C  94  1  0.16744000  0.69190300  0.15936300  1
  C  95  1  0.14900100  0.70594800  0.14984400  1
  C  96  1  0.09912300  0.72508600  0.11892800  1
  C  97  1  0.14060400  0.73665100  0.09528800  1
  C  98  1  0.13780200  0.72076600  0.08047600  1
  C  99  1  0.14149500  0.72474700  0.05942800  1
  C  100  1  0.14798600  0.74477900  0.05252200  1
  C  101  1  0.15049500  0.76079000  0.06704000  1
  C  102  1  0.14649100  0.75680900  0.08811200  1
  C  103  1  0.07930200  0.74029800  0.11282200  1
  C  104  1  0.05016000  0.73607900  0.11234300  1
  C  105  1  0.03988000  0.71627800  0.11721900  1
  C  106  1  0.05950700  0.70068000  0.12223000  1
  C  107  1  0.08873800  0.70502400  0.12302500  1
  C  124  1  0.15143400  0.21311100  0.85767800  1
  C  125  1  0.12468500  0.22299300  0.85810900  1
  C  126  1  0.11888000  0.23905000  0.87189900  1
  C  127  1  0.13944300  0.24578400  0.88623300  1
  C  128  1  0.16660200  0.23652000  0.88530200  1
  C  129  1  0.17233900  0.22031200  0.87154100  1
  C  131  1  0.15388500  0.28404900  0.89238000  1
  C  132  1  0.17813800  0.29163500  0.90277800  1
  C  133  1  0.19636000  0.30593000  0.89336800  1
  C  134  1  0.19116900  0.31273900  0.87311300  1
  C  135  1  0.16739300  0.30503000  0.86246500  1
  C  136  1  0.14898800  0.29096700  0.87199200  1
  C  137  1  0.09919000  0.27177500  0.90296000  1
  C  138  1  0.14073600  0.26025000  0.92655400  1
  C  139  1  0.13792700  0.27613200  0.94136600  1
  C  140  1  0.14164100  0.27215400  0.96241200  1
  C  141  1  0.14816900  0.25212700  0.96931700  1
  C  142  1  0.15070400  0.23612000  0.95479500  1
  C  143  1  0.14668500  0.24009800  0.93372500  1
  C  144  1  0.07941100  0.25654800  0.90910200  1
  C  145  1  0.05025900  0.26073500  0.90958700  1
  C  146  1  0.03992800  0.28052200  0.90471400  1
  C  147  1  0.05951900  0.29613400  0.89967300  1
  C  148  1  0.08875700  0.29182100  0.89885400  1
  C  165  1  0.81245200  0.84520800  0.22559900  1
  C  166  1  0.83921400  0.84565400  0.23546200  1
  C  167  1  0.84503400  0.85946400  0.25149900  1
  C  168  1  0.82447400  0.87380400  0.25822500  1
  C  169  1  0.79730400  0.87285900  0.24897800  1
  C  170  1  0.79154900  0.85907500  0.23279300  1
  C  172  1  0.81000500  0.88005800  0.29646700  1
  C  173  1  0.78576100  0.89049500  0.30401300  1
  C  174  1  0.76750200  0.88113800  0.31831900  1
  C  175  1  0.77261900  0.86087700  0.32514000  1
  C  176  1  0.79639700  0.85019500  0.31748600  1
  C  177  1  0.81484700  0.85967500  0.30342300  1
  C  178  1  0.86473400  0.89055400  0.28420600  1
  C  179  1  0.82322600  0.91415400  0.27257900  1
  C  180  1  0.82608600  0.92901100  0.28841900  1
  C  181  1  0.82239800  0.95004800  0.28438300  1
  C  182  1  0.81586800  0.95688900  0.26433700  1
  C  183  1  0.81332500  0.94233700  0.24836400  1
  C  184  1  0.81730400  0.92127400  0.25240500  1
  C  185  1  0.88454600  0.89666100  0.26898700  1
  C  186  1  0.91369000  0.89714000  0.27320000  1
  C  187  1  0.92397900  0.89229400  0.29300600  1
  C  188  1  0.90436000  0.88727800  0.30860600  1
  C  189  1  0.87512800  0.88647000  0.30426700  1
  C  206  1  0.81247200  0.15169400  0.79628200  1
  C  207  1  0.83919300  0.15132000  0.78635700  1
  C  208  1  0.84500600  0.13753600  0.77029600  1
  C  209  1  0.82447800  0.12316200  0.76359700  1
  C  210  1  0.79733600  0.12404400  0.77289200  1
  C  211  1  0.79159400  0.13779500  0.78911000  1
  C  213  1  0.80997600  0.11704300  0.72534200  1
  C  214  1  0.78570800  0.10664500  0.71777800  1
  C  215  1  0.76747000  0.11605000  0.70349000  1
  C  216  1  0.77263600  0.13631400  0.69669500  1
  C  217  1  0.79642700  0.14696100  0.70438000  1
  C  218  1  0.81485100  0.13743600  0.71842900  1
  C  219  1  0.86470400  0.10648800  0.73754800  1
  C  220  1  0.82320900  0.08285500  0.74910300  1
  C  221  1  0.82597600  0.06806100  0.73320000  1
  C  222  1  0.82231700  0.04700800  0.73716600  1
  C  223  1  0.81590400  0.04007200  0.75720500  1
  C  224  1  0.81347400  0.05457600  0.77323600  1
  C  225  1  0.81743100  0.07565500  0.76926900  1
  C  226  1  0.88452900  0.10038300  0.75275700  1
  C  227  1  0.91367100  0.09991900  0.74853300  1
  C  228  1  0.92394300  0.10479200  0.72873100  1
  C  229  1  0.90430900  0.10979400  0.71313500  1
  C  230  1  0.87507900  0.11058600  0.71748500  1
  C  247  1  0.81241400  0.21312900  0.16410700  1
  C  248  1  0.83918200  0.22297700  0.16369100  1
  C  249  1  0.84501100  0.23905200  0.14992400  1
  C  250  1  0.82446100  0.24581300  0.13559300  1
  C  251  1  0.79727200  0.23659300  0.13652800  1
  C  252  1  0.79150500  0.22037700  0.15027300  1
  C  254  1  0.81001000  0.28406400  0.12938200  1
  C  255  1  0.78576700  0.29162700  0.11895300  1
  C  256  1  0.76753000  0.30594200  0.12831800  1
  C  257  1  0.77264800  0.31274200  0.14858600  1
  C  258  1  0.79640500  0.30505300  0.15927000  1
  C  259  1  0.81485100  0.29099900  0.14977300  1
  C  260  1  0.86473100  0.27181200  0.11888100  1
  C  261  1  0.82323500  0.26020200  0.09526100  1
  C  262  1  0.82608000  0.27605000  0.08041300  1
  C  263  1  0.82239600  0.27202300  0.05937300  1
  C  264  1  0.81587600  0.25197900  0.05251600  1
  C  265  1  0.81337000  0.23599700  0.06706300  1
  C  266  1  0.81735300  0.24002700  0.08812800  1
  C  267  1  0.88455200  0.25660000  0.11277300  1
  C  268  1  0.91369300  0.26082200  0.11227800  1
  C  269  1  0.92397500  0.28062300  0.11714800  1
  C  270  1  0.90435300  0.29621600  0.12218300  1
  C  271  1  0.87512200  0.29187200  0.12298500  1
  C  288  1  0.81240600  0.78376100  0.85758900  1
  C  289  1  0.83916900  0.77390300  0.85803200  1
  C  290  1  0.84500400  0.75788000  0.87185600  1
  C  291  1  0.82446100  0.75117200  0.88621800  1
  C  292  1  0.79727800  0.76039900  0.88526200  1
  C  293  1  0.79150700  0.77656700  0.87145900  1
  C  295  1  0.81000800  0.71293200  0.89252400  1
  C  296  1  0.78574400  0.70541500  0.90296000  1
  C  297  1  0.76747200  0.69111500  0.89360500  1
  C  298  1  0.77259800  0.68426900  0.87335500  1
  C  299  1  0.79637200  0.69191700  0.86266400  1
  C  300  1  0.81484000  0.70596900  0.87214100  1
  C  301  1  0.86473600  0.72521500  0.90298000  1
  C  302  1  0.82324300  0.73686600  0.92658600  1
  C  303  1  0.82612000  0.72104900  0.94146300  1
  C  304  1  0.82243800  0.72511000  0.96249500  1
  C  305  1  0.81589300  0.74516200  0.96931200  1
  C  306  1  0.81333600  0.76111600  0.95474000  1
  C  307  1  0.81732100  0.75705100  0.93368100  1
  C  308  1  0.88454800  0.74044100  0.90907200  1
  C  309  1  0.91369500  0.73622800  0.90954900  1
  C  310  1  0.92398300  0.71641900  0.90471700  1
  C  311  1  0.90436200  0.70081600  0.89971400  1
  C  312  1  0.87513000  0.70514900  0.89892300  1
  C  329  1  0.80572800  0.84364100  0.79572800  1
  C  330  1  0.81945900  0.83686600  0.77768700  1
  C  331  1  0.82500200  0.85066100  0.76157600  1
  C  332  1  0.81802700  0.87180500  0.76335700  1
  C  333  1  0.80308100  0.87823600  0.78116600  1
  C  334  1  0.79713000  0.86435800  0.79722800  1
  C  336  1  0.80568500  0.87891300  0.72509900  1
  C  337  1  0.77585000  0.87974400  0.72750100  1
  C  338  1  0.75764800  0.87101000  0.71283200  1
  C  339  1  0.76863600  0.86088900  0.69534500  1
  C  340  1  0.79833100  0.85962100  0.69301600  1
  C  341  1  0.81655900  0.86837400  0.70772500  1
  C  342  1  0.86076100  0.88706100  0.73851300  1
  C  343  1  0.82033600  0.91219500  0.74980600  1
  C  344  1  0.80254800  0.92501800  0.73780500  1
  C  345  1  0.79888600  0.94589300  0.74272600  1
  C  346  1  0.81360300  0.95468400  0.75943700  1
  C  347  1  0.83214400  0.94231100  0.77108700  1
  C  348  1  0.83518800  0.92130200  0.76646800  1
  C  349  1  0.88087200  0.87868800  0.75231100  1
  C  350  1  0.91001000  0.87954900  0.74808700  1
  C  351  1  0.92071800  0.88904100  0.73003600  1
  C  352  1  0.90053800  0.89778800  0.71645300  1
  C  353  1  0.87129900  0.89716000  0.72077500  1
  C  370  1  0.80575300  0.15310700  0.22578600  1
  C  371  1  0.81925600  0.15999700  0.24387400  1
  C  372  1  0.82479000  0.14626700  0.26004700  1
  C  373  1  0.81806700  0.12507600  0.25827200  1
  C  374  1  0.80336500  0.11852700  0.24039600  1
  C  375  1  0.79740300  0.13234000  0.22428400  1
  C  377  1  0.80565400  0.11808500  0.29656400  1
  C  378  1  0.77582200  0.11735300  0.29408500  1
  C  379  1  0.75759300  0.12606600  0.30874900  1
  C  380  1  0.76854500  0.13606600  0.32631700  1
  C  381  1  0.79823600  0.13724000  0.32872700  1
  C  382  1  0.81648900  0.12850500  0.31402300  1
  C  383  1  0.86076500  0.10996000  0.28324800  1
  C  384  1  0.82039600  0.08475000  0.27194800  1
  C  385  1  0.80228700  0.07200900  0.28377800  1
  C  386  1  0.79854700  0.05114600  0.27883200  1
  C  387  1  0.81353500  0.04226200  0.26229300  1
  C  388  1  0.83240000  0.05455700  0.25083200  1
  C  389  1  0.83548900  0.07556500  0.25544300  1
  C  390  1  0.88089100  0.11848900  0.26956100  1
  C  391  1  0.91001900  0.11765700  0.27382700  1
  C  392  1  0.92072200  0.10803100  0.29181000  1
  C  393  1  0.90052500  0.09916000  0.30529900  1
  C  394  1  0.87129500  0.09977200  0.30094000  1
  C  411  1  0.80579600  0.21353500  0.85619100  1
  C  412  1  0.81947200  0.23158500  0.84938100  1
  C  413  1  0.82494900  0.24774000  0.86314200  1
  C  414  1  0.81802900  0.24597000  0.88429900  1
  C  415  1  0.80314500  0.22814300  0.89076300  1
  C  416  1  0.79719800  0.21206300  0.87690800  1
  C  418  1  0.80567900  0.28424300  0.89135100  1
  C  419  1  0.77584100  0.28181700  0.89211000  1
  C  420  1  0.75764800  0.29648500  0.88336600  1
  C  421  1  0.76864600  0.31400100  0.87330400  1
  C  422  1  0.79834000  0.31637100  0.87211900  1
  C  423  1  0.81655600  0.30166200  0.88088400  1
  C  424  1  0.86075300  0.27084100  0.89952500  1
  C  425  1  0.82030400  0.25955900  0.92466300  1
  C  426  1  0.80233100  0.27146400  0.93743800  1
  C  427  1  0.79856200  0.26650000  0.95829300  1
  C  428  1  0.81344600  0.24989500  0.96714200  1
  C  429  1  0.83216500  0.23834400  0.95481500  1
  C  430  1  0.83525200  0.24296500  0.93380900  1
  C  431  1  0.88086100  0.25707200  0.89110200  1
  C  432  1  0.91000000  0.26129300  0.89195700  1
  C  433  1  0.92073300  0.27930500  0.90151300  1
  C  434  1  0.90055200  0.29286600  0.91029700  1
  C  435  1  0.87131000  0.28855100  0.90966100  1
  C  452  1  0.80575100  0.78338200  0.16568500  1
  C  453  1  0.81932100  0.76528800  0.17248800  1
  C  454  1  0.82483800  0.74916600  0.15869800  1
  C  455  1  0.81806100  0.75100600  0.13752200  1
  C  456  1  0.80330400  0.76888700  0.13105500  1
  C  457  1  0.79734200  0.78494600  0.14493300  1
  C  459  1  0.80566200  0.71273800  0.13041700  1
  C  460  1  0.77583100  0.71521900  0.12970900  1
  C  461  1  0.75761400  0.70055900  0.13844500  1
  C  462  1  0.76858100  0.68299700  0.14844400  1
  C  463  1  0.79827200  0.68059500  0.14961000  1
  C  464  1  0.81651400  0.69528700  0.14084100  1
  C  465  1  0.86075300  0.72610700  0.12230200  1
  C  466  1  0.82033800  0.73746200  0.09714600  1
  C  467  1  0.80224200  0.72565000  0.08437800  1
  C  468  1  0.79849000  0.73064500  0.06352900  1
  C  469  1  0.81344200  0.74721900  0.05467500  1
  C  470  1  0.83229000  0.75866200  0.06700300  1
  C  471  1  0.83538500  0.75401000  0.08800100  1
  C  472  1  0.88087200  0.73980100  0.13082700  1
  C  473  1  0.91000400  0.73555500  0.12996800  1
  C  474  1  0.92071000  0.71757200  0.12034500  1
  C  475  1  0.90051800  0.70407800  0.11147100  1
  C  476  1  0.87128500  0.70843100  0.11209000  1
  C  493  1  0.15806000  0.15320500  0.79582800  1
  C  494  1  0.14437800  0.16000900  0.77777700  1
  C  495  1  0.13886900  0.14623800  0.76163800  1
  C  496  1  0.14576600  0.12507900  0.76341800  1
  C  497  1  0.16064700  0.11861700  0.78124600  1
  C  498  1  0.16660200  0.13247600  0.79732200  1
  C  500  1  0.15813300  0.11802500  0.72514100  1
  C  501  1  0.18796800  0.11727500  0.72758600  1
  C  502  1  0.20617300  0.12601000  0.71292000  1
  C  503  1  0.19518700  0.13606700  0.69539600  1
  C  504  1  0.16549400  0.13728200  0.69303300  1
  C  505  1  0.14726700  0.12852300  0.70773900  1
  C  506  1  0.10305900  0.10986400  0.73853000  1
  C  507  1  0.14349400  0.08471600  0.74982600  1
  C  508  1  0.16149100  0.07194800  0.73793300  1
  C  509  1  0.16524200  0.05108900  0.74288600  1
  C  510  1  0.15035700  0.04223300  0.75948800  1
  C  511  1  0.13161500  0.05455800  0.77102400  1
  C  512  1  0.12853700  0.07556600  0.76641400  1
  C  513  1  0.08293900  0.11830100  0.75227900  1
  C  514  1  0.05380600  0.11745600  0.74803600  1
  C  515  1  0.04310200  0.10790800  0.73001300  1
  C  516  1  0.06328900  0.09910500  0.71647100  1
  C  517  1  0.09252500  0.09972100  0.72081400  1
  C  534  1  0.15805800  0.84374400  0.22594900  1
  C  535  1  0.14436400  0.83694100  0.24399600  1
  C  536  1  0.13888100  0.85070700  0.26014500  1
  C  537  1  0.14580100  0.87186200  0.25837100  1
  C  538  1  0.16068900  0.87832400  0.24054600  1
  C  539  1  0.16664100  0.86446500  0.22446800  1
  C  541  1  0.15817100  0.87892200  0.29664700  1
  C  542  1  0.18800600  0.87967300  0.29419800  1
  C  543  1  0.20621300  0.87093600  0.30886500  1
  C  544  1  0.19523000  0.86089100  0.32639400  1
  C  545  1  0.16553800  0.85968400  0.32876600  1
  C  546  1  0.14730800  0.86843400  0.31405500  1
  C  547  1  0.10309500  0.88709200  0.28325500  1
  C  548  1  0.14354100  0.91222600  0.27195400  1
  C  549  1  0.16154100  0.92499300  0.28384600  1
  C  550  1  0.16530000  0.94585200  0.27888800  1
  C  551  1  0.15043100  0.95470000  0.26227200  1
  C  552  1  0.13169700  0.94237600  0.25073400  1
  C  553  1  0.12859700  0.92137100  0.25535800  1
  C  554  1  0.08297000  0.87867600  0.26949500  1
  C  555  1  0.05383700  0.87953200  0.27373400  1
  C  556  1  0.04313600  0.88909500  0.29174900  1
  C  557  1  0.06332500  0.89788500  0.30529800  1
  C  558  1  0.09256400  0.89724200  0.30096600  1
  C  575  1  0.15812600  0.78345600  0.85620200  1
  C  576  1  0.14446500  0.76540800  0.84937100  1
  C  577  1  0.13892900  0.74926100  0.86312800  1
  C  578  1  0.14582900  0.75101600  0.88428800  1
  C  579  1  0.16070000  0.76883900  0.89077400  1
  C  580  1  0.16667100  0.78492700  0.87693100  1
  C  582  1  0.15817400  0.71273100  0.89131900  1
  C  583  1  0.18801000  0.71516700  0.89209100  1
  C  584  1  0.20621600  0.70050300  0.88335100  1
  C  585  1  0.19522800  0.68300400  0.87325500  1
  C  586  1  0.16553600  0.68065200  0.87201600  1
  C  587  1  0.14730500  0.69533500  0.88081000  1
  C  588  1  0.10310200  0.72612900  0.89948200  1
  C  589  1  0.14352800  0.73739000  0.92464100  1
  C  590  1  0.16147700  0.72546100  0.93741100  1
  C  591  1  0.16518700  0.73037900  0.95828400  1
  C  592  1  0.15035500  0.74701000  0.96713000  1
  C  593  1  0.13166900  0.75858600  0.95480400  1
  C  594  1  0.12859700  0.75399000  0.93379400  1
  C  595  1  0.08298700  0.73989900  0.89107300  1
  C  596  1  0.05384800  0.73568300  0.89195600  1
  C  597  1  0.04313900  0.71765300  0.90148700  1
  C  598  1  0.06332300  0.70408600  0.91025500  1
  C  599  1  0.09256300  0.70840700  0.90961200  1
  C  616  1  0.15800200  0.21354000  0.16568100  1
  C  617  1  0.14424500  0.23156800  0.17246400  1
  C  618  1  0.13875400  0.24770700  0.15869000  1
  C  619  1  0.14576800  0.24595500  0.13754900  1
  C  620  1  0.16072500  0.22815100  0.13111000  1
  C  621  1  0.16667500  0.21208000  0.14497800  1
  C  623  1  0.15813500  0.28422400  0.13051500  1
  C  624  1  0.18797200  0.28180400  0.12975000  1
  C  625  1  0.20615500  0.29647300  0.13850500  1
  C  626  1  0.19514200  0.31396700  0.14859600  1
  C  627  1  0.16544600  0.31630200  0.14982600  1
  C  628  1  0.14723600  0.30161200  0.14102000  1
  C  629  1  0.10307400  0.27082400  0.12228100  1
  C  630  1  0.14356600  0.25955300  0.09718200  1
  C  631  1  0.16149900  0.27150300  0.08441900  1
  C  632  1  0.16529000  0.26656000  0.06356000  1
  C  633  1  0.15047900  0.24992600  0.05470300  1
  C  634  1  0.13180200  0.23833000  0.06701800  1
  C  635  1  0.12869100  0.24292900  0.08802600  1
  C  636  1  0.08295000  0.25703500  0.13064700  1
  C  637  1  0.05381400  0.26125900  0.12976200  1
  C  638  1  0.04312200  0.27931500  0.12027200  1
  C  639  1  0.06331300  0.29289200  0.11153100  1
  C  640  1  0.09255100  0.28856200  0.11216900  1
  C  657  1  0.65530000  0.64975600  0.72420200  1
  C  658  1  0.62807000  0.64873400  0.73322700  1
  C  659  1  0.62270600  0.63601800  0.75021100  1
  C  660  1  0.64413900  0.62325500  0.75851900  1
  C  661  1  0.67160500  0.62462600  0.74975700  1
  C  662  1  0.67710100  0.63764000  0.73288700  1
  C  664  1  0.65878500  0.61889700  0.79720400  1
  C  665  1  0.68290900  0.60877200  0.80533000  1
  C  666  1  0.70060200  0.61845100  0.81976800  1
  C  667  1  0.69533900  0.63886300  0.82618500  1
  C  668  1  0.67188900  0.64931700  0.81760200  1
  C  669  1  0.65394000  0.63951400  0.80338800  1
  C  670  1  0.60410400  0.60737600  0.78520600  1
  C  671  1  0.64625300  0.58380800  0.77475100  1
  C  672  1  0.64402400  0.56969500  0.79127800  1
  C  673  1  0.64736500  0.54850500  0.78807700  1
  C  674  1  0.65230800  0.54055300  0.76815300  1
  C  675  1  0.65430600  0.55450100  0.75155700  1
  C  676  1  0.65126200  0.57579000  0.75479500  1
  C  677  1  0.58479400  0.59933900  0.77054900  1
  C  678  1  0.55557000  0.59885800  0.77444700  1
  C  679  1  0.54443900  0.60597000  0.79333700  1
  C  680  1  0.56365300  0.61304100  0.80844300  1
  C  681  1  0.59301600  0.61357400  0.80450500  1
  C  698  1  0.65522800  0.34721900  0.29766500  1
  C  699  1  0.62799200  0.34825600  0.28865400  1
  C  700  1  0.62261900  0.36098800  0.27168100  1
  C  701  1  0.64405800  0.37373800  0.26336300  1
  C  702  1  0.67152500  0.37236900  0.27212900  1
  C  703  1  0.67702500  0.35934600  0.28899000  1
  C  705  1  0.65875300  0.37810100  0.22469500  1
  C  706  1  0.68285800  0.38824300  0.21655900  1
  C  707  1  0.70058100  0.37857000  0.20213600  1
  C  708  1  0.69537100  0.35814300  0.19575000  1
  C  709  1  0.67192700  0.34767600  0.20432400  1
  C  710  1  0.65394800  0.35747600  0.21851800  1
  C  711  1  0.60404600  0.38959100  0.23663700  1
  C  712  1  0.64614700  0.41318500  0.24713800  1
  C  713  1  0.64392900  0.42730600  0.23061700  1
  C  714  1  0.64729500  0.44849400  0.23382000  1
  C  715  1  0.65226400  0.45644300  0.25374100  1
  C  716  1  0.65419800  0.44249100  0.27033700  1
  C  717  1  0.65117500  0.42120200  0.26709100  1
  C  718  1  0.58469600  0.39762200  0.25127100  1
  C  719  1  0.55548100  0.39808000  0.24734100  1
  C  720  1  0.54440100  0.39096900  0.22843700  1
  C  721  1  0.56365100  0.38390300  0.21335400  1
  C  722  1  0.59300800  0.38338800  0.21732500  1
  C  739  1  0.65520000  0.28534100  0.66212500  1
  C  740  1  0.62796000  0.27633500  0.66108700  1
  C  741  1  0.62258300  0.25935900  0.64836300  1
  C  742  1  0.64402400  0.25102600  0.63562200  1
  C  743  1  0.67149300  0.25978400  0.63699300  1
  C  744  1  0.67700000  0.27664700  0.65001400  1
  C  746  1  0.65870500  0.21235100  0.63129700  1
  C  747  1  0.68279400  0.20418900  0.62115600  1
  C  748  1  0.70051300  0.18977400  0.63084400  1
  C  749  1  0.69531400  0.18342000  0.65128200  1
  C  750  1  0.67189100  0.19202600  0.66174900  1
  C  751  1  0.65391000  0.20620800  0.65193300  1
  C  752  1  0.60400400  0.22429600  0.61979300  1
  C  753  1  0.64611500  0.23476000  0.59619100  1
  C  754  1  0.64387800  0.21822600  0.58208500  1
  C  755  1  0.64726800  0.22140300  0.56089400  1
  C  756  1  0.65223000  0.24131800  0.55292900  1
  C  757  1  0.65422400  0.25792500  0.56686500  1
  C  758  1  0.65117500  0.25470300  0.58815500  1
  C  759  1  0.58466400  0.23892500  0.61173900  1
  C  760  1  0.55544800  0.23500500  0.61128000  1
  C  761  1  0.54435400  0.21611600  0.61842300  1
  C  762  1  0.56359400  0.20103400  0.62550500  1
  C  763  1  0.59295300  0.20499700  0.62602200  1
  C  780  1  0.65527400  0.71174300  0.35965700  1
  C  781  1  0.62804300  0.72076000  0.36069900  1
  C  782  1  0.62267800  0.73773400  0.37342900  1
  C  783  1  0.64412800  0.74605600  0.38616700  1
  C  784  1  0.67159500  0.73729400  0.38478500  1
  C  785  1  0.67708400  0.72042900  0.37176400  1
  C  787  1  0.65878700  0.78473600  0.39050900  1
  C  788  1  0.68289400  0.79288300  0.40064200  1
  C  789  1  0.70060200  0.80730600  0.39095600  1
  C  790  1  0.69534500  0.81371800  0.37054400  1
  C  791  1  0.67189100  0.80513800  0.36009100  1
  C  792  1  0.65394000  0.79092500  0.36989400  1
  C  793  1  0.60410600  0.77275400  0.40204900  1
  C  794  1  0.64626100  0.76229600  0.42560900  1
  C  795  1  0.64405000  0.77882300  0.43972300  1
  C  796  1  0.64742700  0.77563000  0.46091000  1
  C  797  1  0.65239500  0.75571000  0.46886600  1
  C  798  1  0.65437600  0.73911500  0.45491800  1
  C  799  1  0.65134000  0.74235100  0.43362800  1
  C  800  1  0.58479800  0.75810800  0.41010700  1
  C  801  1  0.55557300  0.76200400  0.41057400  1
  C  802  1  0.54444300  0.78089100  0.40345800  1
  C  803  1  0.56365700  0.79598800  0.39636900  1
  C  804  1  0.59302100  0.79204900  0.39583500  1
  C  821  1  0.30867800  0.34725100  0.72414500  1
  C  822  1  0.33591600  0.34832400  0.73314600  1
  C  823  1  0.34127600  0.36107400  0.75010600  1
  C  824  1  0.31981200  0.37380300  0.75842600  1
  C  825  1  0.29234500  0.37240100  0.74966900  1
  C  826  1  0.28686200  0.35936000  0.73281900  1
  C  828  1  0.30511400  0.37814800  0.79709700  1
  C  829  1  0.28103100  0.38829700  0.80526200  1
  C  830  1  0.26331200  0.37861500  0.81968200  1
  C  831  1  0.26849300  0.35816900  0.82601900  1
  C  832  1  0.29193000  0.34770300  0.81743100  1
  C  833  1  0.30991500  0.35751800  0.80325100  1
  C  834  1  0.35980700  0.38968200  0.78515000  1
  C  835  1  0.31765100  0.41324300  0.77465000  1
  C  836  1  0.31989900  0.42736500  0.79116900  1
  C  837  1  0.31653000  0.44855200  0.78796500  1
  C  838  1  0.31157400  0.45650000  0.76804100  1
  C  839  1  0.30962100  0.44254600  0.75144800  1
  C  840  1  0.31260800  0.42125400  0.75469600  1
  C  841  1  0.37913800  0.39774900  0.77052700  1
  C  842  1  0.40835700  0.39820300  0.77444400  1
  C  843  1  0.41945900  0.39106300  0.79333200  1
  C  844  1  0.40022100  0.38396600  0.80840800  1
  C  845  1  0.37086200  0.38344600  0.80444700  1
  C  862  1  0.30859500  0.64970200  0.29776500  1
  C  863  1  0.33583100  0.64869400  0.28875000  1
  C  864  1  0.34123200  0.63596100  0.27178500  1
  C  865  1  0.31980300  0.62320900  0.26345200  1
  C  866  1  0.29232600  0.62457500  0.27219800  1
  C  867  1  0.28680700  0.63758700  0.28906500  1
  C  869  1  0.30515700  0.61887100  0.22477200  1
  C  870  1  0.28109500  0.60871000  0.21658800  1
  C  871  1  0.26338200  0.61838900  0.20216200  1
  C  872  1  0.26856200  0.63883400  0.19581900  1
  C  873  1  0.29197800  0.64930800  0.20442400  1
  C  874  1  0.30995100  0.63950500  0.21862000  1
  C  875  1  0.35984900  0.60737300  0.23674000  1
  C  876  1  0.31772300  0.58377400  0.24721000  1
  C  877  1  0.31999400  0.56966400  0.23068400  1
  C  878  1  0.31664000  0.54847200  0.23387400  1
  C  879  1  0.31167000  0.54051300  0.25379200  1
  C  880  1  0.30969500  0.55445400  0.27039300  1
  C  881  1  0.31270400  0.57574700  0.26716000  1
  C  882  1  0.37918400  0.59933500  0.25137900  1
  C  883  1  0.40840300  0.59887900  0.24746400  1
  C  884  1  0.41950300  0.60601300  0.22857400  1
  C  885  1  0.40026500  0.61308200  0.21348300  1
  C  886  1  0.37090400  0.61359400  0.21744100  1
  C  903  1  0.30857000  0.71177500  0.66216600  1
  C  904  1  0.33581000  0.72077800  0.66113400  1
  C  905  1  0.34119800  0.73774500  0.64839900  1
  C  906  1  0.31976500  0.74606700  0.63564500  1
  C  907  1  0.29228600  0.73732700  0.63702700  1
  C  908  1  0.28677300  0.72046600  0.65005100  1
  C  910  1  0.30512500  0.78474600  0.63128900  1
  C  911  1  0.28103100  0.79290300  0.62114800  1
  C  912  1  0.26334400  0.80734900  0.63082300  1
  C  913  1  0.26855800  0.81371600  0.65125600  1
  C  914  1  0.29199700  0.80512700  0.66171500  1
  C  915  1  0.30995800  0.79092200  0.65190900  1
  C  916  1  0.35980400  0.77275900  0.61976800  1
  C  917  1  0.31764900  0.76228100  0.59620000  1
  C  918  1  0.31990100  0.77880000  0.58207700  1
  C  919  1  0.31654300  0.77559500  0.56088800  1
  C  920  1  0.31157600  0.75567000  0.55294300  1
  C  921  1  0.30962700  0.73907800  0.56689500  1
  C  922  1  0.31263400  0.74232400  0.58818600  1
  C  923  1  0.37912500  0.75811100  0.61172800  1
  C  924  1  0.40834800  0.76201500  0.61126500  1
  C  925  1  0.41946500  0.78090900  0.61837400  1
  C  926  1  0.40024000  0.79600500  0.62544900  1
  C  927  1  0.37087700  0.79205800  0.62597600  1
  C  944  1  0.30864000  0.28522600  0.35961800  1
  C  945  1  0.33587400  0.27621200  0.36066600  1
  C  946  1  0.34124700  0.25925900  0.37342400  1
  C  947  1  0.31980100  0.25095400  0.38617800  1
  C  948  1  0.29233000  0.25970400  0.38478000  1
  C  949  1  0.28683400  0.27655300  0.37173800  1
  C  951  1  0.30512900  0.21228000  0.39055200  1
  C  952  1  0.28103500  0.20412700  0.40069500  1
  C  953  1  0.26332700  0.18970000  0.39101400  1
  C  954  1  0.26854100  0.18333200  0.37058200  1
  C  955  1  0.29197200  0.19192500  0.36011500  1
  C  956  1  0.30994300  0.20612000  0.36992400  1
  C  957  1  0.35981300  0.22425300  0.40206900  1
  C  958  1  0.31766100  0.23475800  0.42562900  1
  C  959  1  0.31991600  0.21824700  0.43976100  1
  C  960  1  0.31654300  0.22146200  0.46094700  1
  C  961  1  0.31159300  0.24139200  0.46888100  1
  C  962  1  0.30963800  0.25797900  0.45492100  1
  C  963  1  0.31264600  0.25471900  0.43363400  1
  C  964  1  0.37914000  0.23888800  0.41012400  1
  C  965  1  0.40836100  0.23497700  0.41058000  1
  C  966  1  0.41946700  0.21608200  0.40346400  1
  C  967  1  0.40023300  0.20099900  0.39637500  1
  C  968  1  0.37087300  0.20494600  0.39586900  1
  C  985  1  0.30899600  0.34426600  0.29725800  1
  C  986  1  0.33520000  0.34243600  0.28687700  1
  C  987  1  0.34212400  0.35545100  0.27042000  1
  C  988  1  0.32334200  0.37114700  0.26395700  1
  C  989  1  0.29637700  0.37211800  0.27355600  1
  C  990  1  0.28950200  0.35916100  0.29019600  1
  C  992  1  0.31046400  0.37761400  0.22550400  1
  C  993  1  0.28531300  0.38788900  0.21951800  1
  C  994  1  0.26662200  0.37910900  0.20516100  1
  C  995  1  0.27206700  0.35956600  0.19643000  1
  C  996  1  0.29695700  0.34914400  0.20271200  1
  C  997  1  0.31560600  0.35786400  0.21712500  1
  C  998  1  0.36568800  0.38623500  0.23865600  1
  C  999  1  0.32548100  0.41134300  0.24869700  1
  C  1000  1  0.32873600  0.42534000  0.23215600  1
  C  1001  1  0.32548100  0.44656300  0.23514300  1
  C  1002  1  0.31891600  0.45458400  0.25477800  1
  C  1003  1  0.31595200  0.44076900  0.27141200  1
  C  1004  1  0.31969100  0.41948600  0.26847800  1
  C  1005  1  0.38531400  0.39093700  0.25446400  1
  C  1006  1  0.41456400  0.39125100  0.25062200  1
  C  1007  1  0.42541900  0.38774300  0.23064100  1
  C  1008  1  0.40583300  0.38407300  0.21458300  1
  C  1009  1  0.37648500  0.38331400  0.21852000  1
  C  1026  1  0.30892400  0.65265200  0.72442700  1
  C  1027  1  0.33516000  0.65448900  0.73476400  1
  C  1028  1  0.34211500  0.64150300  0.75123900  1
  C  1029  1  0.32332500  0.62584500  0.75777800  1
  C  1030  1  0.29633200  0.62487200  0.74822000  1
  C  1031  1  0.28942700  0.63779300  0.73155800  1
  C  1033  1  0.31049200  0.61941000  0.79624200  1
  C  1034  1  0.28539100  0.60910700  0.80229100  1
  C  1035  1  0.26671500  0.61788000  0.81666500  1
  C  1036  1  0.27212800  0.63744400  0.82535700  1
  C  1037  1  0.29698700  0.64788300  0.81903900  1
  C  1038  1  0.31560800  0.63917400  0.80459900  1
  C  1039  1  0.36571100  0.61080300  0.78308100  1
  C  1040  1  0.32552200  0.58566900  0.77307100  1
  C  1041  1  0.32882500  0.57168000  0.78961300  1
  C  1042  1  0.32555100  0.55045500  0.78664800  1
  C  1043  1  0.31889700  0.54242300  0.76703300  1
  C  1044  1  0.31591100  0.55622600  0.75039100  1
  C  1045  1  0.31965100  0.57751000  0.75330700  1
  C  1046  1  0.38533700  0.60607300  0.76727900  1
  C  1047  1  0.41458800  0.60575700  0.77112100  1
  C  1048  1  0.42545000  0.60930300  0.79109300  1
  C  1049  1  0.40586900  0.61301900  0.80714100  1
  C  1050  1  0.37652100  0.61377100  0.80320600  1
  C  1067  1  0.30895100  0.71206600  0.35678700  1
  C  1068  1  0.33519600  0.72239600  0.35497000  1
  C  1069  1  0.34213200  0.73887800  0.36795100  1
  C  1070  1  0.32331800  0.74542800  0.38358900  1
  C  1071  1  0.29632400  0.73586900  0.38454800  1
  C  1072  1  0.28942500  0.71921400  0.37161800  1
  C  1074  1  0.31048700  0.78389600  0.39001700  1
  C  1075  1  0.28539100  0.78996400  0.40031400  1
  C  1076  1  0.26673200  0.80434200  0.39153600  1
  C  1077  1  0.27215800  0.81302900  0.37197200  1
  C  1078  1  0.29700000  0.80668300  0.36152900  1
  C  1079  1  0.31561300  0.79224300  0.37025000  1
  C  1080  1  0.36569700  0.77072000  0.39865300  1
  C  1081  1  0.32547500  0.76072400  0.42376700  1
  C  1082  1  0.32878000  0.77726400  0.43775800  1
  C  1083  1  0.32550100  0.77429900  0.45898100  1
  C  1084  1  0.31883500  0.75468600  0.46701300  1
  C  1085  1  0.31582900  0.73804800  0.45320700  1
  C  1086  1  0.31958700  0.74096100  0.43192400  1
  C  1087  1  0.38530300  0.75491300  0.40340600  1
  C  1088  1  0.41455800  0.75874000  0.40373700  1
  C  1089  1  0.42544200  0.77870100  0.40016700  1
  C  1090  1  0.40588000  0.79475500  0.39642300  1
  C  1091  1  0.37652500  0.79083600  0.39566600  1
  C  1108  1  0.30898700  0.28484900  0.66513500  1
  C  1109  1  0.33520600  0.27448400  0.66692600  1
  C  1110  1  0.34211100  0.25802800  0.65390400  1
  C  1111  1  0.32328400  0.25154000  0.63824600  1
  C  1112  1  0.29631300  0.26113200  0.63730900  1
  C  1113  1  0.28945500  0.27777000  0.65027300  1
  C  1115  1  0.31041700  0.21308500  0.63179200  1
  C  1116  1  0.28531300  0.20703600  0.62149500  1
  C  1117  1  0.26664100  0.19266800  0.63028100  1
  C  1118  1  0.27209200  0.18394800  0.64982700  1
  C  1119  1  0.29695900  0.19026400  0.66025500  1
  C  1120  1  0.31557200  0.20470700  0.65154100  1
  C  1121  1  0.36562000  0.22625500  0.62311800  1
  C  1122  1  0.32536900  0.23628000  0.59804700  1
  C  1123  1  0.32864500  0.21974900  0.58404400  1
  C  1124  1  0.32535900  0.22273300  0.56282400  1
  C  1125  1  0.31873100  0.24235800  0.55480800  1
  C  1126  1  0.31573100  0.25898500  0.56862700  1
  C  1127  1  0.31948800  0.25605200  0.58990800  1
  C  1128  1  0.38522900  0.24206400  0.61838500  1
  C  1129  1  0.41448400  0.23823300  0.61805900  1
  C  1130  1  0.42536300  0.21826900  0.62162200  1
  C  1131  1  0.40579500  0.20221300  0.62534200  1
  C  1132  1  0.37644300  0.20613200  0.62609100  1
  C  1149  1  0.65489500  0.65267000  0.29732100  1
  C  1150  1  0.62867000  0.65447100  0.28696300  1
  C  1151  1  0.62175700  0.64146000  0.27050000  1
  C  1152  1  0.64057900  0.62580600  0.26399500  1
  C  1153  1  0.66755000  0.62485500  0.27358300  1
  C  1154  1  0.67441900  0.63780900  0.29023000  1
  C  1156  1  0.65343100  0.61939300  0.22552900  1
  C  1157  1  0.67852100  0.60909200  0.21944900  1
  C  1158  1  0.69715900  0.61787100  0.20505500  1
  C  1159  1  0.69172500  0.63744100  0.19638300  1
  C  1160  1  0.66687600  0.64787400  0.20272900  1
  C  1161  1  0.64827800  0.63915400  0.21717800  1
  C  1162  1  0.59823500  0.61070800  0.23869900  1
  C  1163  1  0.63849200  0.58562400  0.24869700  1
  C  1164  1  0.63519500  0.57163800  0.23215200  1
  C  1165  1  0.63847500  0.55041500  0.23511400  1
  C  1166  1  0.64510000  0.54237700  0.25473000  1
  C  1167  1  0.64807500  0.55617800  0.27137500  1
  C  1168  1  0.64434600  0.57746400  0.26846200  1
  C  1169  1  0.57862600  0.60596500  0.25450700  1
  C  1170  1  0.54937100  0.60564400  0.25067700  1
  C  1171  1  0.53849200  0.60922900  0.23071600  1
  C  1172  1  0.55805800  0.61295900  0.21466200  1
  C  1173  1  0.58741000  0.61370200  0.21858100  1
  C  1190  1  0.65488900  0.34439000  0.72446500  1
  C  1191  1  0.62867200  0.34254900  0.73483200  1
  C  1192  1  0.62174400  0.35553400  0.75130900  1
  C  1193  1  0.64054100  0.37119900  0.75782300  1
  C  1194  1  0.66751400  0.37217800  0.74824000  1
  C  1195  1  0.67440000  0.35924700  0.73157900  1
  C  1197  1  0.65339500  0.37760700  0.79629100  1
  C  1198  1  0.67849500  0.38790900  0.80234500  1
  C  1199  1  0.69716500  0.37912700  0.81671700  1
  C  1200  1  0.69174600  0.35956300  0.82540200  1
  C  1201  1  0.66687900  0.34913100  0.81908800  1
  C  1202  1  0.64825700  0.35784900  0.80465100  1
  C  1203  1  0.59818200  0.38626200  0.78313000  1
  C  1204  1  0.63840500  0.41137100  0.77313600  1
  C  1205  1  0.63512100  0.42535100  0.78968800  1
  C  1206  1  0.63839500  0.44657500  0.78673400  1
  C  1207  1  0.64501400  0.45462100  0.76711900  1
  C  1208  1  0.64796100  0.44082900  0.75046500  1
  C  1209  1  0.64422100  0.41954200  0.75336800  1
  C  1210  1  0.57856300  0.39098600  0.76732400  1
  C  1211  1  0.54931000  0.39130600  0.77116000  1
  C  1212  1  0.53844100  0.38775800  0.79112900  1
  C  1213  1  0.55801500  0.38403900  0.80718100  1
  C  1214  1  0.58736600  0.38328500  0.80325300  1
  C  1231  1  0.65490400  0.28488900  0.35673000  1
  C  1232  1  0.62869300  0.27451600  0.35489100  1
  C  1233  1  0.62176300  0.25804800  0.36788800  1
  C  1234  1  0.64055200  0.25155400  0.38356800  1
  C  1235  1  0.66752700  0.26113600  0.38453700  1
  C  1236  1  0.67440400  0.27779500  0.37160400  1
  C  1238  1  0.65338200  0.21308800  0.38998000  1
  C  1239  1  0.67850400  0.20704000  0.40025800  1
  C  1240  1  0.69713400  0.19263900  0.39147900  1
  C  1241  1  0.69168000  0.18395200  0.37191900  1
  C  1242  1  0.66680900  0.19027800  0.36150200  1
  C  1243  1  0.64820600  0.20471800  0.37023100  1
  C  1244  1  0.59818800  0.22626600  0.39866000  1
  C  1245  1  0.63843900  0.23626000  0.42374700  1
  C  1246  1  0.63516600  0.21971200  0.43773300  1
  C  1247  1  0.63844100  0.22267700  0.45895800  1
  C  1248  1  0.64504100  0.24229800  0.46699500  1
  C  1249  1  0.64797100  0.25894800  0.45319500  1
  C  1250  1  0.64424200  0.25603200  0.43190900  1
  C  1251  1  0.57857700  0.24208300  0.40336900  1
  C  1252  1  0.54932400  0.23824800  0.40371200  1
  C  1253  1  0.53844900  0.21827800  0.40018100  1
  C  1254  1  0.55801800  0.20221800  0.39647700  1
  C  1255  1  0.58736800  0.20614000  0.39571400  1
  C  1272  1  0.65490600  0.71204300  0.66508200  1
  C  1273  1  0.62869100  0.72241100  0.66691600  1
  C  1274  1  0.62175700  0.73887300  0.65391100  1
  C  1275  1  0.64054100  0.74536100  0.63822700  1
  C  1276  1  0.66751200  0.73577100  0.63725000  1
  C  1277  1  0.67440600  0.71913200  0.65020500  1
  C  1279  1  0.65340600  0.78382400  0.63179100  1
  C  1280  1  0.67854600  0.78982500  0.62151200  1
  C  1281  1  0.69721800  0.80419900  0.63028700  1
  C  1282  1  0.69176500  0.81292800  0.64982800  1
  C  1283  1  0.66688700  0.80663200  0.66025500  1
  C  1284  1  0.64825700  0.79220000  0.65154100  1
  C  1285  1  0.59818400  0.77066700  0.62316100  1
  C  1286  1  0.63840100  0.76066100  0.59804500  1
  C  1287  1  0.63512300  0.77721500  0.58406700  1
  C  1288  1  0.63840500  0.77426000  0.56284200  1
  C  1289  1  0.64502400  0.75464600  0.55479600  1
  C  1290  1  0.64799000  0.73799300  0.56859100  1
  C  1291  1  0.64422100  0.74089500  0.58987600  1
  C  1292  1  0.57856300  0.75486100  0.61843700  1
  C  1293  1  0.54931200  0.75870300  0.61811200  1
  C  1294  1  0.53845100  0.77868000  0.62163900  1
  C  1295  1  0.55803200  0.79473100  0.62534200  1
  C  1296  1  0.58738100  0.79079800  0.62610200  1
  C  1313  1  0.15119500  0.97611500  0.25942300  1
  C  1314  1  0.17621500  0.98696500  0.25466100  1
  C  1315  1  0.17608300  0.00874400  0.25485900  1
  C  1316  1  0.15060900  0.01878300  0.26072200  1
  C  1320  1  0.20065800  0.01975600  0.25081600  1
  C  1321  1  0.21156500  0.02026800  0.22998500  1
  C  1326  1  0.15112500  0.02081800  0.76236700  1
  C  1327  1  0.17619500  0.00997200  0.76700800  1
  C  1328  1  0.17605100  0.98819300  0.76688700  1
  C  1329  1  0.15050000  0.97814800  0.76122500  1
  C  1333  1  0.20066500  0.97719200  0.77078600  1
  C  1334  1  0.21129400  0.97654900  0.79172600  1
  C  1339  1  0.15107500  0.74982800  0.98854500  1
  C  1340  1  0.17601200  0.75482100  0.99939200  1
  C  1341  1  0.17589200  0.75462200  0.02117200  1
  C  1342  1  0.15052200  0.74853800  0.03121900  1
  C  1346  1  0.20040700  0.75888000  0.03217400  1
  C  1347  1  0.21104900  0.77978600  0.03260900  1
  C  1352  1  0.15122300  0.24708400  0.03329100  1
  C  1353  1  0.17619500  0.24215800  0.02245400  1
  C  1354  1  0.17609000  0.24235100  0.00067400  1
  C  1355  1  0.15069900  0.24837000  0.99061900  1
  C  1359  1  0.20062000  0.23812100  0.98967900  1
  C  1360  1  0.21129300  0.21722200  0.98923900  1
  C  1365  1  0.81270000  0.02084400  0.25940300  1
  C  1366  1  0.78754900  0.01001100  0.25496300  1
  C  1367  1  0.78765900  0.98823000  0.25509000  1
  C  1368  1  0.81328500  0.97817400  0.26055000  1
  C  1372  1  0.76294700  0.97722000  0.25139600  1
  C  1373  1  0.75222200  0.97660000  0.23049700  1
  C  1378  1  0.81293100  0.97608700  0.76230600  1
  C  1379  1  0.78808500  0.98692600  0.76753600  1
  C  1380  1  0.78818700  0.00870800  0.76732400  1
  C  1381  1  0.81342100  0.01875700  0.76094800  1
  C  1385  1  0.76374100  0.01969800  0.77181200  1
  C  1386  1  0.75339600  0.02006300  0.79279800  1
  C  1391  1  0.81266600  0.24700400  0.98855600  1
  C  1392  1  0.78760600  0.24235100  0.99940400  1
  C  1393  1  0.78775500  0.24249400  0.02118300  1
  C  1394  1  0.81329600  0.24818600  0.03122800  1
  C  1398  1  0.76315900  0.23855600  0.03219100  1
  C  1399  1  0.75258400  0.21760100  0.03283600  1
  C  1404  1  0.81263700  0.75013100  0.03326000  1
  C  1405  1  0.78748100  0.75451600  0.02240700  1
  C  1406  1  0.78761900  0.75438200  0.00062700  1
  C  1407  1  0.81327900  0.74896900  0.99058900  1
  C  1411  1  0.76290500  0.75800800  0.98959500  1
  C  1412  1  0.75209700  0.77888300  0.98894200  1
  C  1417  1  0.64766800  0.47614300  0.76457200  1
  C  1418  1  0.66987000  0.48566500  0.75356100  1
  C  1419  1  0.67250200  0.50739700  0.75365500  1
  C  1420  1  0.65228900  0.51893900  0.76506800  1
  C  1424  1  0.69578000  0.51677900  0.74457700  1
  C  1425  1  0.70011000  0.51513100  0.72256500  1
  C  1430  1  0.64772800  0.52085700  0.25728600  1
  C  1431  1  0.66992900  0.51132400  0.26829100  1
  C  1432  1  0.67251900  0.48959000  0.26821100  1
  C  1433  1  0.65226600  0.47805500  0.25683100  1
  C  1437  1  0.69582200  0.48020500  0.27723300  1
  C  1438  1  0.69978600  0.48173000  0.29932100  1
  C  1443  1  0.64766400  0.24486000  0.48851400  1
  C  1444  1  0.66984500  0.25589000  0.49804300  1
  C  1445  1  0.67247800  0.25578000  0.51977500  1
  C  1446  1  0.65223600  0.24439000  0.53131400  1
  C  1450  1  0.69577300  0.26482800  0.52916300  1
  C  1451  1  0.70016800  0.28683400  0.52750700  1
  C  1456  1  0.64769400  0.75210500  0.53327600  1
  C  1457  1  0.66990800  0.74110000  0.52376000  1
  C  1458  1  0.67256700  0.74121500  0.50203100  1
  C  1459  1  0.65236100  0.75262500  0.49048000  1
  C  1463  1  0.69583700  0.73211900  0.49265400  1
  C  1464  1  0.70013400  0.71010400  0.49429900  1
  C  1469  1  0.31623300  0.52090400  0.76447800  1
  C  1470  1  0.29400400  0.51139300  0.75348500  1
  C  1471  1  0.29136000  0.48966100  0.75358100  1
  C  1472  1  0.31160800  0.47811100  0.76495100  1
  C  1476  1  0.26799000  0.48027900  0.74458300  1
  C  1477  1  0.26421500  0.48180800  0.72249000  1
  C  1482  1  0.31630300  0.47610300  0.25736200  1
  C  1483  1  0.29410600  0.48562500  0.26838100  1
  C  1484  1  0.29145900  0.50735500  0.26826200  1
  C  1485  1  0.31169100  0.51889800  0.25686800  1
  C  1489  1  0.26815100  0.51673700  0.27730300  1
  C  1490  1  0.26375300  0.51508900  0.29930900  1
  C  1495  1  0.31618200  0.75212500  0.48853100  1
  C  1496  1  0.29395100  0.74114100  0.49804900  1
  C  1497  1  0.29133400  0.74123000  0.51978100  1
  C  1498  1  0.31160200  0.75258000  0.53133100  1
  C  1502  1  0.26802600  0.73221200  0.52916100  1
  C  1503  1  0.26405800  0.71012400  0.52763500  1
  C  1508  1  0.31612300  0.24493900  0.53329000  1
  C  1509  1  0.29390600  0.25593000  0.52376200  1
  C  1510  1  0.29130700  0.25584900  0.50202700  1
  C  1511  1  0.31158500  0.24448700  0.49049200  1
  C  1515  1  0.26794800  0.26482900  0.49261700  1
  C  1516  1  0.26414300  0.28692000  0.49414800  1
  C  1521  1  0.24959000  0.16988300  0.36030500  1
  C  1522  1  0.23683300  0.15261400  0.36973000  1
  C  1523  1  0.21736800  0.14034100  0.35860000  1
  C  1524  1  0.21072000  0.14636200  0.33817200  1
  C  1528  1  0.20394900  0.12374400  0.36786900  1
  C  1529  1  0.22039200  0.10591100  0.37389800  1
  C  1534  1  0.24960600  0.82716700  0.66153800  1
  C  1535  1  0.23674600  0.84438600  0.65209500  1
  C  1536  1  0.21731100  0.85666800  0.66324200  1
  C  1537  1  0.21077600  0.85069800  0.68370300  1
  C  1541  1  0.20376900  0.87318700  0.65394900  1
  C  1542  1  0.22030500  0.89110500  0.64819400  1
  C  1547  1  0.24958700  0.64910700  0.18238400  1
  C  1548  1  0.23683500  0.63968500  0.16511300  1
  C  1549  1  0.21737000  0.65081500  0.15284100  1
  C  1550  1  0.21070900  0.67123700  0.15887000  1
  C  1554  1  0.20395900  0.64154800  0.13623900  1
  C  1555  1  0.22040900  0.63552500  0.11840700  1
  C  1560  1  0.24950300  0.34788700  0.83943700  1
  C  1561  1  0.23674200  0.35729900  0.85671100  1
  C  1562  1  0.21726700  0.34616000  0.86896600  1
  C  1563  1  0.21063600  0.32573100  0.86294000  1
  C  1567  1  0.20386400  0.35541000  0.88558200  1
  C  1568  1  0.22032200  0.36142300  0.90341400  1
  C  1573  1  0.71429500  0.82717300  0.36026500  1
  C  1574  1  0.72718100  0.84437200  0.36972700  1
  C  1575  1  0.74660300  0.85667100  0.35858600  1
  C  1576  1  0.75309500  0.85073300  0.33810900  1
  C  1580  1  0.76019900  0.87319200  0.36790200  1
  C  1581  1  0.74354000  0.89105700  0.37357800  1
  C  1586  1  0.71428200  0.16998800  0.66156500  1
  C  1587  1  0.72704100  0.15271500  0.65215000  1
  C  1588  1  0.74650200  0.14044700  0.66328800  1
  C  1589  1  0.75315200  0.14648100  0.68371100  1
  C  1593  1  0.75991500  0.12384300  0.65402900  1
  C  1594  1  0.74347000  0.10600700  0.64801200  1
  C  1599  1  0.71433100  0.34787100  0.18229700  1
  C  1600  1  0.72718100  0.35732600  0.16507900  1
  C  1601  1  0.74661200  0.34618500  0.15278800  1
  C  1602  1  0.75314400  0.32571900  0.15874100  1
  C  1606  1  0.76013300  0.35547900  0.13626000  1
  C  1607  1  0.74357600  0.36123400  0.11835300  1
  C  1612  1  0.71428000  0.64914200  0.83964600  1
  C  1613  1  0.72717300  0.63967700  0.85684400  1
  C  1614  1  0.74658600  0.65082100  0.86914900  1
  C  1615  1  0.75307400  0.67129900  0.86321300  1
  C  1619  1  0.76019500  0.64150500  0.88566400  1
  C  1620  1  0.74354600  0.63581800  0.90352900  1
  C  1625  1  0.71158300  0.82630500  0.65955500  1
  C  1626  1  0.73046700  0.83951100  0.64899600  1
  C  1627  1  0.75026400  0.85162400  0.66002600  1
  C  1628  1  0.75013100  0.85029200  0.68184100  1
  C  1632  1  0.76801900  0.86523800  0.64975000  1
  C  1633  1  0.75747200  0.88559300  0.64489000  1
  C  1638  1  0.71148600  0.17058600  0.36216800  1
  C  1639  1  0.73033400  0.15733600  0.37270600  1
  C  1640  1  0.75009900  0.14521100  0.36165400  1
  C  1641  1  0.75002500  0.14662900  0.33984200  1
  C  1645  1  0.76783900  0.13158000  0.37191200  1
  C  1646  1  0.75713300  0.11113300  0.37633400  1
  C  1651  1  0.71158700  0.34982200  0.83875100  1
  C  1652  1  0.73044600  0.36037100  0.85198300  1
  C  1653  1  0.75024100  0.34933000  0.86409300  1
  C  1654  1  0.75015600  0.32751800  0.86270000  1
  C  1658  1  0.76794500  0.35959200  0.87775100  1
  C  1659  1  0.75733400  0.36440400  0.89810000  1
  C  1664  1  0.71153900  0.64718200  0.18301700  1
  C  1665  1  0.73033200  0.63663500  0.16973400  1
  C  1666  1  0.75011200  0.64767400  0.15761300  1
  C  1667  1  0.75007600  0.66948500  0.15903800  1
  C  1671  1  0.76778400  0.63741300  0.14393200  1
  C  1672  1  0.75714000  0.63262600  0.12358800  1
  C  1677  1  0.25225900  0.17059900  0.65957000  1
  C  1678  1  0.23339800  0.15736500  0.64902500  1
  C  1679  1  0.21362500  0.14523900  0.66006900  1
  C  1680  1  0.21369900  0.14664900  0.68188100  1
  C  1684  1  0.19585200  0.13159900  0.64980100  1
  C  1685  1  0.20680600  0.11126300  0.64526000  1
  C  1690  1  0.25232300  0.82637700  0.36222500  1
  C  1691  1  0.23347500  0.83962500  0.37276700  1
  C  1692  1  0.21367500  0.85172300  0.36172200  1
  C  1693  1  0.21374500  0.85031300  0.33991100  1
  C  1697  1  0.19597800  0.86539300  0.37197500  1
  C  1698  1  0.20658700  0.88575000  0.37675600  1
  C  1703  1  0.25229700  0.64718000  0.83871700  1
  C  1704  1  0.23342200  0.63663200  0.85194000  1
  C  1705  1  0.21365000  0.64767200  0.86406500  1
  C  1706  1  0.21373700  0.66948600  0.86267400  1
  C  1710  1  0.19586700  0.63740900  0.87766200  1
  C  1711  1  0.20651500  0.63296300  0.89811900  1
  C  1716  1  0.25221000  0.34981800  0.18310300  1
  C  1717  1  0.23330900  0.36035700  0.16989400  1
  C  1718  1  0.21352500  0.34930700  0.15778200  1
  C  1719  1  0.21363100  0.32749500  0.15918300  1
  C  1723  1  0.19572400  0.35956600  0.14415600  1
  C  1724  1  0.20664500  0.36411200  0.12381200  1
  C  1729  1  0.15646900  0.16609300  0.20939100  1
  C  1730  1  0.18328300  0.17427300  0.20402300  1
  C  1731  1  0.18555500  0.18976300  0.18874300  1
  C  1732  1  0.16026600  0.19667000  0.17921400  1
  C  1736  1  0.21143400  0.19879200  0.18414800  1
  C  1737  1  0.23222300  0.18706700  0.17269600  1
  C  1742  1  0.15652300  0.83087500  0.81249500  1
  C  1743  1  0.18332800  0.82258700  0.81771700  1
  C  1744  1  0.18563300  0.80710100  0.83299400  1
  C  1745  1  0.16039200  0.80033700  0.84268700  1
  C  1749  1  0.21147000  0.79794500  0.83743100  1
  C  1750  1  0.23202300  0.80959900  0.84924100  1
  C  1755  1  0.15645200  0.80001800  0.17852500  1
  C  1756  1  0.18328400  0.80541000  0.18665900  1
  C  1757  1  0.18557100  0.82067300  0.20216400  1
  C  1758  1  0.16029500  0.83021500  0.20907300  1
  C  1762  1  0.21146000  0.82525900  0.21118600  1
  C  1763  1  0.23222300  0.83674300  0.19946500  1
  C  1768  1  0.15649700  0.19689300  0.84329300  1
  C  1769  1  0.18331400  0.19153100  0.83511500  1
  C  1770  1  0.18559100  0.17626900  0.81960800  1
  C  1771  1  0.16030500  0.16674400  0.81269500  1
  C  1775  1  0.21147900  0.17165900  0.81059900  1
  C  1776  1  0.23221600  0.16016100  0.82232900  1
  C  1781  1  0.80737600  0.83080800  0.20940100  1
  C  1782  1  0.78055500  0.82260300  0.20409000  1
  C  1783  1  0.77825500  0.80709500  0.18883000  1
  C  1784  1  0.80352400  0.80022600  0.17924800  1
  C  1788  1  0.75236400  0.79799300  0.18431100  1
  C  1789  1  0.73205600  0.80982600  0.17248200  1
  C  1794  1  0.80740200  0.16606400  0.81251000  1
  C  1795  1  0.78057000  0.17420300  0.81789700  1
  C  1796  1  0.77828400  0.18972100  0.83314700  1
  C  1797  1  0.80356500  0.19665700  0.84266700  1
  C  1801  1  0.75239400  0.19874000  0.83773100  1
  C  1802  1  0.73162800  0.18701900  0.84920800  1
  C  1807  1  0.80732900  0.19688100  0.17844200  1
  C  1808  1  0.78053600  0.19168500  0.18676400  1
  C  1809  1  0.77824200  0.17638300  0.20222800  1
  C  1810  1  0.80346900  0.16660900  0.20890100  1
  C  1814  1  0.75242300  0.17195600  0.21141300  1
  C  1815  1  0.73189300  0.16007700  0.19980900  1
  C  1820  1  0.80732300  0.79996400  0.84319500  1
  C  1821  1  0.78050900  0.80525100  0.83496500  1
  C  1822  1  0.77820800  0.82050500  0.81945100  1
  C  1823  1  0.80348000  0.83008700  0.81258100  1
  C  1827  1  0.75233200  0.82498900  0.81031400  1
  C  1828  1  0.73192100  0.83673300  0.82213700  1
  C  1833  1  0.66003900  0.66358800  0.70763600  1
  C  1834  1  0.68384900  0.67668500  0.70616000  1
  C  1835  1  0.68441300  0.69269100  0.69131800  1
  C  1836  1  0.66050300  0.69502700  0.67820300  1
  C  1840  1  0.70642400  0.70685100  0.69124800  1
  C  1841  1  0.73453900  0.70024600  0.68520800  1
  C  1846  1  0.65996900  0.33337000  0.31421600  1
  C  1847  1  0.68380300  0.32029200  0.31568000  1
  C  1848  1  0.68438500  0.30427400  0.33050800  1
  C  1849  1  0.66048400  0.30191900  0.34362100  1
  C  1853  1  0.70637500  0.29010800  0.33052800  1
  C  1854  1  0.73435300  0.29684700  0.33687200  1
  C  1859  1  0.65993800  0.30188300  0.67598600  1
  C  1860  1  0.68379900  0.30335900  0.68903800  1
  C  1861  1  0.68435600  0.31815600  0.70508400  1
  C  1862  1  0.66047800  0.33129900  0.70742600  1
  C  1866  1  0.70635000  0.31817900  0.71925800  1
  C  1867  1  0.73448600  0.32419900  0.71268100  1
  C  1872  1  0.66001600  0.69519800  0.34579700  1
  C  1873  1  0.68382600  0.69373900  0.33270000  1
  C  1874  1  0.68437900  0.67892000  0.31667400  1
  C  1875  1  0.66047200  0.66580700  0.31433000  1
  C  1879  1  0.70640700  0.67884700  0.30252800  1
  C  1880  1  0.73451600  0.67280500  0.30914600  1
  C  1885  1  0.30395300  0.33333333  0.70762500  1
  C  1886  1  0.28010100  0.32029600  0.70616600  1
  C  1887  1  0.27953100  0.30424700  0.69136900  1
  C  1888  1  0.30344900  0.30186300  0.67827300  1
  C  1892  1  0.25752400  0.29005100  0.69136900  1
  C  1893  1  0.22962700  0.29690200  0.68500500  1
  C  1898  1  0.30382400  0.66354800  0.31431700  1
  C  1899  1  0.28000300  0.67663700  0.31576600  1
  C  1900  1  0.27947000  0.69269300  0.33055200  1
  C  1901  1  0.30334900  0.69502700  0.34369700  1
  C  1905  1  0.25750100  0.70688900  0.33055500  1
  C  1906  1  0.22934500  0.70034600  0.33656100  1
  C  1911  1  0.30381600  0.69521600  0.67600400  1
  C  1912  1  0.28001000  0.69377100  0.68910700  1
  C  1913  1  0.27944600  0.67893000  0.70511200  1
  C  1914  1  0.30329900  0.66575300  0.70740000  1
  C  1918  1  0.25749000  0.67890000  0.71930400  1
  C  1919  1  0.22949600  0.67257000  0.71259400  1
  C  1924  1  0.30390700  0.30177200  0.34576200  1
  C  1925  1  0.28006300  0.30324800  0.33269400  1
  C  1926  1  0.27949900  0.31805400  0.31665200  1
  C  1927  1  0.30343600  0.33113400  0.31427000  1
  C  1931  1  0.25750300  0.31807700  0.30245200  1
  C  1932  1  0.22961200  0.32445900  0.30930000  1
  C  1937  1  0.95075900  0.10694700  0.29519900  1
  C  1938  1  0.96467700  0.09321900  0.30881100  1
  C  1939  1  0.99469500  0.09234700  0.30966000  1
  C  1940  1  0.01026200  0.10542300  0.29632700  1
  C  1944  1  0.00836500  0.07803400  0.32202000  1
  C  1945  1  0.00755500  0.08053100  0.34416100  1
  C  1950  1  0.95074400  0.89009700  0.72665000  1
  C  1951  1  0.96467500  0.90389200  0.71311500  1
  C  1952  1  0.99469300  0.90470500  0.71224000  1
  C  1953  1  0.01024100  0.89148200  0.72543900  1
  C  1957  1  0.00838200  0.91909100  0.69999300  1
  C  1958  1  0.00779200  0.91635500  0.67784200  1
  C  1963  1  0.95074400  0.71417600  0.11929300  1
  C  1964  1  0.96468100  0.70056800  0.10557000  1
  C  1965  1  0.99470100  0.69972200  0.10473100  1
  C  1966  1  0.01024900  0.71298100  0.11789300  1
  C  1970  1  0.00840200  0.68740800  0.09039500  1
  C  1971  1  0.00761500  0.66525900  0.09283700  1
  C  1976  1  0.95077400  0.28266500  0.90258400  1
  C  1977  1  0.96471900  0.29633100  0.91624500  1
  C  1978  1  0.99473900  0.29716500  0.91709300  1
  C  1979  1  0.01028500  0.28377900  0.90405700  1
  C  1983  1  0.00843600  0.30959600  0.93133200  1
  C  1984  1  0.00758700  0.33172800  0.92875100  1
  C  1989  1  0.01310500  0.89016800  0.29513100  1
  C  1990  1  0.99918500  0.90395500  0.30867800  1
  C  1991  1  0.96916200  0.90480800  0.30953200  1
  C  1992  1  0.95361300  0.89163000  0.29628800  1
  C  1996  1  0.95545900  0.91922300  0.32178600  1
  C  1997  1  0.95616600  0.91638200  0.34390700  1
  C  2002  1  0.01307300  0.10687400  0.72660600  1
  C  2003  1  0.99913500  0.09312600  0.71302600  1
  C  2004  1  0.96911600  0.09228800  0.71218100  1
  C  2005  1  0.95357300  0.10546800  0.72542600  1
  C  2009  1  0.95541200  0.07793700  0.69988600  1
  C  2010  1  0.95619000  0.08035600  0.67773600  1
  C  2015  1  0.01309600  0.28270800  0.11921200  1
  C  2016  1  0.99917400  0.29624700  0.10541600  1
  C  2017  1  0.96915600  0.29712200  0.10459600  1
  C  2018  1  0.95360700  0.28391800  0.11781100  1
  C  2022  1  0.95546500  0.30937900  0.09021800  1
  C  2023  1  0.95606500  0.33152900  0.09296400  1
  C  2028  1  0.01310800  0.71428300  0.90257200  1
  C  2029  1  0.99919000  0.70073100  0.91635600  1
  C  2030  1  0.96916900  0.69987700  0.91721300  1
  C  2031  1  0.95362000  0.71313500  0.90405100  1
  C  2035  1  0.95546300  0.68762700  0.93163200  1
  C  2036  1  0.95618300  0.66550400  0.92880200  1
  C  2041  1  0.45525000  0.60903400  0.79438200  1
  C  2042  1  0.46865700  0.60032900  0.81177600  1
  C  2043  1  0.49866000  0.59922800  0.81281000  1
  C  2044  1  0.51454600  0.60705000  0.79593900  1
  C  2048  1  0.51182100  0.58894300  0.82890400  1
  C  2049  1  0.50920000  0.59670200  0.84971800  1
  C  2054  1  0.45521800  0.38799700  0.22735800  1
  C  2055  1  0.46864400  0.39672100  0.20998200  1
  C  2056  1  0.49865100  0.39778300  0.20895900  1
  C  2057  1  0.51451600  0.38987700  0.22579800  1
  C  2061  1  0.51182800  0.40813000  0.19292300  1
  C  2062  1  0.50942500  0.40009600  0.17216800  1
  C  2067  1  0.45516700  0.21500500  0.62137800  1
  C  2068  1  0.46861300  0.19759700  0.61273100  1
  C  2069  1  0.49862000  0.19660100  0.61164300  1
  C  2070  1  0.51446800  0.21347700  0.61949400  1
  C  2074  1  0.51182800  0.18052500  0.60136000  1
  C  2075  1  0.50923400  0.15970400  0.60910600  1
  C  2080  1  0.45524600  0.78196800  0.40043900  1
  C  2081  1  0.46867200  0.79937300  0.40910900  1
  C  2082  1  0.49867700  0.80038600  0.41020600  1
  C  2083  1  0.51454800  0.78350200  0.40239600  1
  C  2087  1  0.51185900  0.81650500  0.42043900  1
  C  2088  1  0.50923900  0.83730100  0.41263100  1
  C  2093  1  0.50863900  0.38802700  0.79440600  1
  C  2094  1  0.49522600  0.39671500  0.81180500  1
  C  2095  1  0.46521800  0.39781600  0.81282500  1
  C  2096  1  0.44934700  0.38997800  0.79595400  1
  C  2100  1  0.45203200  0.40815500  0.82889600  1
  C  2101  1  0.45445700  0.39993400  0.84956500  1
  C  2106  1  0.50868800  0.60899500  0.22744800  1
  C  2107  1  0.49524200  0.60032900  0.21005000  1
  C  2108  1  0.46523500  0.59923300  0.20905900  1
  C  2109  1  0.44939000  0.60708700  0.22593500  1
  C  2113  1  0.45203200  0.58893900  0.19299000  1
  C  2114  1  0.45461800  0.59667200  0.17216400  1
  C  2119  1  0.50865200  0.78196400  0.62137000  1
  C  2120  1  0.49523800  0.79935000  0.61265400  1
  C  2121  1  0.46523300  0.80037500  0.61157300  1
  C  2122  1  0.44935600  0.78352800  0.61945000  1
  C  2126  1  0.45206100  0.81643100  0.60125500  1
  C  2127  1  0.45448700  0.83717500  0.60931700  1
  C  2132  1  0.50864800  0.21500500  0.40045300  1
  C  2133  1  0.49523000  0.19761700  0.40915900  1
  C  2134  1  0.46522300  0.19659500  0.41025000  1
  C  2135  1  0.44935600  0.21345700  0.40239000  1
  C  2139  1  0.45202300  0.18054400  0.42061400  1
  C  2140  1  0.45445700  0.15986000  0.41243500  1
  N  1317  1  0.12761500  0.00705500  0.26525400  1
  N  1318  1  0.12778300  0.98701400  0.26459500  1
  N  1330  1  0.12744500  0.98985900  0.75682600  1
  N  1331  1  0.12763400  0.00990200  0.75742100  1
  N  1343  1  0.12760400  0.74380500  0.01949200  1
  N  1344  1  0.12775600  0.74445700  0.99945200  1
  N  1356  1  0.12774500  0.25304500  0.00233100  1
  N  1357  1  0.12788800  0.25239600  0.02237200  1
  N  1369  1  0.83643200  0.98986500  0.26473500  1
  N  1370  1  0.83625800  0.00990800  0.26413700  1
  N  1382  1  0.83624800  0.00703300  0.75598100  1
  N  1383  1  0.83612300  0.98699400  0.75665200  1
  N  1395  1  0.83632800  0.25262400  0.01950500  1
  N  1396  1  0.83614200  0.25201300  0.99946200  1
  N  1408  1  0.83642800  0.74483600  0.00229700  1
  N  1409  1  0.83622600  0.74544200  0.02234000  1
  N  1421  1  0.63140100  0.50842000  0.77486500  1
  N  1422  1  0.62923100  0.48849000  0.77472500  1
  N  1434  1  0.63136700  0.48858400  0.24705600  1
  N  1435  1  0.62923300  0.50851600  0.24718100  1
  N  1447  1  0.63134800  0.23459800  0.52078900  1
  N  1448  1  0.62920600  0.23472400  0.50085900  1
  N  1460  1  0.63145800  0.76241200  0.50099200  1
  N  1461  1  0.62926900  0.76226100  0.52092100  1
  N  1473  1  0.33255400  0.48861800  0.77469400  1
  N  1474  1  0.33472500  0.50854800  0.77456500  1
  N  1486  1  0.33259200  0.50838000  0.24708600  1
  N  1487  1  0.33475300  0.48845000  0.24722100  1
  N  1499  1  0.33252200  0.76234400  0.52081400  1
  N  1500  1  0.33467700  0.76222100  0.50088200  1
  N  1512  1  0.33251800  0.23474800  0.50101700  1
  N  1513  1  0.33464900  0.23486800  0.52094900  1
  N  1525  1  0.22383900  0.16319300  0.33026800  1
  N  1526  1  0.24207900  0.17416300  0.34059900  1
  N  1538  1  0.22398300  0.83391300  0.69162500  1
  N  1539  1  0.24220800  0.82294100  0.68127900  1
  N  1551  1  0.22382400  0.67914100  0.17570100  1
  N  1552  1  0.24206800  0.66881100  0.18667000  1
  N  1564  1  0.22376700  0.31783700  0.84610900  1
  N  1565  1  0.24200700  0.32817900  0.83514700  1
  N  1577  1  0.73985900  0.83397100  0.33016600  1
  N  1578  1  0.72164500  0.82298600  0.34050700  1
  N  1590  1  0.74003700  0.16331700  0.69160600  1
  N  1591  1  0.72179700  0.17428300  0.68126900  1
  N  1603  1  0.73994200  0.31778600  0.17552300  1
  N  1604  1  0.72172500  0.32812700  0.18650700  1
  N  1616  1  0.73983600  0.67924400  0.84645200  1
  N  1617  1  0.72162600  0.66890100  0.83546600  1
  N  1629  1  0.73114100  0.83740600  0.69079100  1
  N  1630  1  0.71325900  0.82623700  0.68041200  1
  N  1642  1  0.73107300  0.15956100  0.33091800  1
  N  1643  1  0.71319100  0.17071300  0.34131400  1
  N  1655  1  0.73119200  0.31858200  0.84978700  1
  N  1656  1  0.71329900  0.32896900  0.83863700  1
  N  1668  1  0.73116400  0.67841900  0.17199400  1
  N  1669  1  0.71328500  0.66803400  0.18315800  1
  N  1681  1  0.23266300  0.15956400  0.69081400  1
  N  1682  1  0.25055600  0.17071300  0.68042500  1
  N  1694  1  0.23269300  0.83738100  0.33098200  1
  N  1695  1  0.25059000  0.82623700  0.34137100  1
  N  1707  1  0.23271200  0.67842200  0.84977000  1
  N  1708  1  0.25060200  0.66803500  0.83861800  1
  N  1720  1  0.23263100  0.31856700  0.17207400  1
  N  1721  1  0.25053000  0.32896300  0.18320900  1
  N  1733  1  0.13541800  0.18799500  0.18501100  1
  N  1734  1  0.13380200  0.17371500  0.19898500  1
  N  1746  1  0.13555100  0.80912000  0.83703700  1
  N  1747  1  0.13390300  0.82338800  0.82305100  1
  N  1759  1  0.13543300  0.82442500  0.20041400  1
  N  1760  1  0.13379700  0.81044000  0.18614700  1
  N  1772  1  0.13545100  0.17252100  0.82137500  1
  N  1773  1  0.13383300  0.18648500  0.83566400  1
  N  1785  1  0.82837200  0.80896600  0.18494300  1
  N  1786  1  0.83001200  0.82324900  0.19891400  1
  N  1798  1  0.82842500  0.18799800  0.83687300  1
  N  1799  1  0.83006100  0.17371200  0.82290600  1
  N  1811  1  0.82830000  0.17224800  0.20009400  1
  N  1812  1  0.82994500  0.18627100  0.18586000  1
  N  1824  1  0.82832200  0.82440800  0.82134100  1
  N  1825  1  0.82995900  0.81045100  0.83563600  1
  N  1837  1  0.63897700  0.68131900  0.68032700  1
  N  1838  1  0.63871300  0.66666667  0.69399700  1
  N  1850  1  0.63895800  0.31563100  0.34153900  1
  N  1851  1  0.63867000  0.33024600  0.32787800  1
  N  1863  1  0.63894800  0.32921500  0.69371600  1
  N  1864  1  0.63864900  0.31555200  0.67910400  1
  N  1876  1  0.63895400  0.66790000  0.32804900  1
  N  1877  1  0.63869100  0.68155600  0.34267000  1
  N  1889  1  0.32495200  0.31559800  0.68031600  1
  N  1890  1  0.32524000  0.33023200  0.69395600  1
  N  1902  1  0.32485200  0.68129200  0.34162500  1
  N  1903  1  0.32512800  0.66666667  0.32797600  1
  N  1915  1  0.32480100  0.66784000  0.69366500  1
  N  1916  1  0.32509200  0.68152400  0.67907100  1
  N  1928  1  0.32494300  0.32906900  0.32800100  1
  N  1929  1  0.32521400  0.31542400  0.34263000  1
  N  1941  1  0.99553000  0.11830000  0.28388900  1
  N  1942  1  0.96798400  0.11899800  0.28353000  1
  N  1954  1  0.99548100  0.87855100  0.73780700  1
  N  1955  1  0.96793300  0.87790800  0.73820100  1
  N  1967  1  0.99548900  0.72539000  0.13078200  1
  N  1968  1  0.96794200  0.72577600  0.13142600  1
  N  1980  1  0.99551900  0.27130600  0.89123400  1
  N  1981  1  0.96797200  0.27095200  0.89056000  1
  N  1993  1  0.96835700  0.87866400  0.28395000  1
  N  1994  1  0.99590500  0.87799300  0.28357800  1
  N  2006  1  0.96833200  0.11836300  0.73782800  1
  N  2007  1  0.99587900  0.11900900  0.73821000  1
  N  2019  1  0.96835300  0.27155700  0.13075400  1
  N  2020  1  0.99590200  0.27116300  0.13140100  1
  N  2032  1  0.96835700  0.72548300  0.89108900  1
  N  2033  1  0.99590500  0.72585000  0.89041100  1
  N  2045  1  0.49986300  0.61539300  0.78001200  1
  N  2046  1  0.47234400  0.61631000  0.77925400  1
  N  2058  1  0.49980800  0.38149800  0.24169400  1
  N  2059  1  0.47228600  0.38062300  0.24245200  1
  N  2071  1  0.49974300  0.22939400  0.62781700  1
  N  2072  1  0.47222100  0.23013700  0.62869000  1
  N  2084  1  0.49984200  0.76757400  0.39407600  1
  N  2085  1  0.47232200  0.76682700  0.39317300  1
  N  2097  1  0.46404000  0.38160600  0.78004900  1
  N  2098  1  0.49156000  0.38070400  0.77929400  1
  N  2110  1  0.46411400  0.61541200  0.24185100  1
  N  2111  1  0.49163600  0.61629400  0.24258900  1
  N  2123  1  0.46404900  0.76762200  0.62781900  1
  N  2124  1  0.49157100  0.76686000  0.62871000  1
  N  2136  1  0.46405300  0.22935400  0.39400400  1
  N  2137  1  0.49157300  0.23010800  0.39310700  1
  O  1325  1  0.21845300  0.01897300  0.26450500  1
  O  1338  1  0.21887500  0.97823700  0.75741500  1
  O  1351  1  0.21837700  0.74531000  0.03145400  1
  O  1364  1  0.21857000  0.25170300  0.99041600  1
  O  1377  1  0.74514600  0.97835200  0.26503700  1
  O  1390  1  0.74558000  0.01903800  0.75837400  1
  O  1403  1  0.74491200  0.25190200  0.03115400  1
  O  1416  1  0.74515800  0.74433100  0.99073600  1
  O  1429  1  0.71725100  0.51650500  0.75514900  1
  O  1442  1  0.71759800  0.48069700  0.26701600  1
  O  1455  1  0.71721500  0.25422500  0.52890400  1
  O  1468  1  0.71732500  0.74267400  0.49293500  1
  O  1481  1  0.24637800  0.48086100  0.75496400  1
  O  1494  1  0.24671400  0.51646500  0.26669700  1
  O  1507  1  0.24625000  0.74242900  0.52866000  1
  O  1520  1  0.24634600  0.25443500  0.49317500  1
  O  1533  1  0.18461900  0.12853400  0.37948600  1
  O  1546  1  0.18479400  0.86858800  0.64196200  1
  O  1559  1  0.18462900  0.62992900  0.14102100  1
  O  1572  1  0.18452400  0.36702800  0.88081500  1
  O  1585  1  0.77918000  0.86838500  0.37978900  1
  O  1598  1  0.77924600  0.12862200  0.64240800  1
  O  1611  1  0.77911000  0.36746900  0.14084900  1
  O  1624  1  0.77918000  0.62962400  0.88084900  1
  O  1637  1  0.78363000  0.85742200  0.63687600  1
  O  1650  1  0.78302800  0.13900600  0.38526400  1
  O  1663  1  0.78355600  0.37249200  0.86998300  1
  O  1676  1  0.78339200  0.62449500  0.15167700  1
  O  1689  1  0.18049400  0.13925800  0.63669300  1
  O  1702  1  0.18038100  0.85763900  0.38489400  1
  O  1715  1  0.18068900  0.62406900  0.87020200  1
  O  1728  1  0.18036700  0.37266700  0.15182600  1
  O  1741  1  0.22083900  0.20991900  0.19773700  1
  O  1754  1  0.22144700  0.78727900  0.82369700  1
  O  1767  1  0.22089200  0.81165300  0.22227600  1
  O  1780  1  0.22094000  0.18525900  0.79951000  1
  O  1793  1  0.74259300  0.78726500  0.19806100  1
  O  1806  1  0.74296800  0.20983300  0.82412300  1
  O  1819  1  0.74241900  0.18571700  0.22203000  1
  O  1832  1  0.74266700  0.81124500  0.79952600  1
  O  1845  1  0.70537100  0.71953700  0.70515800  1
  O  1858  1  0.70599800  0.27761800  0.31643100  1
  O  1871  1  0.70525500  0.30424700  0.73191800  1
  O  1884  1  0.70537100  0.69275700  0.28984100  1
  O  1897  1  0.25822500  0.27758900  0.70547400  1
  O  1910  1  0.25864100  0.71954300  0.31661900  1
  O  1923  1  0.25789900  0.69299000  0.73180400  1
  O  1936  1  0.25818700  0.30397300  0.28998700  1
  O  1949  1  0.00700400  0.06030100  0.31572600  1
  O  1962  1  0.00665200  0.93694100  0.70587500  1
  O  1975  1  0.00705000  0.69374500  0.07267700  1
  O  1988  1  0.00714400  0.30337000  0.94909100  1
  O  2001  1  0.95719400  0.93698700  0.31567100  1
  O  2014  1  0.95677000  0.06022500  0.70624000  1
  O  2027  1  0.95718700  0.30350300  0.07236500  1
  O  2040  1  0.95719200  0.69375100  0.94939200  1
  O  2053  1  0.51196100  0.57018700  0.82710800  1
  O  2066  1  0.51160900  0.42691500  0.19429900  1
  O  2079  1  0.51198900  0.18233000  0.58260500  1
  O  2092  1  0.51202700  0.81475500  0.43920000  1
  O  2105  1  0.45234100  0.42692200  0.82737500  1
  O  2118  1  0.45187300  0.57018500  0.19480500  1
  O  2131  1  0.45226200  0.81508300  0.58246800  1
  O  2144  1  0.45231800  0.18210100  0.43937800  1
