# generated using pymatgen
data_H12C15N4
_symmetry_space_group_name_H-M   'P 1'
_cell_length_a   30.11940000
_cell_length_b   32.92260000
_cell_length_c   61.28760000
_cell_angle_alpha   90.00000000
_cell_angle_beta   90.00000000
_cell_angle_gamma   90.00120000
_symmetry_Int_Tables_number   1
_chemical_formula_structural   H12C15N4
_chemical_formula_sum   'H576 C720 N192'
_cell_volume   60773.33318796
_cell_formula_units_Z   48
loop_
 _symmetry_equiv_pos_site_id
 _symmetry_equiv_pos_as_xyz
  1  'x, y, z'
loop_
 _atom_site_type_symbol
 _atom_site_label
 _atom_site_symmetry_multiplicity
 _atom_site_fract_x
 _atom_site_fract_y
 _atom_site_fract_z
 _atom_site_occupancy
  H  25  1  0.91729300  0.59983200  0.83687700  1
  H  26  1  0.95187100  0.66385300  0.82987900  1
  H  27  1  0.95485200  0.81286800  0.83037700  1
  H  28  1  0.92185100  0.87784200  0.83645300  1
  H  29  1  0.80377400  0.82100800  0.85638600  1
  H  30  1  0.80158300  0.66023200  0.85734900  1
  H  31  1  0.81705100  0.73861500  0.80777300  1
  H  32  1  0.67773800  0.74454000  0.80469300  1
  H  33  1  0.67446900  0.74727300  0.84361700  1
  H  34  1  0.89004300  0.73232800  0.88603500  1
  H  35  1  0.74300400  0.74812200  0.91631100  1
  H  36  1  0.80505800  0.74039200  0.94014500  1
  H  39  1  0.95198800  0.73814300  0.84520800  1
  H  40  1  0.93162900  0.73889700  0.81807600  1
  H  42  1  0.72208700  0.77536200  0.87681700  1
  H  43  1  0.71692800  0.72178000  0.87808500  1
  H  72  1  0.91598600  0.88063600  0.14254400  1
  H  73  1  0.95042800  0.81625200  0.14845500  1
  H  74  1  0.95169700  0.66799000  0.14840300  1
  H  75  1  0.91767200  0.60317000  0.14370700  1
  H  76  1  0.79743800  0.66033600  0.12721900  1
  H  77  1  0.79726900  0.82163700  0.12529900  1
  H  78  1  0.81937700  0.73924800  0.17560600  1
  H  79  1  0.68082900  0.74508500  0.18428500  1
  H  80  1  0.67089000  0.74581200  0.14596500  1
  H  81  1  0.87691900  0.73856600  0.09203600  1
  H  82  1  0.72142000  0.74059300  0.07202500  1
  H  83  1  0.77598900  0.73778700  0.04450600  1
  H  86  1  0.94783400  0.74199200  0.13336700  1
  H  87  1  0.93043800  0.74204000  0.16100700  1
  H  89  1  0.70757400  0.71674400  0.11113300  1
  H  90  1  0.70978300  0.77065700  0.11081500  1
  H  119  1  0.88771700  0.10283500  0.14685000  1
  H  120  1  0.85403000  0.16750800  0.15278400  1
  H  121  1  0.85478600  0.31654200  0.15236000  1
  H  122  1  0.88880400  0.38086400  0.14538400  1
  H  123  1  0.00501000  0.32140400  0.12496600  1
  H  124  1  0.00544500  0.16062400  0.12703300  1
  H  125  1  0.99070200  0.24024800  0.17503800  1
  H  126  1  0.13007500  0.24470800  0.17815800  1
  H  127  1  0.13344200  0.24689500  0.13922300  1
  H  128  1  0.91781400  0.23290800  0.09676600  1
  H  129  1  0.06507100  0.24694000  0.06649200  1
  H  130  1  0.00299400  0.23929300  0.04266400  1
  H  133  1  0.85582900  0.24160600  0.13746800  1
  H  134  1  0.87606800  0.24221400  0.16462300  1
  H  136  1  0.08608700  0.27486300  0.10582800  1
  H  137  1  0.09087100  0.22122800  0.10489200  1
  H  166  1  0.88946000  0.37803900  0.83942200  1
  H  167  1  0.85576600  0.31310100  0.83461100  1
  H  168  1  0.85785200  0.16484100  0.83420900  1
  H  169  1  0.89263700  0.10057600  0.83998900  1
  H  170  1  0.01112200  0.15999500  0.85728500  1
  H  171  1  0.00996300  0.32130100  0.85578100  1
  H  172  1  0.98851200  0.23779000  0.80721000  1
  H  173  1  0.12700700  0.24445000  0.79849300  1
  H  174  1  0.13695500  0.24570800  0.83681000  1
  H  175  1  0.93099900  0.23803500  0.89077300  1
  H  176  1  0.08642900  0.24214700  0.91078400  1
  H  177  1  0.03188300  0.23937600  0.93831000  1
  H  180  1  0.86006000  0.23896600  0.84947200  1
  H  181  1  0.87740900  0.23925200  0.82182500  1
  H  183  1  0.10041300  0.21721900  0.87187400  1
  H  184  1  0.09794600  0.27112700  0.87175400  1
  H  213  1  0.41844100  0.09955500  0.33710000  1
  H  214  1  0.45346800  0.16350900  0.33029300  1
  H  215  1  0.45638700  0.31295000  0.33078700  1
  H  216  1  0.42305600  0.37784500  0.33678200  1
  H  217  1  0.30545700  0.32063200  0.35705500  1
  H  218  1  0.30327900  0.16033800  0.35793300  1
  H  219  1  0.31991000  0.23706100  0.30865700  1
  H  220  1  0.18077300  0.24402900  0.30483300  1
  H  221  1  0.17668300  0.24739400  0.34378800  1
  H  222  1  0.39195600  0.23238400  0.38654900  1
  H  223  1  0.24475600  0.24639600  0.41692100  1
  H  224  1  0.30688800  0.23837300  0.44069100  1
  H  227  1  0.45389300  0.23805400  0.34575000  1
  H  228  1  0.43340100  0.23876700  0.31864500  1
  H  230  1  0.22385200  0.27476200  0.37743100  1
  H  231  1  0.21874200  0.22116700  0.37845300  1
  H  260  1  0.41728200  0.38121600  0.64184100  1
  H  261  1  0.45230300  0.31694200  0.64745400  1
  H  262  1  0.45362800  0.16825300  0.64758300  1
  H  263  1  0.41926100  0.10347000  0.64313800  1
  H  264  1  0.29919200  0.16089100  0.62670400  1
  H  265  1  0.29882700  0.32168300  0.62471200  1
  H  266  1  0.32283800  0.24512500  0.67467500  1
  H  267  1  0.18455500  0.24094000  0.68443800  1
  H  268  1  0.17336000  0.23915100  0.64617000  1
  H  269  1  0.37841400  0.23920000  0.59134100  1
  H  270  1  0.22269700  0.24052200  0.57165900  1
  H  271  1  0.27718000  0.23900700  0.54398600  1
  H  274  1  0.44981300  0.24235400  0.63231500  1
  H  275  1  0.43275700  0.24259400  0.66000300  1
  H  277  1  0.21057500  0.21366100  0.61075800  1
  H  278  1  0.21005700  0.26760300  0.61082800  1
  H  307  1  0.38650800  0.60262600  0.64673300  1
  H  308  1  0.35247000  0.66725200  0.65249700  1
  H  309  1  0.35336300  0.81670100  0.65194100  1
  H  310  1  0.38776600  0.88091600  0.64502300  1
  H  311  1  0.50338300  0.82097900  0.62424500  1
  H  312  1  0.50363900  0.66068500  0.62635500  1
  H  313  1  0.48789500  0.73860400  0.67411300  1
  H  314  1  0.62710400  0.74419800  0.67792000  1
  H  315  1  0.63124400  0.74708700  0.63895600  1
  H  316  1  0.41586100  0.73293800  0.59622600  1
  H  317  1  0.56322200  0.74524900  0.56582200  1
  H  318  1  0.50102900  0.73730800  0.54207700  1
  H  321  1  0.35393800  0.74156600  0.63697700  1
  H  322  1  0.37441300  0.74218000  0.66408500  1
  H  324  1  0.58424800  0.77432000  0.60514200  1
  H  325  1  0.58904900  0.72068300  0.60444300  1
  H  354  1  0.38810500  0.87854500  0.34005800  1
  H  355  1  0.35390100  0.81370700  0.33555700  1
  H  356  1  0.35597000  0.66503800  0.33508000  1
  H  357  1  0.39116600  0.60081900  0.34058700  1
  H  358  1  0.50946500  0.66054900  0.35779300  1
  H  359  1  0.50833000  0.82135300  0.35642900  1
  H  360  1  0.48501300  0.74361700  0.30815600  1
  H  361  1  0.62332200  0.74043100  0.29838800  1
  H  362  1  0.63455400  0.73918700  0.33666300  1
  H  363  1  0.42954700  0.73867000  0.39152200  1
  H  364  1  0.58524700  0.74203300  0.41116300  1
  H  365  1  0.53081000  0.74038600  0.43885500  1
  H  368  1  0.35809100  0.73927900  0.35053000  1
  H  369  1  0.37513700  0.73971400  0.32284300  1
  H  371  1  0.59751200  0.71419500  0.37227400  1
  H  372  1  0.59769100  0.76813100  0.37179400  1
  H  383  1  0.81154400  0.73171500  0.99963400  1
  H  387  1  0.98009900  0.77597200  0.94923100  1
  H  389  1  0.04788600  0.70512500  0.97196900  1
  H  390  1  0.09681100  0.72696800  0.96161400  1
  H  391  1  0.05264300  0.71502500  0.94357000  1
  H  393  1  0.09861700  0.80024700  0.95192000  1
  H  394  1  0.04969800  0.82944600  0.95311700  1
  H  395  1  0.05669400  0.79310800  0.93195300  1
  H  397  1  0.93950400  0.71121300  0.94399500  1
  H  399  1  0.84189300  0.78517600  0.03202900  1
  H  406  1  0.99611500  0.23153600  0.98308300  1
  H  410  1  0.82783900  0.27601900  0.03369400  1
  H  412  1  0.75981800  0.20540700  0.01101300  1
  H  413  1  0.71095800  0.22740900  0.02134600  1
  H  414  1  0.75508700  0.21541200  0.03940200  1
  H  416  1  0.70938600  0.30073300  0.03097500  1
  H  417  1  0.75839800  0.32980200  0.02973900  1
  H  418  1  0.75129600  0.29355900  0.05094300  1
  H  420  1  0.86830200  0.21122300  0.03885700  1
  H  422  1  0.96529400  0.28559600  0.95090800  1
  H  429  1  0.31384700  0.23141100  0.49969100  1
  H  433  1  0.48204500  0.27537200  0.44889000  1
  H  435  1  0.55026600  0.20546400  0.47166600  1
  H  436  1  0.59905900  0.22758300  0.46132300  1
  H  437  1  0.55496800  0.21544500  0.44327200  1
  H  439  1  0.60035400  0.30091900  0.45164700  1
  H  440  1  0.55123300  0.32983100  0.45289100  1
  H  441  1  0.55843700  0.29358600  0.43169900  1
  H  443  1  0.44176500  0.21013900  0.44424400  1
  H  445  1  0.34446900  0.28646200  0.53168300  1
  H  452  1  0.49379100  0.73119200  0.48306000  1
  H  456  1  0.32578300  0.77541800  0.53401300  1
  H  458  1  0.25749800  0.70577100  0.51122200  1
  H  459  1  0.20873200  0.72794700  0.52156200  1
  H  460  1  0.25281300  0.71578400  0.53961300  1
  H  462  1  0.20753000  0.80130400  0.53121300  1
  H  463  1  0.25668500  0.83016600  0.52995300  1
  H  464  1  0.24944400  0.79395800  0.55116200  1
  H  466  1  0.36593700  0.71018800  0.53857000  1
  H  468  1  0.46283800  0.78685000  0.45107100  1
  H  475  1  0.96079600  0.98934600  0.82365400  1
  H  479  1  0.81835000  0.94274600  0.89213500  1
  H  481  1  0.75642300  0.02618000  0.88953300  1
  H  482  1  0.73090200  0.01891400  0.91505400  1
  H  483  1  0.73050400  0.97901900  0.89558700  1
  H  485  1  0.76913600  0.97800100  0.94374500  1
  H  486  1  0.81953800  0.95332000  0.93770300  1
  H  487  1  0.76896900  0.93431300  0.92680000  1
  H  489  1  0.80969400  0.94245900  0.85106600  1
  H  491  1  0.00161300  0.03605300  0.85540100  1
  H  498  1  0.95628700  0.49168800  0.15974600  1
  H  502  1  0.81579100  0.53976500  0.09062000  1
  H  504  1  0.75424500  0.45611000  0.09228100  1
  H  505  1  0.72935800  0.46381600  0.06664700  1
  H  506  1  0.72829800  0.50330800  0.08634300  1
  H  508  1  0.76822900  0.50542300  0.03843300  1
  H  509  1  0.81841500  0.53007000  0.04494000  1
  H  510  1  0.76751300  0.54879200  0.05561200  1
  H  512  1  0.80575300  0.53788500  0.13240900  1
  H  514  1  0.99747600  0.44483300  0.12747000  1
  H  521  1  0.84824000  0.99163100  0.15924400  1
  H  525  1  0.98972500  0.03961600  0.09064400  1
  H  527  1  0.05206900  0.95640800  0.09285500  1
  H  528  1  0.07744500  0.96411300  0.06733600  1
  H  529  1  0.07773000  0.00375400  0.08695200  1
  H  531  1  0.03887800  0.00523900  0.03883900  1
  H  532  1  0.98837500  0.02962300  0.04502500  1
  H  533  1  0.03889500  0.04871000  0.05594400  1
  H  535  1  0.99932900  0.03856500  0.13184200  1
  H  537  1  0.80723400  0.94551200  0.12699400  1
  H  544  1  0.85051200  0.48925300  0.82322000  1
  H  548  1  0.99121700  0.44245800  0.89245800  1
  H  550  1  0.05279300  0.52626100  0.89021200  1
  H  551  1  0.07804600  0.51888100  0.91578800  1
  H  552  1  0.07890200  0.47916700  0.89621900  1
  H  554  1  0.03964800  0.47758300  0.94427000  1
  H  555  1  0.98944100  0.45274900  0.93801800  1
  H  556  1  0.04024300  0.43401100  0.92724000  1
  H  558  1  0.00136100  0.44360900  0.85078600  1
  H  560  1  0.80935000  0.53631500  0.85552300  1
  H  567  1  0.46112400  0.48943700  0.32410100  1
  H  571  1  0.31866100  0.44269500  0.39253200  1
  H  573  1  0.25640900  0.52616500  0.38962600  1
  H  574  1  0.23056500  0.51885300  0.41506400  1
  H  575  1  0.23046200  0.47897800  0.39558500  1
  H  577  1  0.26846800  0.47800100  0.44386900  1
  H  578  1  0.31896000  0.45334100  0.43798700  1
  H  579  1  0.26854400  0.43430100  0.42693100  1
  H  581  1  0.31012500  0.44178000  0.35153900  1
  H  583  1  0.50132800  0.53695300  0.35555800  1
  H  590  1  0.45682200  0.99166600  0.65928200  1
  H  594  1  0.31565300  0.03995300  0.59041300  1
  H  596  1  0.25423800  0.95619100  0.59223200  1
  H  597  1  0.22913800  0.96382100  0.56664100  1
  H  598  1  0.22815200  0.00334100  0.58632400  1
  H  600  1  0.26770800  0.00544100  0.53833700  1
  H  601  1  0.31790100  0.03017500  0.54473600  1
  H  602  1  0.26704700  0.04883900  0.55549400  1
  H  604  1  0.30643000  0.03874400  0.63212800  1
  H  606  1  0.49732000  0.94414900  0.62713100  1
  H  613  1  0.34787200  0.49178000  0.65895200  1
  H  617  1  0.48989700  0.53969800  0.59056800  1
  H  619  1  0.55219900  0.45646200  0.59287000  1
  H  620  1  0.57772700  0.46415600  0.56738700  1
  H  621  1  0.57792000  0.50379400  0.58700400  1
  H  623  1  0.53935300  0.50529700  0.53883500  1
  H  624  1  0.48882800  0.52970200  0.54494800  1
  H  625  1  0.53929000  0.54876900  0.55593900  1
  H  627  1  0.49898000  0.53900000  0.63177400  1
  H  629  1  0.30713400  0.44524600  0.62702500  1
  H  636  1  0.35044200  0.98937300  0.32341400  1
  H  640  1  0.49160300  0.94259200  0.39249800  1
  H  642  1  0.55282600  0.02635900  0.39026600  1
  H  643  1  0.57820200  0.01903000  0.41581600  1
  H  644  1  0.57899500  0.97929000  0.39626200  1
  H  646  1  0.53997100  0.97771100  0.44435400  1
  H  647  1  0.48974400  0.95285400  0.43816300  1
  H  648  1  0.54050200  0.93413200  0.42732900  1
  H  650  1  0.50099600  0.94341100  0.35079500  1
  H  652  1  0.30938200  0.03677500  0.35548400  1
  H  659  1  0.71047800  0.70382400  0.72378900  1
  H  663  1  0.57959300  0.75788200  0.78978300  1
  H  665  1  0.56658500  0.85326000  0.79534500  1
  H  666  1  0.50888400  0.86046600  0.79276500  1
  H  667  1  0.54230500  0.85712400  0.76899600  1
  H  669  1  0.46053700  0.80247000  0.78099300  1
  H  670  1  0.48453100  0.75473500  0.77560200  1
  H  671  1  0.49082300  0.79492400  0.75651300  1
  H  673  1  0.54272600  0.73430400  0.73163700  1
  H  675  1  0.76050100  0.73868600  0.75029800  1
  H  682  1  0.70678600  0.78412100  0.25779900  1
  H  686  1  0.57840400  0.72553900  0.19441700  1
  H  688  1  0.56961300  0.62770000  0.18729300  1
  H  689  1  0.51181300  0.62003600  0.18883400  1
  H  690  1  0.54353300  0.62284300  0.21318000  1
  H  692  1  0.46228700  0.67709900  0.20069600  1
  H  693  1  0.48535500  0.72506800  0.20641300  1
  H  694  1  0.49132400  0.68486000  0.22552300  1
  H  696  1  0.54135200  0.75103500  0.24733800  1
  H  698  1  0.76000600  0.73805200  0.23628200  1
  H  705  1  0.09700000  0.20411600  0.25889500  1
  H  709  1  0.22824800  0.25815400  0.19304200  1
  H  711  1  0.24162800  0.35329900  0.18760700  1
  H  712  1  0.29932500  0.36043500  0.19025000  1
  H  713  1  0.26580500  0.35707200  0.21398400  1
  H  715  1  0.34755600  0.30234200  0.20199800  1
  H  716  1  0.32346900  0.25462600  0.20734600  1
  H  717  1  0.31720400  0.29478700  0.22645800  1
  H  719  1  0.26499200  0.23328700  0.25111200  1
  H  721  1  0.04730800  0.24008400  0.23254900  1
  H  728  1  0.10060900  0.28392100  0.72514000  1
  H  732  1  0.22912100  0.22518900  0.78842800  1
  H  734  1  0.23858000  0.12765100  0.79535800  1
  H  735  1  0.29639000  0.12013700  0.79375100  1
  H  736  1  0.26456300  0.12295900  0.76944100  1
  H  738  1  0.34571700  0.17740600  0.78196700  1
  H  739  1  0.32246600  0.22531500  0.77627900  1
  H  740  1  0.31663900  0.18513000  0.75714800  1
  H  742  1  0.26627000  0.25208300  0.73551200  1
  H  744  1  0.04780300  0.23700400  0.74651800  1
  H  769  1  0.91729300  0.35683800  0.33106500  1
  H  770  1  0.95187100  0.42085900  0.32406700  1
  H  771  1  0.95485200  0.56987400  0.32456500  1
  H  772  1  0.92185100  0.63484800  0.33064100  1
  H  773  1  0.80377400  0.57801400  0.35057400  1
  H  774  1  0.80158300  0.41723800  0.35153700  1
  H  775  1  0.81705100  0.49562100  0.30196100  1
  H  776  1  0.67773800  0.50154600  0.29888100  1
  H  777  1  0.67446900  0.50427900  0.33780500  1
  H  778  1  0.89004300  0.48933400  0.38022300  1
  H  779  1  0.74300400  0.50512800  0.41049900  1
  H  780  1  0.80505800  0.49739800  0.43433300  1
  H  783  1  0.95198800  0.49514900  0.33939600  1
  H  784  1  0.93162900  0.49590300  0.31226400  1
  H  786  1  0.72208700  0.53236800  0.37100500  1
  H  787  1  0.71692800  0.47878600  0.37227300  1
  H  816  1  0.91598600  0.63764200  0.63673200  1
  H  817  1  0.95042800  0.57325800  0.64264300  1
  H  818  1  0.95169700  0.42499600  0.64259100  1
  H  819  1  0.91767200  0.36017600  0.63789500  1
  H  820  1  0.79743800  0.41734200  0.62140700  1
  H  821  1  0.79726900  0.57864300  0.61948700  1
  H  822  1  0.81937700  0.49625400  0.66979400  1
  H  823  1  0.68082900  0.50209100  0.67847300  1
  H  824  1  0.67089000  0.50281800  0.64015300  1
  H  825  1  0.87691900  0.49557200  0.58622400  1
  H  826  1  0.72142000  0.49759900  0.56621300  1
  H  827  1  0.77598900  0.49479300  0.53869400  1
  H  830  1  0.94783400  0.49899800  0.62755500  1
  H  831  1  0.93043800  0.49904600  0.65519500  1
  H  833  1  0.70757400  0.47375000  0.60532100  1
  H  834  1  0.70978300  0.52766300  0.60500300  1
  H  863  1  0.88771700  0.85984100  0.64103800  1
  H  864  1  0.85403000  0.92451380  0.64697200  1
  H  865  1  0.85478600  0.07354800  0.64654800  1
  H  866  1  0.88880400  0.13787000  0.63957200  1
  H  867  1  0.00501000  0.07841000  0.61915400  1
  H  868  1  0.00544500  0.91762980  0.62122100  1
  H  869  1  0.99070200  0.99725383  0.66922600  1
  H  870  1  0.13007500  0.00171400  0.67234600  1
  H  871  1  0.13344200  0.00390100  0.63341100  1
  H  872  1  0.91781400  0.98991380  0.59095400  1
  H  873  1  0.06507100  0.00394600  0.56068000  1
  H  874  1  0.00299400  0.99629883  0.53685200  1
  H  877  1  0.85582900  0.99861183  0.63165600  1
  H  878  1  0.87606800  0.99921983  0.65881100  1
  H  880  1  0.08608700  0.03186900  0.60001600  1
  H  881  1  0.09087100  0.97823380  0.59908000  1
  H  910  1  0.88946000  0.13504500  0.33361000  1
  H  911  1  0.85576600  0.07010700  0.32879900  1
  H  912  1  0.85785200  0.92184680  0.32839700  1
  H  913  1  0.89263700  0.85758200  0.33417700  1
  H  914  1  0.01112200  0.91700080  0.35147300  1
  H  915  1  0.00996300  0.07830700  0.34996900  1
  H  916  1  0.98851200  0.99479583  0.30139800  1
  H  917  1  0.12700700  0.00145600  0.29268100  1
  H  918  1  0.13695500  0.00271400  0.33099800  1
  H  919  1  0.93099900  0.99504083  0.38496100  1
  H  920  1  0.08642900  0.99915283  0.40497200  1
  H  921  1  0.03188300  0.99638183  0.43249800  1
  H  924  1  0.86006000  0.99597183  0.34366000  1
  H  925  1  0.87740900  0.99625783  0.31601300  1
  H  927  1  0.10041300  0.97422480  0.36606200  1
  H  928  1  0.09794600  0.02813300  0.36594200  1
  H  957  1  0.41844100  0.85656100  0.83128800  1
  H  958  1  0.45346800  0.92051480  0.82448100  1
  H  959  1  0.45638700  0.06995600  0.82497500  1
  H  960  1  0.42305600  0.13485100  0.83097000  1
  H  961  1  0.30545700  0.07763800  0.85124300  1
  H  962  1  0.30327900  0.91734380  0.85212100  1
  H  963  1  0.31991000  0.99406683  0.80284500  1
  H  964  1  0.18077300  0.00103500  0.79902100  1
  H  965  1  0.17668300  0.00440000  0.83797600  1
  H  966  1  0.39195600  0.98938980  0.88073700  1
  H  967  1  0.24475600  0.00340200  0.91110910  1
  H  968  1  0.30688800  0.99537883  0.93487910  1
  H  971  1  0.45389300  0.99505983  0.83993800  1
  H  972  1  0.43340100  0.99577283  0.81283300  1
  H  974  1  0.22385200  0.03176800  0.87161900  1
  H  975  1  0.21874200  0.97817280  0.87264100  1
  H  1004  1  0.41728200  0.13822200  0.13602900  1
  H  1005  1  0.45230300  0.07394800  0.14164200  1
  H  1006  1  0.45362800  0.92525880  0.14177100  1
  H  1007  1  0.41926100  0.86047600  0.13732600  1
  H  1008  1  0.29919200  0.91789680  0.12089200  1
  H  1009  1  0.29882700  0.07868900  0.11890000  1
  H  1010  1  0.32283800  0.00213100  0.16886300  1
  H  1011  1  0.18455500  0.99794583  0.17862600  1
  H  1012  1  0.17336000  0.99615683  0.14035800  1
  H  1013  1  0.37841400  0.99620583  0.08552900  1
  H  1014  1  0.22269700  0.99752783  0.06584700  1
  H  1015  1  0.27718000  0.99601283  0.03817400  1
  H  1018  1  0.44981300  0.99935983  0.12650300  1
  H  1019  1  0.43275700  0.99959983  0.15419100  1
  H  1021  1  0.21057500  0.97066680  0.10494600  1
  H  1022  1  0.21005700  0.02460900  0.10501600  1
  H  1051  1  0.38650800  0.35963200  0.14092100  1
  H  1052  1  0.35247000  0.42425800  0.14668500  1
  H  1053  1  0.35336300  0.57370700  0.14612900  1
  H  1054  1  0.38776600  0.63792200  0.13921100  1
  H  1055  1  0.50338300  0.57798500  0.11843300  1
  H  1056  1  0.50363900  0.41769100  0.12054300  1
  H  1057  1  0.48789500  0.49561000  0.16830100  1
  H  1058  1  0.62710400  0.50120400  0.17210800  1
  H  1059  1  0.63124400  0.50409300  0.13314400  1
  H  1060  1  0.41586100  0.48994400  0.09041400  1
  H  1061  1  0.56322200  0.50225500  0.06001000  1
  H  1062  1  0.50102900  0.49431400  0.03626500  1
  H  1065  1  0.35393800  0.49857200  0.13116500  1
  H  1066  1  0.37441300  0.49918600  0.15827300  1
  H  1068  1  0.58424800  0.53132600  0.09933000  1
  H  1069  1  0.58904900  0.47768900  0.09863100  1
  H  1098  1  0.38810500  0.63555100  0.83424600  1
  H  1099  1  0.35390100  0.57071300  0.82974500  1
  H  1100  1  0.35597000  0.42204400  0.82926800  1
  H  1101  1  0.39116600  0.35782500  0.83477500  1
  H  1102  1  0.50946500  0.41755500  0.85198100  1
  H  1103  1  0.50833000  0.57835900  0.85061700  1
  H  1104  1  0.48501300  0.50062300  0.80234400  1
  H  1105  1  0.62332200  0.49743700  0.79257600  1
  H  1106  1  0.63455400  0.49619300  0.83085100  1
  H  1107  1  0.42954700  0.49567600  0.88571000  1
  H  1108  1  0.58524700  0.49903900  0.90535110  1
  H  1109  1  0.53081000  0.49739200  0.93304310  1
  H  1112  1  0.35809100  0.49628500  0.84471800  1
  H  1113  1  0.37513700  0.49672000  0.81703100  1
  H  1115  1  0.59751200  0.47120100  0.86646200  1
  H  1116  1  0.59769100  0.52513700  0.86598200  1
  H  1127  1  0.81154400  0.48872100  0.49382200  1
  H  1131  1  0.98009900  0.53297800  0.44341900  1
  H  1133  1  0.04788600  0.46213100  0.46615700  1
  H  1134  1  0.09681100  0.48397400  0.45580200  1
  H  1135  1  0.05264300  0.47203100  0.43775800  1
  H  1137  1  0.09861700  0.55725300  0.44610800  1
  H  1138  1  0.04969800  0.58645200  0.44730500  1
  H  1139  1  0.05669400  0.55011400  0.42614100  1
  H  1141  1  0.93950400  0.46821900  0.43818300  1
  H  1143  1  0.84189300  0.54218200  0.52621700  1
  H  1150  1  0.99611500  0.98854180  0.47727100  1
  H  1154  1  0.82783900  0.03302500  0.52788200  1
  H  1156  1  0.75981800  0.96241280  0.50520100  1
  H  1157  1  0.71095800  0.98441480  0.51553400  1
  H  1158  1  0.75508700  0.97241780  0.53359000  1
  H  1160  1  0.70938600  0.05773900  0.52516300  1
  H  1161  1  0.75839800  0.08680800  0.52392700  1
  H  1162  1  0.75129600  0.05056500  0.54513100  1
  H  1164  1  0.86830200  0.96822880  0.53304500  1
  H  1166  1  0.96529400  0.04260200  0.44509600  1
  H  1173  1  0.31384700  0.98841680  0.99387906  1
  H  1177  1  0.48204500  0.03237800  0.94307810  1
  H  1179  1  0.55026600  0.96246980  0.96585410  1
  H  1180  1  0.59905900  0.98458880  0.95551110  1
  H  1181  1  0.55496800  0.97245080  0.93746010  1
  H  1183  1  0.60035400  0.05792500  0.94583510  1
  H  1184  1  0.55123300  0.08683700  0.94707910  1
  H  1185  1  0.55843700  0.05059200  0.92588710  1
  H  1187  1  0.44176500  0.96714480  0.93843210  1
  H  1189  1  0.34446900  0.04346800  0.02587100  1
  H  1196  1  0.49379100  0.48819800  0.97724810  1
  H  1200  1  0.32578300  0.53242400  0.02820100  1
  H  1202  1  0.25749800  0.46277700  0.00541000  1
  H  1203  1  0.20873200  0.48495300  0.01575000  1
  H  1204  1  0.25281300  0.47279000  0.03380100  1
  H  1206  1  0.20753000  0.55831000  0.02540100  1
  H  1207  1  0.25668500  0.58717200  0.02414100  1
  H  1208  1  0.24944400  0.55096400  0.04535000  1
  H  1210  1  0.36593700  0.46719400  0.03275800  1
  H  1212  1  0.46283800  0.54385600  0.94525910  1
  H  1219  1  0.96079600  0.74635200  0.31784200  1
  H  1223  1  0.81835000  0.69975200  0.38632300  1
  H  1225  1  0.75642300  0.78318600  0.38372100  1
  H  1226  1  0.73090200  0.77592000  0.40924200  1
  H  1227  1  0.73050400  0.73602500  0.38977500  1
  H  1229  1  0.76913600  0.73500700  0.43793300  1
  H  1230  1  0.81953800  0.71032600  0.43189100  1
  H  1231  1  0.76896900  0.69131900  0.42098800  1
  H  1233  1  0.80969400  0.69946500  0.34525400  1
  H  1235  1  0.00161300  0.79305900  0.34958900  1
  H  1242  1  0.95628700  0.24869400  0.65393400  1
  H  1246  1  0.81579100  0.29677100  0.58480800  1
  H  1248  1  0.75424500  0.21311600  0.58646900  1
  H  1249  1  0.72935800  0.22082200  0.56083500  1
  H  1250  1  0.72829800  0.26031400  0.58053100  1
  H  1252  1  0.76822900  0.26242900  0.53262100  1
  H  1253  1  0.81841500  0.28707600  0.53912800  1
  H  1254  1  0.76751300  0.30579800  0.54980000  1
  H  1256  1  0.80575300  0.29489100  0.62659700  1
  H  1258  1  0.99747600  0.20183900  0.62165800  1
  H  1265  1  0.84824000  0.74863700  0.65343200  1
  H  1269  1  0.98972500  0.79662200  0.58483200  1
  H  1271  1  0.05206900  0.71341400  0.58704300  1
  H  1272  1  0.07744500  0.72111900  0.56152400  1
  H  1273  1  0.07773000  0.76076000  0.58114000  1
  H  1275  1  0.03887800  0.76224500  0.53302700  1
  H  1276  1  0.98837500  0.78662900  0.53921300  1
  H  1277  1  0.03889500  0.80571600  0.55013200  1
  H  1279  1  0.99932900  0.79557100  0.62603000  1
  H  1281  1  0.80723400  0.70251800  0.62118200  1
  H  1288  1  0.85051200  0.24625900  0.31740800  1
  H  1292  1  0.99121700  0.19946400  0.38664600  1
  H  1294  1  0.05279300  0.28326700  0.38440000  1
  H  1295  1  0.07804600  0.27588700  0.40997600  1
  H  1296  1  0.07890200  0.23617300  0.39040700  1
  H  1298  1  0.03964800  0.23458900  0.43845800  1
  H  1299  1  0.98944100  0.20975500  0.43220600  1
  H  1300  1  0.04024300  0.19101700  0.42142800  1
  H  1302  1  0.00136100  0.20061500  0.34497400  1
  H  1304  1  0.80935000  0.29332100  0.34971100  1
  H  1311  1  0.46112400  0.24644300  0.81828900  1
  H  1315  1  0.31866100  0.19970100  0.88672000  1
  H  1317  1  0.25640900  0.28317100  0.88381400  1
  H  1318  1  0.23056500  0.27585900  0.90925210  1
  H  1319  1  0.23046200  0.23598400  0.88977300  1
  H  1321  1  0.26846800  0.23500700  0.93805710  1
  H  1322  1  0.31896000  0.21034700  0.93217510  1
  H  1323  1  0.26854400  0.19130700  0.92111910  1
  H  1325  1  0.31012500  0.19878600  0.84572700  1
  H  1327  1  0.50132800  0.29395900  0.84974600  1
  H  1334  1  0.45682200  0.74867200  0.15347000  1
  H  1338  1  0.31565300  0.79695900  0.08460100  1
  H  1340  1  0.25423800  0.71319700  0.08642000  1
  H  1341  1  0.22913800  0.72082700  0.06082900  1
  H  1342  1  0.22815200  0.76034700  0.08051200  1
  H  1344  1  0.26770800  0.76244700  0.03252500  1
  H  1345  1  0.31790100  0.78718100  0.03892400  1
  H  1346  1  0.26704700  0.80584500  0.04968200  1
  H  1348  1  0.30643000  0.79575000  0.12631600  1
  H  1350  1  0.49732000  0.70115500  0.12131900  1
  H  1357  1  0.34787200  0.24878600  0.15314000  1
  H  1361  1  0.48989700  0.29670400  0.08475600  1
  H  1363  1  0.55219900  0.21346800  0.08705800  1
  H  1364  1  0.57772700  0.22116200  0.06157500  1
  H  1365  1  0.57792000  0.26080000  0.08119200  1
  H  1367  1  0.53935300  0.26230300  0.03302300  1
  H  1368  1  0.48882800  0.28670800  0.03913600  1
  H  1369  1  0.53929000  0.30577500  0.05012700  1
  H  1371  1  0.49898000  0.29600600  0.12596200  1
  H  1373  1  0.30713400  0.20225200  0.12121300  1
  H  1380  1  0.35044200  0.74637900  0.81760200  1
  H  1384  1  0.49160300  0.69959800  0.88668600  1
  H  1386  1  0.55282600  0.78336500  0.88445400  1
  H  1387  1  0.57820200  0.77603600  0.91000410  1
  H  1388  1  0.57899500  0.73629600  0.89045000  1
  H  1390  1  0.53997100  0.73471700  0.93854210  1
  H  1391  1  0.48974400  0.70986000  0.93235110  1
  H  1392  1  0.54050200  0.69113800  0.92151710  1
  H  1394  1  0.50099600  0.70041700  0.84498300  1
  H  1396  1  0.30938200  0.79378100  0.84967200  1
  H  1403  1  0.71047800  0.46083000  0.21797700  1
  H  1407  1  0.57959300  0.51488800  0.28397100  1
  H  1409  1  0.56658500  0.61026600  0.28953300  1
  H  1410  1  0.50888400  0.61747200  0.28695300  1
  H  1411  1  0.54230500  0.61413000  0.26318400  1
  H  1413  1  0.46053700  0.55947600  0.27518100  1
  H  1414  1  0.48453100  0.51174100  0.26979000  1
  H  1415  1  0.49082300  0.55193000  0.25070100  1
  H  1417  1  0.54272600  0.49131000  0.22582500  1
  H  1419  1  0.76050100  0.49569200  0.24448600  1
  H  1426  1  0.70678600  0.54112700  0.75198700  1
  H  1430  1  0.57840400  0.48254500  0.68860500  1
  H  1432  1  0.56961300  0.38470600  0.68148100  1
  H  1433  1  0.51181300  0.37704200  0.68302200  1
  H  1434  1  0.54353300  0.37984900  0.70736800  1
  H  1436  1  0.46228700  0.43410500  0.69488400  1
  H  1437  1  0.48535500  0.48207400  0.70060100  1
  H  1438  1  0.49132400  0.44186600  0.71971100  1
  H  1440  1  0.54135200  0.50804100  0.74152600  1
  H  1442  1  0.76000600  0.49505800  0.73047000  1
  H  1449  1  0.09700000  0.96112180  0.75308300  1
  H  1453  1  0.22824800  0.01516000  0.68723000  1
  H  1455  1  0.24162800  0.11030500  0.68179500  1
  H  1456  1  0.29932500  0.11744100  0.68443800  1
  H  1457  1  0.26580500  0.11407800  0.70817200  1
  H  1459  1  0.34755600  0.05934800  0.69618600  1
  H  1460  1  0.32346900  0.01163200  0.70153400  1
  H  1461  1  0.31720400  0.05179300  0.72064600  1
  H  1463  1  0.26499200  0.99029283  0.74530000  1
  H  1465  1  0.04730800  0.99708983  0.72673700  1
  H  1472  1  0.10060900  0.04092700  0.21932800  1
  H  1476  1  0.22912100  0.98219480  0.28261600  1
  H  1478  1  0.23858000  0.88465700  0.28954600  1
  H  1479  1  0.29639000  0.87714300  0.28793900  1
  H  1480  1  0.26456300  0.87996500  0.26362900  1
  H  1482  1  0.34571700  0.93441180  0.27615500  1
  H  1483  1  0.32246600  0.98232080  0.27046700  1
  H  1484  1  0.31663900  0.94213580  0.25133600  1
  H  1486  1  0.26627000  0.00908900  0.22970000  1
  H  1488  1  0.04780300  0.99400983  0.24070600  1
  C  1  1  0.82234700  0.74039100  0.87738300  1
  C  2  1  0.77937500  0.74436900  0.88666200  1
  C  3  1  0.74410100  0.74413300  0.84906700  1
  C  4  1  0.78643200  0.74123900  0.83892100  1
  C  5  1  0.78707600  0.74026100  0.81558100  1
  C  6  1  0.74776700  0.74142600  0.80268300  1
  C  7  1  0.70665600  0.74368900  0.81341200  1
  C  8  1  0.70493200  0.74523100  0.83628000  1
  C  9  1  0.77401300  0.74545200  0.90961500  1
  C  10  1  0.81046300  0.74118500  0.92371200  1
  C  11  1  0.85339700  0.73595900  0.91520300  1
  C  12  1  0.85876700  0.73627000  0.89219600  1
  C  13  1  0.85290400  0.70032700  0.84742900  1
  C  14  1  0.89719000  0.70059600  0.83943800  1
  C  15  1  0.89883500  0.77772300  0.83979400  1
  C  16  1  0.85449900  0.77927700  0.84764300  1
  C  17  1  0.92292300  0.81403500  0.83608100  1
  C  18  1  0.90381400  0.85230800  0.83980300  1
  C  19  1  0.85984200  0.85536500  0.84725500  1
  C  20  1  0.83586200  0.81879300  0.85104300  1
  C  21  1  0.83335200  0.66142400  0.85146400  1
  C  22  1  0.85634100  0.62419400  0.84800000  1
  C  23  1  0.89993800  0.62593000  0.83990000  1
  C  24  1  0.91996800  0.66360900  0.83565200  1
  C  37  1  0.82890200  0.74019400  0.85265600  1
  C  38  1  0.92181200  0.73881100  0.83526700  1
  C  41  1  0.73876400  0.74667000  0.87307800  1
  C  48  1  0.81153900  0.74070800  0.10538000  1
  C  49  1  0.76622700  0.74150300  0.09885100  1
  C  50  1  0.73947900  0.74304800  0.13772200  1
  C  51  1  0.78374000  0.74154900  0.14574800  1
  C  52  1  0.78818600  0.74062500  0.16904800  1
  C  53  1  0.75104100  0.74135200  0.18358600  1
  C  54  1  0.70830000  0.74385400  0.17458400  1
  C  55  1  0.70260300  0.74446100  0.15197800  1
  C  56  1  0.75412800  0.74065400  0.07664300  1
  C  57  1  0.78639600  0.73932200  0.06040500  1
  C  58  1  0.83199000  0.73987400  0.06558400  1
  C  59  1  0.84394900  0.73954500  0.08813000  1
  C  60  1  0.84910100  0.78077400  0.13355200  1
  C  61  1  0.89424800  0.78016900  0.14030300  1
  C  62  1  0.89478200  0.70323200  0.14044500  1
  C  63  1  0.84944600  0.70192700  0.13402200  1
  C  64  1  0.91909500  0.66690500  0.14369200  1
  C  65  1  0.89934000  0.62871500  0.14080400  1
  C  66  1  0.85448800  0.62579800  0.13474900  1
  C  67  1  0.83019100  0.66244100  0.13150200  1
  C  68  1  0.82973300  0.81998700  0.13013300  1
  C  69  1  0.85354900  0.85698100  0.13306900  1
  C  70  1  0.89797900  0.85475900  0.13992200  1
  C  71  1  0.91796500  0.81685900  0.14349500  1
  C  84  1  0.82338200  0.74116600  0.12979400  1
  C  85  1  0.91877600  0.74187200  0.14409200  1
  C  88  1  0.72884800  0.74308100  0.11431000  1
  C  95  1  0.98558000  0.24048800  0.10541700  1
  C  96  1  0.02860600  0.24396800  0.09613900  1
  C  97  1  0.06378900  0.24436400  0.13375600  1
  C  98  1  0.02140400  0.24211800  0.14389300  1
  C  99  1  0.02070700  0.24150200  0.16723700  1
  C  100  1  0.06001100  0.24235600  0.18015000  1
  C  101  1  0.10116400  0.24407300  0.16942800  1
  C  102  1  0.10294300  0.24530000  0.14655600  1
  C  103  1  0.03402700  0.24458500  0.07318500  1
  C  104  1  0.99755900  0.24043800  0.05908800  1
  C  105  1  0.95456100  0.23570300  0.06760200  1
  C  106  1  0.94915100  0.23641700  0.09060500  1
  C  107  1  0.95424200  0.20185100  0.13572200  1
  C  108  1  0.90975600  0.20308000  0.14341800  1
  C  109  1  0.90982600  0.28021300  0.14283600  1
  C  110  1  0.95402800  0.28079700  0.13477000  1
  C  111  1  0.88661200  0.31703200  0.14649200  1
  C  112  1  0.90631100  0.35488500  0.14227300  1
  C  113  1  0.94994600  0.35695100  0.13425200  1
  C  114  1  0.97315200  0.31988600  0.13070000  1
  C  115  1  0.97337300  0.16252000  0.13244500  1
  C  116  1  0.94963800  0.12576600  0.13618000  1
  C  117  1  0.90559800  0.12848700  0.14357500  1
  C  118  1  0.88608200  0.16659100  0.14723500  1
  C  131  1  0.97895200  0.24118300  0.13014000  1
  C  132  1  0.88596400  0.24178900  0.14744400  1
  C  135  1  0.06920100  0.24635000  0.10973300  1
  C  142  1  0.99634100  0.24080600  0.87742500  1
  C  143  1  0.04163700  0.24211900  0.88395000  1
  C  144  1  0.06839400  0.24263600  0.84507100  1
  C  145  1  0.02414700  0.24063600  0.83705500  1
  C  146  1  0.01969800  0.23939400  0.81375800  1
  C  147  1  0.05682300  0.24030000  0.79921200  1
  C  148  1  0.09955300  0.24310400  0.80820200  1
  C  149  1  0.10525700  0.24400900  0.83080600  1
  C  150  1  0.05372600  0.24190900  0.90616500  1
  C  151  1  0.02146100  0.24059100  0.92240700  1
  C  152  1  0.97585900  0.24058500  0.91722400  1
  C  153  1  0.96394300  0.23960000  0.89467900  1
  C  154  1  0.95819700  0.27947500  0.84889500  1
  C  155  1  0.91287000  0.27803800  0.84247600  1
  C  156  1  0.91386100  0.20110600  0.84241300  1
  C  157  1  0.95903300  0.20063000  0.84913900  1
  C  158  1  0.89032900  0.16434300  0.83915000  1
  C  159  1  0.91051800  0.12651300  0.84264900  1
  C  160  1  0.95496800  0.12444500  0.84949100  1
  C  161  1  0.97863400  0.16150500  0.85246700  1
  C  162  1  0.97722500  0.31905400  0.85149700  1
  C  163  1  0.95276800  0.35563000  0.84831700  1
  C  164  1  0.90792700  0.35255200  0.84227000  1
  C  165  1  0.88836800  0.31428900  0.83931500  1
  C  178  1  0.98450600  0.24032400  0.85300900  1
  C  179  1  0.88909900  0.23931900  0.83873600  1
  C  182  1  0.07901500  0.24338000  0.86848200  1
  C  189  1  0.32418900  0.24013500  0.37800900  1
  C  190  1  0.28114700  0.24367600  0.38725600  1
  C  191  1  0.24617000  0.24392100  0.34958400  1
  C  192  1  0.28861800  0.24088100  0.33959000  1
  C  193  1  0.28979000  0.23917400  0.31630700  1
  C  194  1  0.25079500  0.24003900  0.30326300  1
  C  195  1  0.20946900  0.24322200  0.31373300  1
  C  196  1  0.20727100  0.24516500  0.33659800  1
  C  197  1  0.27578900  0.24412500  0.41021300  1
  C  198  1  0.31231000  0.23979100  0.42427800  1
  C  199  1  0.35530600  0.23512400  0.41572300  1
  C  200  1  0.36066100  0.23602300  0.39275100  1
  C  201  1  0.35488700  0.20020200  0.34812200  1
  C  202  1  0.39909100  0.20043100  0.34005000  1
  C  203  1  0.40064500  0.27761800  0.34037700  1
  C  204  1  0.35637100  0.27910200  0.34830300  1
  C  205  1  0.42450700  0.31402200  0.33656000  1
  C  206  1  0.40521700  0.35224800  0.34025100  1
  C  207  1  0.36125900  0.35516000  0.34774700  1
  C  208  1  0.33753000  0.31853100  0.35167300  1
  C  209  1  0.33506900  0.16141700  0.35206300  1
  C  210  1  0.35773900  0.12414800  0.34840100  1
  C  211  1  0.40133600  0.12572500  0.34027600  1
  C  212  1  0.42162800  0.16335900  0.33614700  1
  C  225  1  0.33091300  0.24001000  0.35334300  1
  C  226  1  0.42367000  0.23869100  0.33584700  1
  C  229  1  0.24059200  0.24615000  0.37360500  1
  C  236  1  0.31312000  0.24093300  0.60477300  1
  C  237  1  0.26771400  0.24113900  0.59839600  1
  C  238  1  0.24170100  0.24080100  0.63740400  1
  C  239  1  0.28615700  0.24189900  0.64516100  1
  C  240  1  0.29143000  0.24357900  0.66837500  1
  C  241  1  0.25478600  0.24366600  0.68315100  1
  C  242  1  0.21171700  0.24122000  0.67451300  1
  C  243  1  0.20526600  0.24010200  0.65194700  1
  C  244  1  0.25544000  0.24091100  0.57620100  1
  C  245  1  0.28761800  0.24029200  0.55988500  1
  C  246  1  0.33322700  0.24068800  0.56502800  1
  C  247  1  0.34540200  0.24011100  0.58750400  1
  C  248  1  0.35111900  0.28114000  0.63266800  1
  C  249  1  0.39630600  0.28061900  0.63933500  1
  C  250  1  0.39681700  0.20362600  0.63964100  1
  C  251  1  0.35142800  0.20235000  0.63333000  1
  C  252  1  0.42098800  0.16722900  0.64293900  1
  C  253  1  0.40103000  0.12906300  0.64019900  1
  C  254  1  0.35612200  0.12624400  0.63422100  1
  C  255  1  0.33198200  0.16292600  0.63092800  1
  C  256  1  0.33139400  0.32020400  0.62940100  1
  C  257  1  0.35494000  0.35725900  0.63242900  1
  C  258  1  0.39948300  0.35524900  0.63914700  1
  C  259  1  0.41981600  0.31741800  0.64253300  1
  C  272  1  0.32541100  0.24155300  0.62908000  1
  C  273  1  0.42088800  0.24231400  0.64312300  1
  C  276  1  0.23055900  0.24078000  0.61403300  1
  C  283  1  0.48370800  0.74019000  0.60474800  1
  C  284  1  0.52678300  0.74327000  0.59549200  1
  C  285  1  0.56172400  0.74417800  0.63316500  1
  C  286  1  0.51923300  0.74173600  0.64316700  1
  C  287  1  0.51803500  0.74036800  0.66645800  1
  C  288  1  0.55703900  0.74093000  0.67949600  1
  C  289  1  0.59840200  0.74361100  0.66902100  1
  C  290  1  0.60062600  0.74527800  0.64615200  1
  C  291  1  0.53216800  0.74327000  0.57253500  1
  C  292  1  0.49562400  0.73894900  0.55848600  1
  C  293  1  0.45257200  0.73483900  0.56705100  1
  C  294  1  0.44720700  0.73612000  0.59001800  1
  C  295  1  0.45223700  0.70172000  0.63500300  1
  C  296  1  0.40786600  0.70295000  0.64282800  1
  C  297  1  0.40806900  0.78013900  0.64222900  1
  C  298  1  0.45219000  0.78061800  0.63406800  1
  C  299  1  0.38512400  0.81706600  0.64598800  1
  C  300  1  0.40505100  0.85485600  0.64181100  1
  C  301  1  0.44862800  0.85674800  0.63369600  1
  C  302  1  0.47154600  0.81960200  0.63001900  1
  C  303  1  0.47157600  0.66248600  0.63180100  1
  C  304  1  0.44813300  0.62571700  0.63575300  1
  C  305  1  0.40415500  0.62832600  0.64326900  1
  C  306  1  0.38443300  0.66640000  0.64682400  1
  C  319  1  0.47694200  0.74097500  0.62940800  1
  C  320  1  0.38415700  0.74172300  0.64688600  1
  C  323  1  0.56733800  0.74586900  0.60913600  1
  C  330  1  0.49480000  0.74100500  0.37806800  1
  C  331  1  0.54020600  0.74172200  0.38443500  1
  C  332  1  0.56620300  0.74045100  0.34543000  1
  C  333  1  0.52173300  0.74099700  0.33767500  1
  C  334  1  0.51643400  0.74233600  0.31445600  1
  C  335  1  0.55307500  0.74265400  0.29968200  1
  C  336  1  0.59617000  0.74059200  0.30831800  1
  C  337  1  0.60263500  0.73976800  0.33088500  1
  C  338  1  0.55249800  0.74205400  0.40662800  1
  C  339  1  0.52034500  0.74136400  0.42295500  1
  C  340  1  0.47473700  0.74107800  0.41781500  1
  C  341  1  0.46253900  0.74010900  0.39534700  1
  C  342  1  0.45616400  0.77982300  0.34981900  1
  C  343  1  0.41081500  0.77844300  0.34345400  1
  C  344  1  0.41186100  0.70145600  0.34325700  1
  C  345  1  0.45708700  0.70103300  0.34986800  1
  C  346  1  0.38848700  0.66461400  0.33995600  1
  C  347  1  0.40891900  0.62681600  0.34328600  1
  C  348  1  0.45344800  0.62487000  0.35002000  1
  C  349  1  0.47692500  0.66197900  0.35305600  1
  C  350  1  0.47550400  0.81926300  0.35227300  1
  C  351  1  0.45130400  0.85588100  0.34895900  1
  C  352  1  0.40637200  0.85299100  0.34302300  1
  C  353  1  0.38650800  0.81479000  0.34025100  1
  C  366  1  0.48248900  0.74070500  0.35376100  1
  C  367  1  0.38700900  0.73970300  0.33972200  1
  C  370  1  0.57735500  0.74111800  0.36879700  1
  C  377  1  0.89898900  0.73567900  0.96713700  1
  C  379  1  0.84413800  0.73603300  0.99556900  1
  C  380  1  0.87564400  0.74871800  0.01125400  1
  C  382  1  0.93094500  0.74917000  0.98281400  1
  C  385  1  0.99589900  0.76821100  0.96287300  1
  C  388  1  0.06074400  0.72644800  0.95983400  1
  C  392  1  0.06282000  0.79936100  0.94923300  1
  C  396  1  0.90989600  0.72388700  0.94589000  1
  C  398  1  0.86150500  0.76077900  0.03184400  1
  C  400  1  0.90882100  0.23558100  0.01568400  1
  C  402  1  0.96354600  0.23587600  0.98718600  1
  C  403  1  0.93200200  0.24867800  0.97154800  1
  C  405  1  0.87683300  0.24917600  0.00005000  1
  C  408  1  0.81199100  0.26838900  0.02004600  1
  C  411  1  0.74702200  0.22680200  0.02312800  1
  C  415  1  0.74518400  0.29976400  0.03365700  1
  C  419  1  0.89795200  0.22380400  0.03694000  1
  C  421  1  0.94601800  0.26097700  0.95097300  1
  C  423  1  0.40129900  0.23517900  0.46722300  1
  C  425  1  0.34639100  0.23590700  0.49558600  1
  C  426  1  0.37778300  0.24939100  0.51111400  1
  C  428  1  0.43316200  0.24935800  0.48275500  1
  C  431  1  0.49790800  0.26825200  0.46261200  1
  C  434  1  0.56299600  0.22687800  0.45954300  1
  C  438  1  0.56455600  0.29983400  0.44897900  1
  C  442  1  0.41219600  0.22291100  0.44610300  1
  C  444  1  0.36363900  0.26177700  0.53160500  1
  C  446  1  0.40643900  0.73518900  0.51559500  1
  C  448  1  0.46127100  0.73575200  0.48718600  1
  C  449  1  0.42988500  0.74936400  0.47168700  1
  C  451  1  0.37458900  0.74946000  0.50008300  1
  C  454  1  0.30992900  0.76853500  0.52025300  1
  C  457  1  0.24479500  0.72720700  0.52334000  1
  C  461  1  0.24332800  0.80018700  0.53387900  1
  C  465  1  0.39555500  0.72286600  0.53670900  1
  C  467  1  0.44401900  0.76195500  0.45124100  1
  C  469  1  0.87460000  0.95837800  0.85276900  1
  C  471  1  0.93722800  0.99077900  0.83563200  1
  C  472  1  0.93664000  0.02318900  0.85079600  1
  C  474  1  0.87423800  0.99059700  0.86840800  1
  C  477  1  0.82034500  0.97215400  0.89565700  1
  C  480  1  0.75030300  0.00381600  0.90237100  1
  C  484  1  0.78730600  0.96194100  0.93097600  1
  C  488  1  0.83988700  0.93043300  0.85061200  1
  C  490  1  0.97265600  0.04962700  0.85284800  1
  C  492  1  0.87090400  0.52330000  0.13021500  1
  C  494  1  0.93308900  0.49057600  0.14758500  1
  C  495  1  0.93273900  0.45838600  0.13228900  1
  C  497  1  0.87112500  0.49149200  0.11434900  1
  C  500  1  0.81804900  0.51046300  0.08688000  1
  C  503  1  0.74836600  0.47871800  0.07953700  1
  C  507  1  0.78601600  0.52127300  0.05140400  1
  C  511  1  0.83560600  0.55064000  0.13246000  1
  C  513  1  0.96842400  0.43163600  0.13030800  1
  C  515  1  0.93432100  0.02302800  0.13017700  1
  C  517  1  0.87171800  0.99041000  0.14721700  1
  C  518  1  0.87213100  0.95827300  0.13188600  1
  C  520  1  0.93435900  0.99123400  0.11429200  1
  C  523  1  0.98786500  0.01024700  0.08700200  1
  C  526  1  0.05802500  0.97896600  0.08009500  1
  C  530  1  0.02068400  0.02105700  0.05168500  1
  C  534  1  0.96923500  0.05077900  0.13243400  1
  C  536  1  0.83611800  0.93188500  0.12965700  1
  C  538  1  0.93618100  0.45827000  0.85275600  1
  C  540  1  0.87379300  0.49061200  0.83533400  1
  C  541  1  0.87406700  0.52296600  0.85052100  1
  C  543  1  0.93596100  0.49033300  0.86848600  1
  C  546  1  0.98914100  0.47185500  0.89600600  1
  C  549  1  0.05888500  0.50380600  0.90301000  1
  C  553  1  0.02172300  0.46153600  0.93141300  1
  C  557  1  0.97148900  0.43089200  0.85064200  1
  C  559  1  0.83826200  0.54962200  0.85249900  1
  C  561  1  0.37486100  0.45835400  0.35311000  1
  C  563  1  0.43743200  0.49084900  0.33602200  1
  C  564  1  0.43648300  0.52336500  0.35110300  1
  C  566  1  0.37415700  0.49068400  0.36868300  1
  C  569  1  0.32032100  0.47216700  0.39594100  1
  C  572  1  0.25014700  0.50378200  0.40243800  1
  C  576  1  0.28681100  0.46194200  0.43116000  1
  C  580  1  0.34047100  0.43009000  0.35104400  1
  C  582  1  0.47213700  0.55018300  0.35313000  1
  C  584  1  0.37143500  0.02362200  0.62986300  1
  C  586  1  0.43349800  0.99062700  0.64717800  1
  C  587  1  0.43275100  0.95838100  0.63193200  1
  C  589  1  0.37122600  0.99168300  0.61406700  1
  C  592  1  0.31790100  0.01064800  0.58668800  1
  C  595  1  0.24821500  0.97877300  0.57949000  1
  C  599  1  0.28556600  0.02134500  0.55126600  1
  C  603  1  0.33642400  0.05121900  0.63210600  1
  C  605  1  0.46807300  0.93127400  0.62991500  1
  C  607  1  0.43406500  0.52316100  0.62998500  1
  C  609  1  0.37142100  0.49058700  0.64695600  1
  C  610  1  0.37201600  0.45852100  0.63160400  1
  C  612  1  0.43437100  0.49130800  0.61413700  1
  C  615  1  0.48805400  0.51033200  0.58692600  1
  C  618  1  0.55824100  0.47901800  0.58011900  1
  C  622  1  0.52108900  0.52112500  0.55165600  1
  C  626  1  0.46878100  0.55100900  0.63225600  1
  C  628  1  0.33625800  0.43190300  0.62945700  1
  C  630  1  0.43591800  0.95828400  0.35303000  1
  C  632  1  0.37369600  0.99068200  0.33554500  1
  C  633  1  0.37408400  0.02302600  0.35072500  1
  C  635  1  0.43588200  0.99040800  0.36871200  1
  C  638  1  0.48924300  0.97191900  0.39615600  1
  C  641  1  0.55899200  0.00392700  0.40306500  1
  C  645  1  0.52199200  0.96165400  0.43151900  1
  C  649  1  0.47104800  0.93085000  0.35084400  1
  C  651  1  0.33849200  0.04984000  0.35261700  1
  C  653  1  0.60984900  0.74162500  0.73025500  1
  C  655  1  0.68565800  0.71935100  0.73153600  1
  C  656  1  0.69298400  0.73816000  0.75206500  1
  C  658  1  0.61676800  0.76048600  0.75089400  1
  C  661  1  0.56802900  0.77850700  0.77938300  1
  C  664  1  0.53758700  0.84535400  0.78553100  1
  C  668  1  0.48945500  0.78745100  0.77388700  1
  C  672  1  0.56737500  0.73786600  0.72106400  1
  C  674  1  0.73584500  0.73936000  0.76104900  1
  C  676  1  0.60775800  0.74259300  0.25112000  1
  C  678  1  0.68323500  0.76650700  0.25039300  1
  C  679  1  0.69355800  0.74330600  0.23155700  1
  C  681  1  0.61763200  0.71963000  0.23204300  1
  C  684  1  0.56919400  0.70227400  0.20374200  1
  C  687  1  0.53987400  0.63509000  0.19668200  1
  C  691  1  0.49066000  0.69239900  0.20814800  1
  C  695  1  0.56403800  0.74705100  0.25888200  1
  C  697  1  0.73778000  0.73997700  0.22436300  1
  C  699  1  0.19796200  0.24119200  0.25251500  1
  C  701  1  0.12196400  0.21952800  0.25119200  1
  C  702  1  0.11478600  0.23863000  0.23073000  1
  C  704  1  0.19119500  0.26040700  0.23196200  1
  C  707  1  0.24001100  0.27853200  0.20352800  1
  C  710  1  0.27057600  0.34533500  0.19744600  1
  C  714  1  0.31859800  0.28734800  0.20907900  1
  C  718  1  0.24040000  0.23705300  0.26169800  1
  C  720  1  0.07193000  0.24036400  0.22177300  1
  C  722  1  0.19999000  0.24296600  0.73163700  1
  C  724  1  0.12431100  0.26637100  0.73247400  1
  C  725  1  0.11418800  0.24281900  0.75120600  1
  C  727  1  0.19032500  0.21975400  0.75065700  1
  C  730  1  0.23870600  0.20225000  0.77896300  1
  C  733  1  0.26825500  0.13515100  0.78594800  1
  C  737  1  0.31728400  0.19263200  0.77452700  1
  C  741  1  0.24368600  0.24791200  0.72393700  1
  C  743  1  0.07002800  0.23909700  0.75842900  1
  C  745  1  0.82234700  0.49739700  0.37157100  1
  C  746  1  0.77937500  0.50137500  0.38085000  1
  C  747  1  0.74410100  0.50113900  0.34325500  1
  C  748  1  0.78643200  0.49824500  0.33310900  1
  C  749  1  0.78707600  0.49726700  0.30976900  1
  C  750  1  0.74776700  0.49843200  0.29687100  1
  C  751  1  0.70665600  0.50069500  0.30760000  1
  C  752  1  0.70493200  0.50223700  0.33046800  1
  C  753  1  0.77401300  0.50245800  0.40380300  1
  C  754  1  0.81046300  0.49819100  0.41790000  1
  C  755  1  0.85339700  0.49296500  0.40939100  1
  C  756  1  0.85876700  0.49327600  0.38638400  1
  C  757  1  0.85290400  0.45733300  0.34161700  1
  C  758  1  0.89719000  0.45760200  0.33362600  1
  C  759  1  0.89883500  0.53472900  0.33398200  1
  C  760  1  0.85449900  0.53628300  0.34183100  1
  C  761  1  0.92292300  0.57104100  0.33026900  1
  C  762  1  0.90381400  0.60931400  0.33399100  1
  C  763  1  0.85984200  0.61237100  0.34144300  1
  C  764  1  0.83586200  0.57579900  0.34523100  1
  C  765  1  0.83335200  0.41843000  0.34565200  1
  C  766  1  0.85634100  0.38120000  0.34218800  1
  C  767  1  0.89993800  0.38293600  0.33408800  1
  C  768  1  0.91996800  0.42061500  0.32984000  1
  C  781  1  0.82890200  0.49720000  0.34684400  1
  C  782  1  0.92181200  0.49581700  0.32945500  1
  C  785  1  0.73876400  0.50367600  0.36726600  1
  C  792  1  0.81153900  0.49771400  0.59956800  1
  C  793  1  0.76622700  0.49850900  0.59303900  1
  C  794  1  0.73947900  0.50005400  0.63191000  1
  C  795  1  0.78374000  0.49855500  0.63993600  1
  C  796  1  0.78818600  0.49763100  0.66323600  1
  C  797  1  0.75104100  0.49835800  0.67777400  1
  C  798  1  0.70830000  0.50086000  0.66877200  1
  C  799  1  0.70260300  0.50146700  0.64616600  1
  C  800  1  0.75412800  0.49766000  0.57083100  1
  C  801  1  0.78639600  0.49632800  0.55459300  1
  C  802  1  0.83199000  0.49688000  0.55977200  1
  C  803  1  0.84394900  0.49655100  0.58231800  1
  C  804  1  0.84910100  0.53778000  0.62774000  1
  C  805  1  0.89424800  0.53717500  0.63449100  1
  C  806  1  0.89478200  0.46023800  0.63463300  1
  C  807  1  0.84944600  0.45893300  0.62821000  1
  C  808  1  0.91909500  0.42391100  0.63788000  1
  C  809  1  0.89934000  0.38572100  0.63499200  1
  C  810  1  0.85448800  0.38280400  0.62893700  1
  C  811  1  0.83019100  0.41944700  0.62569000  1
  C  812  1  0.82973300  0.57699300  0.62432100  1
  C  813  1  0.85354900  0.61398700  0.62725700  1
  C  814  1  0.89797900  0.61176500  0.63411000  1
  C  815  1  0.91796500  0.57386500  0.63768300  1
  C  828  1  0.82338200  0.49817200  0.62398200  1
  C  829  1  0.91877600  0.49887800  0.63828000  1
  C  832  1  0.72884800  0.50008700  0.60849800  1
  C  839  1  0.98558000  0.99749383  0.59960500  1
  C  840  1  0.02860600  0.00097400  0.59032700  1
  C  841  1  0.06378900  0.00137000  0.62794400  1
  C  842  1  0.02140400  0.99912383  0.63808100  1
  C  843  1  0.02070700  0.99850783  0.66142500  1
  C  844  1  0.06001100  0.99936183  0.67433800  1
  C  845  1  0.10116400  0.00107900  0.66361600  1
  C  846  1  0.10294300  0.00230600  0.64074400  1
  C  847  1  0.03402700  0.00159100  0.56737300  1
  C  848  1  0.99755900  0.99744383  0.55327600  1
  C  849  1  0.95456100  0.99270883  0.56179000  1
  C  850  1  0.94915100  0.99342283  0.58479300  1
  C  851  1  0.95424200  0.95885680  0.62991000  1
  C  852  1  0.90975600  0.96008580  0.63760600  1
  C  853  1  0.90982600  0.03721900  0.63702400  1
  C  854  1  0.95402800  0.03780300  0.62895800  1
  C  855  1  0.88661200  0.07403800  0.64068000  1
  C  856  1  0.90631100  0.11189100  0.63646100  1
  C  857  1  0.94994600  0.11395700  0.62844000  1
  C  858  1  0.97315200  0.07689200  0.62488800  1
  C  859  1  0.97337300  0.91952580  0.62663300  1
  C  860  1  0.94963800  0.88277200  0.63036800  1
  C  861  1  0.90559800  0.88549300  0.63776300  1
  C  862  1  0.88608200  0.92359680  0.64142300  1
  C  875  1  0.97895200  0.99818883  0.62432800  1
  C  876  1  0.88596400  0.99879483  0.64163200  1
  C  879  1  0.06920100  0.00335600  0.60392100  1
  C  886  1  0.99634100  0.99781183  0.37161300  1
  C  887  1  0.04163700  0.99912483  0.37813800  1
  C  888  1  0.06839400  0.99964183  0.33925900  1
  C  889  1  0.02414700  0.99764183  0.33124300  1
  C  890  1  0.01969800  0.99639983  0.30794600  1
  C  891  1  0.05682300  0.99730583  0.29340000  1
  C  892  1  0.09955300  0.00011000  0.30239000  1
  C  893  1  0.10525700  0.00101500  0.32499400  1
  C  894  1  0.05372600  0.99891483  0.40035300  1
  C  895  1  0.02146100  0.99759683  0.41659500  1
  C  896  1  0.97585900  0.99759083  0.41141200  1
  C  897  1  0.96394300  0.99660583  0.38886700  1
  C  898  1  0.95819700  0.03648100  0.34308300  1
  C  899  1  0.91287000  0.03504400  0.33666400  1
  C  900  1  0.91386100  0.95811180  0.33660100  1
  C  901  1  0.95903300  0.95763580  0.34332700  1
  C  902  1  0.89032900  0.92134880  0.33333333  1
  C  903  1  0.91051800  0.88351900  0.33683700  1
  C  904  1  0.95496800  0.88145100  0.34367900  1
  C  905  1  0.97863400  0.91851080  0.34665500  1
  C  906  1  0.97722500  0.07606000  0.34568500  1
  C  907  1  0.95276800  0.11263600  0.34250500  1
  C  908  1  0.90792700  0.10955800  0.33645800  1
  C  909  1  0.88836800  0.07129500  0.33350300  1
  C  922  1  0.98450600  0.99732983  0.34719700  1
  C  923  1  0.88909900  0.99632483  0.33292400  1
  C  926  1  0.07901500  0.00038600  0.36267000  1
  C  933  1  0.32418900  0.99714083  0.87219700  1
  C  934  1  0.28114700  0.00068200  0.88144400  1
  C  935  1  0.24617000  0.00092700  0.84377200  1
  C  936  1  0.28861800  0.99788683  0.83377800  1
  C  937  1  0.28979000  0.99617983  0.81049500  1
  C  938  1  0.25079500  0.99704483  0.79745100  1
  C  939  1  0.20946900  0.00022800  0.80792100  1
  C  940  1  0.20727100  0.00217100  0.83078600  1
  C  941  1  0.27578900  0.00113100  0.90440110  1
  C  942  1  0.31231000  0.99679683  0.91846610  1
  C  943  1  0.35530600  0.99212983  0.90991110  1
  C  944  1  0.36066100  0.99302883  0.88693900  1
  C  945  1  0.35488700  0.95720780  0.84231000  1
  C  946  1  0.39909100  0.95743680  0.83423800  1
  C  947  1  0.40064500  0.03462400  0.83456500  1
  C  948  1  0.35637100  0.03610800  0.84249100  1
  C  949  1  0.42450700  0.07102800  0.83074800  1
  C  950  1  0.40521700  0.10925400  0.83443900  1
  C  951  1  0.36125900  0.11216600  0.84193500  1
  C  952  1  0.33753000  0.07553700  0.84586100  1
  C  953  1  0.33506900  0.91842280  0.84625100  1
  C  954  1  0.35773900  0.88115400  0.84258900  1
  C  955  1  0.40133600  0.88273100  0.83446400  1
  C  956  1  0.42162800  0.92036480  0.83033500  1
  C  969  1  0.33091300  0.99701583  0.84753100  1
  C  970  1  0.42367000  0.99569683  0.83003500  1
  C  973  1  0.24059200  0.00315600  0.86779300  1
  C  980  1  0.31312000  0.99793883  0.09896100  1
  C  981  1  0.26771400  0.99814483  0.09258400  1
  C  982  1  0.24170100  0.99780683  0.13159200  1
  C  983  1  0.28615700  0.99890483  0.13934900  1
  C  984  1  0.29143000  0.00058500  0.16256300  1
  C  985  1  0.25478600  0.00067200  0.17733900  1
  C  986  1  0.21171700  0.99822583  0.16870100  1
  C  987  1  0.20526600  0.99710783  0.14613500  1
  C  988  1  0.25544000  0.99791683  0.07038900  1
  C  989  1  0.28761800  0.99729783  0.05407300  1
  C  990  1  0.33322700  0.99769383  0.05921600  1
  C  991  1  0.34540200  0.99711683  0.08169200  1
  C  992  1  0.35111900  0.03814600  0.12685600  1
  C  993  1  0.39630600  0.03762500  0.13352300  1
  C  994  1  0.39681700  0.96063180  0.13382900  1
  C  995  1  0.35142800  0.95935580  0.12751800  1
  C  996  1  0.42098800  0.92423480  0.13712700  1
  C  997  1  0.40103000  0.88606900  0.13438700  1
  C  998  1  0.35612200  0.88325000  0.12840900  1
  C  999  1  0.33198200  0.91993180  0.12511600  1
  C  1000  1  0.33139400  0.07721000  0.12358900  1
  C  1001  1  0.35494000  0.11426500  0.12661700  1
  C  1002  1  0.39948300  0.11225500  0.13333500  1
  C  1003  1  0.41981600  0.07442400  0.13672100  1
  C  1016  1  0.32541100  0.99855883  0.12326800  1
  C  1017  1  0.42088800  0.99931983  0.13731100  1
  C  1020  1  0.23055900  0.99778583  0.10822100  1
  C  1027  1  0.48370800  0.49719600  0.09893600  1
  C  1028  1  0.52678300  0.50027600  0.08968000  1
  C  1029  1  0.56172400  0.50118400  0.12735300  1
  C  1030  1  0.51923300  0.49874200  0.13735500  1
  C  1031  1  0.51803500  0.49737400  0.16064600  1
  C  1032  1  0.55703900  0.49793600  0.17368400  1
  C  1033  1  0.59840200  0.50061700  0.16320900  1
  C  1034  1  0.60062600  0.50228400  0.14034000  1
  C  1035  1  0.53216800  0.50027600  0.06672300  1
  C  1036  1  0.49562400  0.49595500  0.05267400  1
  C  1037  1  0.45257200  0.49184500  0.06123900  1
  C  1038  1  0.44720700  0.49312600  0.08420600  1
  C  1039  1  0.45223700  0.45872600  0.12919100  1
  C  1040  1  0.40786600  0.45995600  0.13701600  1
  C  1041  1  0.40806900  0.53714500  0.13641700  1
  C  1042  1  0.45219000  0.53762400  0.12825600  1
  C  1043  1  0.38512400  0.57407200  0.14017600  1
  C  1044  1  0.40505100  0.61186200  0.13599900  1
  C  1045  1  0.44862800  0.61375400  0.12788400  1
  C  1046  1  0.47154600  0.57660800  0.12420700  1
  C  1047  1  0.47157600  0.41949200  0.12598900  1
  C  1048  1  0.44813300  0.38272300  0.12994100  1
  C  1049  1  0.40415500  0.38533200  0.13745700  1
  C  1050  1  0.38443300  0.42340600  0.14101200  1
  C  1063  1  0.47694200  0.49798100  0.12359600  1
  C  1064  1  0.38415700  0.49872900  0.14107400  1
  C  1067  1  0.56733800  0.50287500  0.10332400  1
  C  1074  1  0.49480000  0.49801100  0.87225600  1
  C  1075  1  0.54020600  0.49872800  0.87862300  1
  C  1076  1  0.56620300  0.49745700  0.83961800  1
  C  1077  1  0.52173300  0.49800300  0.83186300  1
  C  1078  1  0.51643400  0.49934200  0.80864400  1
  C  1079  1  0.55307500  0.49966000  0.79387000  1
  C  1080  1  0.59617000  0.49759800  0.80250600  1
  C  1081  1  0.60263500  0.49677400  0.82507300  1
  C  1082  1  0.55249800  0.49906000  0.90081610  1
  C  1083  1  0.52034500  0.49837000  0.91714310  1
  C  1084  1  0.47473700  0.49808400  0.91200310  1
  C  1085  1  0.46253900  0.49711500  0.88953500  1
  C  1086  1  0.45616400  0.53682900  0.84400700  1
  C  1087  1  0.41081500  0.53544900  0.83764200  1
  C  1088  1  0.41186100  0.45846200  0.83744500  1
  C  1089  1  0.45708700  0.45803900  0.84405600  1
  C  1090  1  0.38848700  0.42162000  0.83414400  1
  C  1091  1  0.40891900  0.38382200  0.83747400  1
  C  1092  1  0.45344800  0.38187600  0.84420800  1
  C  1093  1  0.47692500  0.41898500  0.84724400  1
  C  1094  1  0.47550400  0.57626900  0.84646100  1
  C  1095  1  0.45130400  0.61288700  0.84314700  1
  C  1096  1  0.40637200  0.60999700  0.83721100  1
  C  1097  1  0.38650800  0.57179600  0.83443900  1
  C  1110  1  0.48248900  0.49771100  0.84794900  1
  C  1111  1  0.38700900  0.49670900  0.83391000  1
  C  1114  1  0.57735500  0.49812400  0.86298500  1
  C  1121  1  0.89898900  0.49268500  0.46132500  1
  C  1123  1  0.84413800  0.49303900  0.48975700  1
  C  1124  1  0.87564400  0.50572400  0.50544200  1
  C  1126  1  0.93094500  0.50617600  0.47700200  1
  C  1129  1  0.99589900  0.52521700  0.45706100  1
  C  1132  1  0.06074400  0.48345400  0.45402200  1
  C  1136  1  0.06282000  0.55636700  0.44342100  1
  C  1140  1  0.90989600  0.48089300  0.44007800  1
  C  1142  1  0.86150500  0.51778500  0.52603200  1
  C  1144  1  0.90882100  0.99258683  0.50987200  1
  C  1146  1  0.96354600  0.99288183  0.48137400  1
  C  1147  1  0.93200200  0.00568400  0.46573600  1
  C  1149  1  0.87683300  0.00618200  0.49423800  1
  C  1152  1  0.81199100  0.02539500  0.51423400  1
  C  1155  1  0.74702200  0.98380780  0.51731600  1
  C  1159  1  0.74518400  0.05677000  0.52784500  1
  C  1163  1  0.89795200  0.98080980  0.53112800  1
  C  1165  1  0.94601800  0.01798300  0.44516100  1
  C  1167  1  0.40129900  0.99218483  0.96141110  1
  C  1169  1  0.34639100  0.99291283  0.98977410  1
  C  1170  1  0.37778300  0.00639700  0.00530200  1
  C  1172  1  0.43316200  0.00636400  0.97694310  1
  C  1175  1  0.49790800  0.02525800  0.95680010  1
  C  1178  1  0.56299600  0.98388380  0.95373110  1
  C  1182  1  0.56455600  0.05684000  0.94316710  1
  C  1186  1  0.41219600  0.97991680  0.94029110  1
  C  1188  1  0.36363900  0.01878300  0.02579300  1
  C  1190  1  0.40643900  0.49219500  0.00978300  1
  C  1192  1  0.46127100  0.49275800  0.98137410  1
  C  1193  1  0.42988500  0.50637000  0.96587510  1
  C  1195  1  0.37458900  0.50646600  0.99427106  1
  C  1198  1  0.30992900  0.52554100  0.01444100  1
  C  1201  1  0.24479500  0.48421300  0.01752800  1
  C  1205  1  0.24332800  0.55719300  0.02806700  1
  C  1209  1  0.39555500  0.47987200  0.03089700  1
  C  1211  1  0.44401900  0.51896100  0.94542910  1
  C  1213  1  0.87460000  0.71538400  0.34695700  1
  C  1215  1  0.93722800  0.74778500  0.32982000  1
  C  1216  1  0.93664000  0.78019500  0.34498400  1
  C  1218  1  0.87423800  0.74760300  0.36259600  1
  C  1221  1  0.82034500  0.72916000  0.38984500  1
  C  1224  1  0.75030300  0.76082200  0.39655900  1
  C  1228  1  0.78730600  0.71894700  0.42516400  1
  C  1232  1  0.83988700  0.68743900  0.34480000  1
  C  1234  1  0.97265600  0.80663300  0.34703600  1
  C  1236  1  0.87090400  0.28030600  0.62440300  1
  C  1238  1  0.93308900  0.24758200  0.64177300  1
  C  1239  1  0.93273900  0.21539200  0.62647700  1
  C  1241  1  0.87112500  0.24849800  0.60853700  1
  C  1244  1  0.81804900  0.26746900  0.58106800  1
  C  1247  1  0.74836600  0.23572400  0.57372500  1
  C  1251  1  0.78601600  0.27827900  0.54559200  1
  C  1255  1  0.83560600  0.30764600  0.62664800  1
  C  1257  1  0.96842400  0.18864200  0.62449600  1
  C  1259  1  0.93432100  0.78003400  0.62436500  1
  C  1261  1  0.87171800  0.74741600  0.64140500  1
  C  1262  1  0.87213100  0.71527900  0.62607400  1
  C  1264  1  0.93435900  0.74824000  0.60848000  1
  C  1267  1  0.98786500  0.76725300  0.58119000  1
  C  1270  1  0.05802500  0.73597200  0.57428300  1
  C  1274  1  0.02068400  0.77806300  0.54587300  1
  C  1278  1  0.96923500  0.80778500  0.62662200  1
  C  1280  1  0.83611800  0.68889100  0.62384500  1
  C  1282  1  0.93618100  0.21527600  0.34694400  1
  C  1284  1  0.87379300  0.24761800  0.32952200  1
  C  1285  1  0.87406700  0.27997200  0.34470900  1
  C  1287  1  0.93596100  0.24733900  0.36267400  1
  C  1290  1  0.98914100  0.22886100  0.39019400  1
  C  1293  1  0.05888500  0.26081200  0.39719800  1
  C  1297  1  0.02172300  0.21854200  0.42560100  1
  C  1301  1  0.97148900  0.18789800  0.34483000  1
  C  1303  1  0.83826200  0.30662800  0.34668700  1
  C  1305  1  0.37486100  0.21536000  0.84729800  1
  C  1307  1  0.43743200  0.24785500  0.83021000  1
  C  1308  1  0.43648300  0.28037100  0.84529100  1
  C  1310  1  0.37415700  0.24769000  0.86287100  1
  C  1313  1  0.32032100  0.22917300  0.89012900  1
  C  1316  1  0.25014700  0.26078800  0.89662600  1
  C  1320  1  0.28681100  0.21894800  0.92534810  1
  C  1324  1  0.34047100  0.18709600  0.84523200  1
  C  1326  1  0.47213700  0.30718900  0.84731800  1
  C  1328  1  0.37143500  0.78062800  0.12405100  1
  C  1330  1  0.43349800  0.74763300  0.14136600  1
  C  1331  1  0.43275100  0.71538700  0.12612000  1
  C  1333  1  0.37122600  0.74868900  0.10825500  1
  C  1336  1  0.31790100  0.76765400  0.08087600  1
  C  1339  1  0.24821500  0.73577900  0.07367800  1
  C  1343  1  0.28556600  0.77835100  0.04545400  1
  C  1347  1  0.33642400  0.80822500  0.12629400  1
  C  1349  1  0.46807300  0.68828000  0.12410300  1
  C  1351  1  0.43406500  0.28016700  0.12417300  1
  C  1353  1  0.37142100  0.24759300  0.14114400  1
  C  1354  1  0.37201600  0.21552700  0.12579200  1
  C  1356  1  0.43437100  0.24831400  0.10832500  1
  C  1359  1  0.48805400  0.26733800  0.08111400  1
  C  1362  1  0.55824100  0.23602400  0.07430700  1
  C  1366  1  0.52108900  0.27813100  0.04584400  1
  C  1370  1  0.46878100  0.30801500  0.12644400  1
  C  1372  1  0.33625800  0.18890900  0.12364500  1
  C  1374  1  0.43591800  0.71529000  0.84721800  1
  C  1376  1  0.37369600  0.74768800  0.82973300  1
  C  1377  1  0.37408400  0.78003200  0.84491300  1
  C  1379  1  0.43588200  0.74741400  0.86290000  1
  C  1382  1  0.48924300  0.72892500  0.89034400  1
  C  1385  1  0.55899200  0.76093300  0.89725300  1
  C  1389  1  0.52199200  0.71866000  0.92570710  1
  C  1393  1  0.47104800  0.68785600  0.84503200  1
  C  1395  1  0.33849200  0.80684600  0.84680500  1
  C  1397  1  0.60984900  0.49863100  0.22444300  1
  C  1399  1  0.68565800  0.47635700  0.22572400  1
  C  1400  1  0.69298400  0.49516600  0.24625300  1
  C  1402  1  0.61676800  0.51749200  0.24508200  1
  C  1405  1  0.56802900  0.53551300  0.27357100  1
  C  1408  1  0.53758700  0.60236000  0.27971900  1
  C  1412  1  0.48945500  0.54445700  0.26807500  1
  C  1416  1  0.56737500  0.49487200  0.21525200  1
  C  1418  1  0.73584500  0.49636600  0.25523700  1
  C  1420  1  0.60775800  0.49959900  0.74530800  1
  C  1422  1  0.68323500  0.52351300  0.74458100  1
  C  1423  1  0.69355800  0.50031200  0.72574500  1
  C  1425  1  0.61763200  0.47663600  0.72623100  1
  C  1428  1  0.56919400  0.45928000  0.69793000  1
  C  1431  1  0.53987400  0.39209600  0.69087000  1
  C  1435  1  0.49066000  0.44940500  0.70233600  1
  C  1439  1  0.56403800  0.50405700  0.75307000  1
  C  1441  1  0.73778000  0.49698300  0.71855100  1
  C  1443  1  0.19796200  0.99819783  0.74670300  1
  C  1445  1  0.12196400  0.97653380  0.74538000  1
  C  1446  1  0.11478600  0.99563583  0.72491800  1
  C  1448  1  0.19119500  0.01741300  0.72615000  1
  C  1451  1  0.24001100  0.03553800  0.69771600  1
  C  1454  1  0.27057600  0.10234100  0.69163400  1
  C  1458  1  0.31859800  0.04435400  0.70326700  1
  C  1462  1  0.24040000  0.99405883  0.75588600  1
  C  1464  1  0.07193000  0.99736983  0.71596100  1
  C  1466  1  0.19999000  0.99997183  0.22582500  1
  C  1468  1  0.12431100  0.02337700  0.22666200  1
  C  1469  1  0.11418800  0.99982483  0.24539400  1
  C  1471  1  0.19032500  0.97675980  0.24484500  1
  C  1474  1  0.23870600  0.95925580  0.27315100  1
  C  1477  1  0.26825500  0.89215700  0.28013600  1
  C  1481  1  0.31728400  0.94963780  0.26871500  1
  C  1485  1  0.24368600  0.00491800  0.21812500  1
  C  1487  1  0.07002800  0.99610283  0.25261700  1
  N  44  1  0.83944600  0.89131200  0.84888400  1
  N  45  1  0.88794900  0.72675600  0.92788600  1
  N  46  1  0.75007800  0.74041900  0.78092100  1
  N  47  1  0.83568000  0.58876500  0.85134100  1
  N  91  1  0.83401200  0.58980700  0.13377700  1
  N  92  1  0.85934000  0.73594900  0.04823100  1
  N  93  1  0.75624900  0.73967300  0.20526900  1
  N  94  1  0.83314700  0.89271500  0.13032600  1
  N  138  1  0.97064700  0.39245900  0.13123100  1
  N  139  1  0.91995400  0.22661100  0.05493200  1
  N  140  1  0.05764300  0.24150900  0.20191100  1
  N  141  1  0.97009400  0.08987600  0.13435100  1
  N  185  1  0.97555100  0.08879500  0.85216400  1
  N  186  1  0.94857300  0.23622800  0.93457000  1
  N  187  1  0.05160100  0.23860200  0.77753100  1
  N  188  1  0.97305600  0.39171500  0.84934600  1
  N  232  1  0.34059400  0.39097100  0.34936700  1
  N  233  1  0.39010000  0.22572600  0.42816000  1
  N  234  1  0.25408200  0.23750300  0.28163200  1
  N  235  1  0.33651000  0.08898900  0.35155700  1
  N  279  1  0.33535200  0.09039900  0.63335000  1
  N  280  1  0.36064400  0.23664500  0.54778400  1
  N  281  1  0.26109700  0.24736900  0.70464300  1
  N  282  1  0.33393400  0.39272000  0.62996200  1
  N  326  1  0.46970400  0.89208200  0.63076700  1
  N  327  1  0.41767700  0.72556200  0.55464900  1
  N  328  1  0.55373300  0.73843500  0.70112700  1
  N  329  1  0.46911900  0.59010100  0.63407600  1
  N  373  1  0.47439800  0.58937500  0.35253100  1
  N  374  1  0.44738900  0.73681700  0.43507300  1
  N  375  1  0.54671700  0.74630500  0.27819300  1
  N  376  1  0.47216700  0.89167200  0.34971600  1
  N  378  1  0.85702500  0.72954300  0.97459900  1
  N  381  1  0.91763000  0.75521400  0.00388400  1
  N  384  1  0.97407200  0.75496600  0.97942300  1
  N  386  1  0.04203900  0.76785600  0.96342500  1
  N  401  1  0.95073700  0.22937300  0.00817100  1
  N  404  1  0.89008100  0.25527200  0.97897700  1
  N  407  1  0.83374500  0.25511900  0.00348000  1
  N  409  1  0.76585500  0.26814800  0.01949700  1
  N  424  1  0.35938900  0.22889100  0.47469900  1
  N  427  1  0.41974600  0.25596800  0.50374600  1
  N  430  1  0.47622400  0.25539800  0.47929600  1
  N  432  1  0.54403800  0.26817400  0.46316000  1
  N  447  1  0.44829900  0.72875000  0.50808000  1
  N  450  1  0.38798200  0.75608800  0.47909000  1
  N  453  1  0.33156000  0.75565600  0.50355800  1
  N  455  1  0.26380300  0.76848400  0.51971000  1
  N  470  1  0.90609300  0.96080200  0.83687600  1
  N  473  1  0.90542000  0.02057600  0.86675900  1
  N  476  1  0.84608200  0.99586900  0.88485700  1
  N  478  1  0.79301000  0.98869900  0.91155800  1
  N  493  1  0.90192600  0.52055500  0.14632700  1
  N  496  1  0.90211200  0.46140100  0.11609000  1
  N  499  1  0.84352300  0.48653200  0.09767500  1
  N  501  1  0.79124200  0.49416100  0.07070700  1
  N  516  1  0.90294000  0.02034500  0.14611200  1
  N  519  1  0.90315600  0.96125800  0.11584300  1
  N  522  1  0.96237000  0.98625600  0.09776300  1
  N  524  1  0.01520200  0.99402700  0.07100900  1
  N  539  1  0.90505000  0.46073300  0.83668100  1
  N  542  1  0.90483900  0.52031200  0.86668000  1
  N  545  1  0.96369900  0.49562500  0.88508400  1
  N  547  1  0.01615500  0.48840200  0.91203200  1
  N  562  1  0.40649500  0.46072000  0.33729000  1
  N  565  1  0.40513700  0.52082500  0.36700700  1
  N  568  1  0.34586000  0.49595000  0.38507100  1
  N  570  1  0.29274800  0.48868700  0.41175300  1
  N  585  1  0.40257400  0.02079700  0.64591300  1
  N  588  1  0.40198600  0.96140300  0.61579800  1
  N  591  1  0.34346300  0.98675200  0.59745500  1
  N  593  1  0.29099200  0.99427800  0.57057300  1
  N  608  1  0.40259400  0.52053000  0.64587100  1
  N  611  1  0.40320200  0.46131300  0.61564000  1
  N  614  1  0.46249900  0.48634800  0.59765400  1
  N  616  1  0.51548500  0.49410100  0.57097200  1
  N  631  1  0.40485800  0.96075900  0.33692700  1
  N  634  1  0.40484500  0.02043300  0.36688400  1
  N  637  1  0.46363800  0.99565500  0.38530600  1
  N  639  1  0.51631500  0.98851000  0.41214300  1
  N  654  1  0.64505600  0.72116900  0.72178500  1
  N  657  1  0.65766600  0.75854600  0.76062700  1
  N  660  1  0.58403500  0.78120300  0.76002000  1
  N  662  1  0.53066800  0.80057800  0.78539000  1
  N  677  1  0.64149000  0.76583500  0.25900600  1
  N  680  1  0.65969100  0.72022400  0.22352600  1
  N  683  1  0.58628000  0.69740500  0.22277900  1
  N  685  1  0.53257700  0.67980000  0.19711100  1
  N  700  1  0.16258900  0.22092000  0.26094300  1
  N  703  1  0.15026800  0.25888700  0.22223800  1
  N  706  1  0.22406800  0.28105300  0.22291100  1
  N  708  1  0.27743200  0.30055400  0.19756300  1
  N  723  1  0.16605900  0.26609600  0.72385900  1
  N  726  1  0.14826300  0.21993200  0.75918100  1
  N  729  1  0.22185300  0.19764500  0.75985800  1
  N  731  1  0.27542000  0.17988000  0.78556200  1
  N  788  1  0.83944600  0.64831800  0.34307200  1
  N  789  1  0.88794900  0.48376200  0.42207400  1
  N  790  1  0.75007800  0.49742500  0.27510900  1
  N  791  1  0.83568000  0.34577100  0.34552900  1
  N  835  1  0.83401200  0.34681300  0.62796500  1
  N  836  1  0.85934000  0.49295500  0.54241900  1
  N  837  1  0.75624900  0.49667900  0.69945700  1
  N  838  1  0.83314700  0.64972100  0.62451400  1
  N  882  1  0.97064700  0.14946500  0.62541900  1
  N  883  1  0.91995400  0.98361680  0.54912000  1
  N  884  1  0.05764300  0.99851483  0.69609900  1
  N  885  1  0.97009400  0.84688200  0.62853900  1
  N  929  1  0.97555100  0.84580100  0.34635200  1
  N  930  1  0.94857300  0.99323383  0.42875800  1
  N  931  1  0.05160100  0.99560783  0.27171900  1
  N  932  1  0.97305600  0.14872100  0.34353400  1
  N  976  1  0.34059400  0.14797700  0.84355500  1
  N  977  1  0.39010000  0.98273180  0.92234810  1
  N  978  1  0.25408200  0.99450883  0.77582000  1
  N  979  1  0.33651000  0.84599500  0.84574500  1
  N  1023  1  0.33535200  0.84740500  0.12753800  1
  N  1024  1  0.36064400  0.99365083  0.04197200  1
  N  1025  1  0.26109700  0.00437500  0.19883100  1
  N  1026  1  0.33393400  0.14972600  0.12415000  1
  N  1070  1  0.46970400  0.64908800  0.12495500  1
  N  1071  1  0.41767700  0.48256800  0.04883700  1
  N  1072  1  0.55373300  0.49544100  0.19531500  1
  N  1073  1  0.46911900  0.34710700  0.12826400  1
  N  1117  1  0.47439800  0.34638100  0.84671900  1
  N  1118  1  0.44738900  0.49382300  0.92926110  1
  N  1119  1  0.54671700  0.50331100  0.77238100  1
  N  1120  1  0.47216700  0.64867800  0.84390400  1
  N  1122  1  0.85702500  0.48654900  0.46878700  1
  N  1125  1  0.91763000  0.51222000  0.49807200  1
  N  1128  1  0.97407200  0.51197200  0.47361100  1
  N  1130  1  0.04203900  0.52486200  0.45761300  1
  N  1145  1  0.95073700  0.98637880  0.50235900  1
  N  1148  1  0.89008100  0.01227800  0.47316500  1
  N  1151  1  0.83374500  0.01212500  0.49766800  1
  N  1153  1  0.76585500  0.02515400  0.51368500  1
  N  1168  1  0.35938900  0.98589680  0.96888710  1
  N  1171  1  0.41974600  0.01297400  0.99793406  1
  N  1174  1  0.47622400  0.01240400  0.97348410  1
  N  1176  1  0.54403800  0.02518000  0.95734810  1
  N  1191  1  0.44829900  0.48575600  0.00226800  1
  N  1194  1  0.38798200  0.51309400  0.97327810  1
  N  1197  1  0.33156000  0.51266200  0.99774606  1
  N  1199  1  0.26380300  0.52549000  0.01389800  1
  N  1214  1  0.90609300  0.71780800  0.33106400  1
  N  1217  1  0.90542000  0.77758200  0.36094700  1
  N  1220  1  0.84608200  0.75287500  0.37904500  1
  N  1222  1  0.79301000  0.74570500  0.40574600  1
  N  1237  1  0.90192600  0.27756100  0.64051500  1
  N  1240  1  0.90211200  0.21840700  0.61027800  1
  N  1243  1  0.84352300  0.24353800  0.59186300  1
  N  1245  1  0.79124200  0.25116700  0.56489500  1
  N  1260  1  0.90294000  0.77735100  0.64030000  1
  N  1263  1  0.90315600  0.71826400  0.61003100  1
  N  1266  1  0.96237000  0.74326200  0.59195100  1
  N  1268  1  0.01520200  0.75103300  0.56519700  1
  N  1283  1  0.90505000  0.21773900  0.33086900  1
  N  1286  1  0.90483900  0.27731800  0.36086800  1
  N  1289  1  0.96369900  0.25263100  0.37927200  1
  N  1291  1  0.01615500  0.24540800  0.40622000  1
  N  1306  1  0.40649500  0.21772600  0.83147800  1
  N  1309  1  0.40513700  0.27783100  0.86119500  1
  N  1312  1  0.34586000  0.25295600  0.87925900  1
  N  1314  1  0.29274800  0.24569300  0.90594110  1
  N  1329  1  0.40257400  0.77780300  0.14010100  1
  N  1332  1  0.40198600  0.71840900  0.10998600  1
  N  1335  1  0.34346300  0.74375800  0.09164300  1
  N  1337  1  0.29099200  0.75128400  0.06476100  1
  N  1352  1  0.40259400  0.27753600  0.14005900  1
  N  1355  1  0.40320200  0.21831900  0.10982800  1
  N  1358  1  0.46249900  0.24335400  0.09184200  1
  N  1360  1  0.51548500  0.25110700  0.06516000  1
  N  1375  1  0.40485800  0.71776500  0.83111500  1
  N  1378  1  0.40484500  0.77743900  0.86107200  1
  N  1381  1  0.46363800  0.75266100  0.87949400  1
  N  1383  1  0.51631500  0.74551600  0.90633110  1
  N  1398  1  0.64505600  0.47817500  0.21597300  1
  N  1401  1  0.65766600  0.51555200  0.25481500  1
  N  1404  1  0.58403500  0.53820900  0.25420800  1
  N  1406  1  0.53066800  0.55758400  0.27957800  1
  N  1421  1  0.64149000  0.52284100  0.75319400  1
  N  1424  1  0.65969100  0.47723000  0.71771400  1
  N  1427  1  0.58628000  0.45441100  0.71696700  1
  N  1429  1  0.53257700  0.43680600  0.69129900  1
  N  1444  1  0.16258900  0.97792580  0.75513100  1
  N  1447  1  0.15026800  0.01589300  0.71642600  1
  N  1450  1  0.22406800  0.03805900  0.71709900  1
  N  1452  1  0.27743200  0.05756000  0.69175100  1
  N  1467  1  0.16605900  0.02310200  0.21804700  1
  N  1470  1  0.14826300  0.97693780  0.25336900  1
  N  1473  1  0.22185300  0.95465080  0.25404600  1
  N  1475  1  0.27542000  0.93688580  0.27975000  1
