# generated using pymatgen
data_H10C13N2
_symmetry_space_group_name_H-M   'P 1'
_cell_length_a   29.09430000
_cell_length_b   39.83650000
_cell_length_c   39.83650000
_cell_angle_alpha   90.00000000
_cell_angle_beta   90.00000000
_cell_angle_gamma   90.00000000
_symmetry_Int_Tables_number   1
_chemical_formula_structural   H10C13N2
_chemical_formula_sum   'H640 C832 N128'
_cell_volume   46171.10431210
_cell_formula_units_Z   64
loop_
 _symmetry_equiv_pos_site_id
 _symmetry_equiv_pos_as_xyz
  1  'x, y, z'
loop_
 _atom_site_type_symbol
 _atom_site_label
 _atom_site_symmetry_multiplicity
 _atom_site_fract_x
 _atom_site_fract_y
 _atom_site_fract_z
 _atom_site_occupancy
  H  5  1  0.19579500  0.08049000  0.29478700  1
  H  6  1  0.14985400  0.08163000  0.32334600  1
  H  9  1  0.10149000  0.13433600  0.32757100  1
  H  10  1  0.10678200  0.16806500  0.29995300  1
  H  11  1  0.06829300  0.07785900  0.30283500  1
  H  12  1  0.05476100  0.07584400  0.25983700  1
  H  15  1  0.09449900  0.16236900  0.23718300  1
  H  16  1  0.06838800  0.12527300  0.22250000  1
  H  18  1  0.17847700  0.16309200  0.25342100  1
  H  19  1  0.21049000  0.12582900  0.25540900  1
  H  21  1  0.11817600  0.07091200  0.21701700  1
  H  22  1  0.17636600  0.07296800  0.22804400  1
  H  27  1  0.19764800  0.91374400  0.72214600  1
  H  28  1  0.15133100  0.91354600  0.69389500  1
  H  31  1  0.10261800  0.86105400  0.68851900  1
  H  32  1  0.10797700  0.82652500  0.71507200  1
  H  33  1  0.07005500  0.91676600  0.71533800  1
  H  34  1  0.05735900  0.91753200  0.75856700  1
  H  37  1  0.09649400  0.83028300  0.77805900  1
  H  38  1  0.07153400  0.86712600  0.79434300  1
  H  40  1  0.18058600  0.82987600  0.76081400  1
  H  41  1  0.21274400  0.86720600  0.75994800  1
  H  43  1  0.12190000  0.92095300  0.80093300  1
  H  44  1  0.17975900  0.91908800  0.78897700  1
  H  49  1  0.19024400  0.70899700  0.09230100  1
  H  50  1  0.14297400  0.68159500  0.09277000  1
  H  53  1  0.09391400  0.67772900  0.14532000  1
  H  54  1  0.10051800  0.70436800  0.17968100  1
  H  55  1  0.06235800  0.70463900  0.08961200  1
  H  56  1  0.05141100  0.74810200  0.08829900  1
  H  59  1  0.09183200  0.76768200  0.17536600  1
  H  60  1  0.06744800  0.78411900  0.13835100  1
  H  62  1  0.17492600  0.74844300  0.17597500  1
  H  63  1  0.20703900  0.74650000  0.13867100  1
  H  65  1  0.11763900  0.78915200  0.08460800  1
  H  66  1  0.17501100  0.77603100  0.08643400  1
  H  71  1  0.19742700  0.28430700  0.92462300  1
  H  72  1  0.15045900  0.31202300  0.92435000  1
  H  75  1  0.10146800  0.31647800  0.87172000  1
  H  76  1  0.10709500  0.28946800  0.83757800  1
  H  77  1  0.06993100  0.29007000  0.92799500  1
  H  78  1  0.05775800  0.24682500  0.92958600  1
  H  81  1  0.09648800  0.22657200  0.84206100  1
  H  82  1  0.07221000  0.21045500  0.87923000  1
  H  84  1  0.18043300  0.24479500  0.84107900  1
  H  85  1  0.21279400  0.24641300  0.87828400  1
  H  87  1  0.12273100  0.20485800  0.93260100  1
  H  88  1  0.18045200  0.21696200  0.93039700  1
  H  93  1  0.75774300  0.91470500  0.29543000  1
  H  94  1  0.80374800  0.91357100  0.32393600  1
  H  97  1  0.85223600  0.86092800  0.32806800  1
  H  98  1  0.84686300  0.82719300  0.30045500  1
  H  99  1  0.88526900  0.91740400  0.30335700  1
  H  100  1  0.89872900  0.91947200  0.26034900  1
  H  103  1  0.85898900  0.83294100  0.23766900  1
  H  104  1  0.88513200  0.87003500  0.22301200  1
  H  106  1  0.77510400  0.83215800  0.25394500  1
  H  107  1  0.74303500  0.86938500  0.25597100  1
  H  109  1  0.83523600  0.92444800  0.21761000  1
  H  110  1  0.77706600  0.92232900  0.22868900  1
  H  115  1  0.75837500  0.08284200  0.72122700  1
  H  116  1  0.80529200  0.08350900  0.69346600  1
  H  119  1  0.85353500  0.13654900  0.68913100  1
  H  120  1  0.84732700  0.17056600  0.71623400  1
  H  121  1  0.88585000  0.08039000  0.71556200  1
  H  122  1  0.89793500  0.07897400  0.75885600  1
  H  125  1  0.85815800  0.16602400  0.77912400  1
  H  126  1  0.88282900  0.12899300  0.79517400  1
  H  128  1  0.77417600  0.16641800  0.76084700  1
  H  129  1  0.74225500  0.12899800  0.75924800  1
  H  131  1  0.83279200  0.07508900  0.80063400  1
  H  132  1  0.77511400  0.07692600  0.78827100  1
  H  137  1  0.76239000  0.28622000  0.09332100  1
  H  138  1  0.80983200  0.31348600  0.09345900  1
  H  141  1  0.85918200  0.31748700  0.14589100  1
  H  142  1  0.85270300  0.29091400  0.18031800  1
  H  143  1  0.89025300  0.29037700  0.09005000  1
  H  144  1  0.90108000  0.24691100  0.08878200  1
  H  147  1  0.86132300  0.22763500  0.17615600  1
  H  148  1  0.88537300  0.21104500  0.13909400  1
  H  150  1  0.77825900  0.24704400  0.17705800  1
  H  151  1  0.74585400  0.24888800  0.13988400  1
  H  153  1  0.83481300  0.20591200  0.08561500  1
  H  154  1  0.77744800  0.21898600  0.08767500  1
  H  159  1  0.75010900  0.71707800  0.92298400  1
  H  160  1  0.79534100  0.68851600  0.92248500  1
  H  163  1  0.84553700  0.68512500  0.86568700  1
  H  164  1  0.83658300  0.71505400  0.83434900  1
  H  165  1  0.87705500  0.70600200  0.92535400  1
  H  166  1  0.89354900  0.74826800  0.92918900  1
  H  169  1  0.85696800  0.77631700  0.84378500  1
  H  170  1  0.88282600  0.78835400  0.88198700  1
  H  172  1  0.77460200  0.76032900  0.84164700  1
  H  173  1  0.74019600  0.75936300  0.87849200  1
  H  175  1  0.83240700  0.79340200  0.93535700  1
  H  176  1  0.77369800  0.78405900  0.93252800  1
  H  181  1  0.75838600  0.91467000  0.72120700  1
  H  182  1  0.80454600  0.91370900  0.69282900  1
  H  185  1  0.85324600  0.86113400  0.68866700  1
  H  186  1  0.84783300  0.82730600  0.71615600  1
  H  187  1  0.88591600  0.91763700  0.71373200  1
  H  188  1  0.89910400  0.91949500  0.75680300  1
  H  191  1  0.85963900  0.83287100  0.77901100  1
  H  192  1  0.88544800  0.86999000  0.79389200  1
  H  194  1  0.77579800  0.83198700  0.76246100  1
  H  195  1  0.74360300  0.86915700  0.76042200  1
  H  197  1  0.83527000  0.92426700  0.79931600  1
  H  198  1  0.77719700  0.92207500  0.78795700  1
  H  203  1  0.75707300  0.08294900  0.29618500  1
  H  204  1  0.80340500  0.08351200  0.32444300  1
  H  207  1  0.85213900  0.13614900  0.32919300  1
  H  208  1  0.84653300  0.17041200  0.30232300  1
  H  209  1  0.88455100  0.08035000  0.30294300  1
  H  210  1  0.89723700  0.07897200  0.25971900  1
  H  213  1  0.85771800  0.16607400  0.23932200  1
  H  214  1  0.88266400  0.12909900  0.22332300  1
  H  216  1  0.77370800  0.16652700  0.25684700  1
  H  217  1  0.74165400  0.12915500  0.25814500  1
  H  219  1  0.83267800  0.07518900  0.21745100  1
  H  220  1  0.77483200  0.07705400  0.22937700  1
  H  225  1  0.75881500  0.28508000  0.92548200  1
  H  226  1  0.80573800  0.31279300  0.92473100  1
  H  229  1  0.85372700  0.31717900  0.87166700  1
  H  230  1  0.84743700  0.29025100  0.83753200  1
  H  231  1  0.88647600  0.29043200  0.92763600  1
  H  232  1  0.89827900  0.24707600  0.92864700  1
  H  235  1  0.85787600  0.22726600  0.84184000  1
  H  236  1  0.88272600  0.21107900  0.87875800  1
  H  238  1  0.77402400  0.24562900  0.84173700  1
  H  239  1  0.74228600  0.24719800  0.87924000  1
  H  241  1  0.83282300  0.20548600  0.93280400  1
  H  242  1  0.77523100  0.21816700  0.93121500  1
  H  247  1  0.75004400  0.71758000  0.09353500  1
  H  248  1  0.79515900  0.68892500  0.09403200  1
  H  251  1  0.84537900  0.68548100  0.15083500  1
  H  252  1  0.83655200  0.71546900  0.18213800  1
  H  253  1  0.87694100  0.70622100  0.09113000  1
  H  254  1  0.89361100  0.74844800  0.08725700  1
  H  257  1  0.85717500  0.77667900  0.17260800  1
  H  258  1  0.88307700  0.78860800  0.13438800  1
  H  260  1  0.77476700  0.76087400  0.17480600  1
  H  261  1  0.74033000  0.75991300  0.13797700  1
  H  263  1  0.83261000  0.79371100  0.08102200  1
  H  264  1  0.77387300  0.78445600  0.08386300  1
  H  269  1  0.19679900  0.08157700  0.72134000  1
  H  270  1  0.14972600  0.08208000  0.69374000  1
  H  273  1  0.10134700  0.13494600  0.68932400  1
  H  274  1  0.10740600  0.16910700  0.71625400  1
  H  275  1  0.06909800  0.07882500  0.71601800  1
  H  276  1  0.05729500  0.07766700  0.75934500  1
  H  279  1  0.09703900  0.16478600  0.77917900  1
  H  280  1  0.07237600  0.12780700  0.79538800  1
  H  282  1  0.18087300  0.16525900  0.76082900  1
  H  283  1  0.21288700  0.12789400  0.75924500  1
  H  285  1  0.12263700  0.07398000  0.80098100  1
  H  286  1  0.18027500  0.07588500  0.78851500  1
  H  291  1  0.19654400  0.91247600  0.29527400  1
  H  292  1  0.15039800  0.91198200  0.32369300  1
  H  295  1  0.10186600  0.85929900  0.32885900  1
  H  296  1  0.10738900  0.82494900  0.30208400  1
  H  297  1  0.06912000  0.91500100  0.30252600  1
  H  298  1  0.05609200  0.91618100  0.25935200  1
  H  301  1  0.09559500  0.82904300  0.23913600  1
  H  302  1  0.07043900  0.86592300  0.22310200  1
  H  304  1  0.17978600  0.82876900  0.25626000  1
  H  305  1  0.21174100  0.86619500  0.25727100  1
  H  307  1  0.12029000  0.91988600  0.21679500  1
  H  308  1  0.17823600  0.91812200  0.22847600  1
  H  313  1  0.19025600  0.70885200  0.92418700  1
  H  314  1  0.14284600  0.68158000  0.92368400  1
  H  317  1  0.09389700  0.67780700  0.87106700  1
  H  318  1  0.10057500  0.70448900  0.83675400  1
  H  319  1  0.06237300  0.70476500  0.92683700  1
  H  320  1  0.05156100  0.74824500  0.92815500  1
  H  323  1  0.09200500  0.76777500  0.84107700  1
  H  324  1  0.06770500  0.78425700  0.87808800  1
  H  326  1  0.17514300  0.74838100  0.84050700  1
  H  327  1  0.20718000  0.74635200  0.87784200  1
  H  329  1  0.11791000  0.78917500  0.93184800  1
  H  330  1  0.17523600  0.77595800  0.93002300  1
  H  335  1  0.20230700  0.27878700  0.09377500  1
  H  336  1  0.15691000  0.30719000  0.09461500  1
  H  339  1  0.10760000  0.31035600  0.15171900  1
  H  340  1  0.11692600  0.28031300  0.18289900  1
  H  341  1  0.07524400  0.28943300  0.09201600  1
  H  342  1  0.05900000  0.24707300  0.08850500  1
  H  345  1  0.09651200  0.21904700  0.17335300  1
  H  346  1  0.07027000  0.20712600  0.13528200  1
  H  348  1  0.17887000  0.23504700  0.17502500  1
  H  349  1  0.21290100  0.23623400  0.13799800  1
  H  351  1  0.12045800  0.20226900  0.08142600  1
  H  352  1  0.17913100  0.21199200  0.08396500  1
  H  357  1  0.69096700  0.58179000  0.79571900  1
  H  358  1  0.64652900  0.58277400  0.82548100  1
  H  361  1  0.59750900  0.63478400  0.83125400  1
  H  362  1  0.60177800  0.66912200  0.80422600  1
  H  363  1  0.56391100  0.57929500  0.80713300  1
  H  364  1  0.54811800  0.57715100  0.76456200  1
  H  367  1  0.58784400  0.66406600  0.74130200  1
  H  368  1  0.56018200  0.62740900  0.72692000  1
  H  370  1  0.67185700  0.66449000  0.75516100  1
  H  371  1  0.70367700  0.62717500  0.75638300  1
  H  373  1  0.60896500  0.57287100  0.71993200  1
  H  374  1  0.66771100  0.57461800  0.72904900  1
  H  379  1  0.69975200  0.41510100  0.22657300  1
  H  380  1  0.65672000  0.41383100  0.19635200  1
  H  383  1  0.60935600  0.35619600  0.19045300  1
  H  384  1  0.61804200  0.32451900  0.22022100  1
  H  385  1  0.57377200  0.41448900  0.21048600  1
  H  386  1  0.55387500  0.41726000  0.25206800  1
  H  389  1  0.59343600  0.33279500  0.28086000  1
  H  390  1  0.56372500  0.36976800  0.29187800  1
  H  392  1  0.67645900  0.33317400  0.26874300  1
  H  393  1  0.70874700  0.37091600  0.26932600  1
  H  395  1  0.61092700  0.42514700  0.29945100  1
  H  396  1  0.67041300  0.42401800  0.29258600  1
  H  401  1  0.69578600  0.21649100  0.59282000  1
  H  402  1  0.65308700  0.18598500  0.59314400  1
  H  405  1  0.60384700  0.17923300  0.64977000  1
  H  406  1  0.61147000  0.20859400  0.68201900  1
  H  407  1  0.57003300  0.19959200  0.59142400  1
  H  408  1  0.54964700  0.24102700  0.58856500  1
  H  411  1  0.58684300  0.26951900  0.67390600  1
  H  412  1  0.55781000  0.28066700  0.63665700  1
  H  414  1  0.66953700  0.25761000  0.67484800  1
  H  415  1  0.70298000  0.25863700  0.63768600  1
  H  417  1  0.60630100  0.28899100  0.58228700  1
  H  418  1  0.66581400  0.28260000  0.58416700  1
  H  423  1  0.69895500  0.77920200  0.42399000  1
  H  424  1  0.65489100  0.80870200  0.42362100  1
  H  427  1  0.60520100  0.81407700  0.36706000  1
  H  428  1  0.61378700  0.78483500  0.33488300  1
  H  429  1  0.57227400  0.79296000  0.42547100  1
  H  430  1  0.55411200  0.75099900  0.42857600  1
  H  433  1  0.59203300  0.72346400  0.34307700  1
  H  434  1  0.56419600  0.71141000  0.38055500  1
  H  436  1  0.67405300  0.73759400  0.34192700  1
  H  437  1  0.70803900  0.73740300  0.37894900  1
  H  439  1  0.61328200  0.70449100  0.43459800  1
  H  440  1  0.67239600  0.71251200  0.43250700  1
  H  445  1  0.25684900  0.41275400  0.78989000  1
  H  446  1  0.29974100  0.41270400  0.82023700  1
  H  449  1  0.34941500  0.35611300  0.82693700  1
  H  450  1  0.34179300  0.32387600  0.79758900  1
  H  451  1  0.38273500  0.41463700  0.80650600  1
  H  452  1  0.40289700  0.41761900  0.76505400  1
  H  455  1  0.36598600  0.33196900  0.73670300  1
  H  456  1  0.39491600  0.36923100  0.72545900  1
  H  458  1  0.28333700  0.33079200  0.74882000  1
  H  459  1  0.24973600  0.36784800  0.74784800  1
  H  461  1  0.34622200  0.42345800  0.71719800  1
  H  462  1  0.28673000  0.42140400  0.72347400  1
  H  467  1  0.25387000  0.58097200  0.22631300  1
  H  468  1  0.29698300  0.58222700  0.19614700  1
  H  471  1  0.34429800  0.63987000  0.19021100  1
  H  472  1  0.33547500  0.67160700  0.21988600  1
  H  473  1  0.37989900  0.58166700  0.21041700  1
  H  474  1  0.39966600  0.57896300  0.25203500  1
  H  477  1  0.35989900  0.66349900  0.28057200  1
  H  478  1  0.38961200  0.62656800  0.29173500  1
  H  480  1  0.27688000  0.66301700  0.26833700  1
  H  481  1  0.24466900  0.62524500  0.26898200  1
  H  483  1  0.34249300  0.57115900  0.29934100  1
  H  484  1  0.28303100  0.57224300  0.29239500  1
  H  489  1  0.25885900  0.78056500  0.59311600  1
  H  490  1  0.30273000  0.81018100  0.59390400  1
  H  493  1  0.35232700  0.81493000  0.65057300  1
  H  494  1  0.34377900  0.78515800  0.68229300  1
  H  495  1  0.38525400  0.79489100  0.59181100  1
  H  496  1  0.40395900  0.75311500  0.58808800  1
  H  499  1  0.36609200  0.72390300  0.67308000  1
  H  500  1  0.39432500  0.71274500  0.63548200  1
  H  502  1  0.28385000  0.73760400  0.67445400  1
  H  503  1  0.25020400  0.73790500  0.63737200  1
  H  505  1  0.34547000  0.70643200  0.58126500  1
  H  506  1  0.28623800  0.71395500  0.58340400  1
  H  511  1  0.25593400  0.21578300  0.42273000  1
  H  512  1  0.29991800  0.18622800  0.42211500  1
  H  515  1  0.34926100  0.18099800  0.36527800  1
  H  516  1  0.34043300  0.21037300  0.33325200  1
  H  517  1  0.38248000  0.20183300  0.42355800  1
  H  518  1  0.40085500  0.24373900  0.42688400  1
  H  521  1  0.36237000  0.27171300  0.34156800  1
  H  522  1  0.39044400  0.28363200  0.37898400  1
  H  524  1  0.28023100  0.25761300  0.34072700  1
  H  525  1  0.24658500  0.25767000  0.37791200  1
  H  527  1  0.34195200  0.29029600  0.43325000  1
  H  528  1  0.28280100  0.28244900  0.43139800  1
  H  533  1  0.26183900  0.41323400  0.22126800  1
  H  534  1  0.30646900  0.41257100  0.19164900  1
  H  537  1  0.35585700  0.36073700  0.18588200  1
  H  538  1  0.35171800  0.32637400  0.21289200  1
  H  539  1  0.38893900  0.41647400  0.21015600  1
  H  540  1  0.40448500  0.41860800  0.25276000  1
  H  543  1  0.36543900  0.33142200  0.27579400  1
  H  544  1  0.39273300  0.36819700  0.29027400  1
  H  546  1  0.28154400  0.33058600  0.26171700  1
  H  547  1  0.24934500  0.36773500  0.26055500  1
  H  549  1  0.34352300  0.42244400  0.29726500  1
  H  550  1  0.28480600  0.42041000  0.28814500  1
  H  555  1  0.25309500  0.58061500  0.78952600  1
  H  556  1  0.29583700  0.58152100  0.81999800  1
  H  559  1  0.34372000  0.63893600  0.82661500  1
  H  560  1  0.33532400  0.67095200  0.79717800  1
  H  561  1  0.37889900  0.58089100  0.80627000  1
  H  562  1  0.39919500  0.57819500  0.76479800  1
  H  565  1  0.36015300  0.66327000  0.73654000  1
  H  566  1  0.38975300  0.62632700  0.72518800  1
  H  568  1  0.27704300  0.66299900  0.74843600  1
  H  569  1  0.24464000  0.62532500  0.74733100  1
  H  571  1  0.34272100  0.57132200  0.71698500  1
  H  572  1  0.28318900  0.57250400  0.72332800  1
  H  577  1  0.25889200  0.77973100  0.42374400  1
  H  578  1  0.30278700  0.80932500  0.42284800  1
  H  581  1  0.35230900  0.81384600  0.36610100  1
  H  582  1  0.34377200  0.78392300  0.33453200  1
  H  583  1  0.38528200  0.79402000  0.42495900  1
  H  584  1  0.40394800  0.75225100  0.42887500  1
  H  587  1  0.36614000  0.72270100  0.34400100  1
  H  588  1  0.39425600  0.71167300  0.38168700  1
  H  590  1  0.28387000  0.73648700  0.34256000  1
  H  591  1  0.25019900  0.73694600  0.37963900  1
  H  593  1  0.34537300  0.70560600  0.43588100  1
  H  594  1  0.28616000  0.71319900  0.43372200  1
  H  599  1  0.25651800  0.21579800  0.59160500  1
  H  600  1  0.29942100  0.18544800  0.59189100  1
  H  603  1  0.34895500  0.17900800  0.64844200  1
  H  604  1  0.34119800  0.20839800  0.68065400  1
  H  605  1  0.38250400  0.19930300  0.58999600  1
  H  606  1  0.40255600  0.24079200  0.58701900  1
  H  609  1  0.36518500  0.26939100  0.67233500  1
  H  610  1  0.39432100  0.28045600  0.63508800  1
  H  612  1  0.28282400  0.25723900  0.67345200  1
  H  613  1  0.24914600  0.25807500  0.63642300  1
  H  615  1  0.34558700  0.28854900  0.58070500  1
  H  616  1  0.28610500  0.28202000  0.58272100  1
  H  621  1  0.69172600  0.58288200  0.22129900  1
  H  622  1  0.64697900  0.58356700  0.19176700  1
  H  625  1  0.59767000  0.63545700  0.18609100  1
  H  626  1  0.60188100  0.66977400  0.21315100  1
  H  627  1  0.56461900  0.57966100  0.21038700  1
  H  628  1  0.54917300  0.57750700  0.25300900  1
  H  631  1  0.58823900  0.66469600  0.27603000  1
  H  632  1  0.56101000  0.62792300  0.29054500  1
  H  634  1  0.67217300  0.66551700  0.26183700  1
  H  635  1  0.70433400  0.62835500  0.26058000  1
  H  637  1  0.61023600  0.57365700  0.29741500  1
  H  638  1  0.66892800  0.57569200  0.28823000  1
  H  643  1  0.69555900  0.41358000  0.79152900  1
  H  644  1  0.65267100  0.41283400  0.82188300  1
  H  647  1  0.60414600  0.35585200  0.82818700  1
  H  648  1  0.61238800  0.32378600  0.79869900  1
  H  649  1  0.56960600  0.41404400  0.80797900  1
  H  650  1  0.54952700  0.41687100  0.76645700  1
  H  653  1  0.58812200  0.33206200  0.73774500  1
  H  654  1  0.55851100  0.36911300  0.72676700  1
  H  656  1  0.67065000  0.33167800  0.74978900  1
  H  657  1  0.70367400  0.36902800  0.74904800  1
  H  659  1  0.60653800  0.42408300  0.71882000  1
  H  660  1  0.66603800  0.42253200  0.72553700  1
  H  665  1  0.69497100  0.21661400  0.42422600  1
  H  666  1  0.65121000  0.18692300  0.42327500  1
  H  669  1  0.60220400  0.18204000  0.36620900  1
  H  670  1  0.61094800  0.21186800  0.33459700  1
  H  671  1  0.56860600  0.20197000  0.42484900  1
  H  672  1  0.54970200  0.24368400  0.42856100  1
  H  675  1  0.58827000  0.27299600  0.34365200  1
  H  676  1  0.55965600  0.28412900  0.38110500  1
  H  678  1  0.67063300  0.25941500  0.34273100  1
  H  679  1  0.70391100  0.25918700  0.37999300  1
  H  681  1  0.60781300  0.29053700  0.43552500  1
  H  682  1  0.66710000  0.28327300  0.43372500  1
  H  687  1  0.69897500  0.77890800  0.59318400  1
  H  688  1  0.65513500  0.80857900  0.59341200  1
  H  691  1  0.60554100  0.81445600  0.64994600  1
  H  692  1  0.61394100  0.78534200  0.68226300  1
  H  693  1  0.57243500  0.79316600  0.59161500  1
  H  694  1  0.55392600  0.75126700  0.58876300  1
  H  697  1  0.59162800  0.72407100  0.67441100  1
  H  698  1  0.56364300  0.71194400  0.63702100  1
  H  700  1  0.67391200  0.73779500  0.67544500  1
  H  701  1  0.70771200  0.73722500  0.63834600  1
  H  703  1  0.61270800  0.70448100  0.58295000  1
  H  704  1  0.67188800  0.71227600  0.58498500  1
  H  715  1  0.28344800  0.02749900  0.25374400  1
  H  716  1  0.28364500  0.96566100  0.25328800  1
  H  717  1  0.06053300  0.96782700  0.28422600  1
  H  718  1  0.06036800  0.02428200  0.28473900  1
  H  729  1  0.28541500  0.96685100  0.76307800  1
  H  730  1  0.28547200  0.02867400  0.76249100  1
  H  731  1  0.06162000  0.02583500  0.73492300  1
  H  732  1  0.06167200  0.96944400  0.73503400  1
  H  743  1  0.27961900  0.74840600  0.03918200  1
  H  744  1  0.27966000  0.74834800  0.97735100  1
  H  745  1  0.05520200  0.72367500  0.97996900  1
  H  746  1  0.05517500  0.72366000  0.03645700  1
  H  757  1  0.28632300  0.24108600  0.97640000  1
  H  758  1  0.28685300  0.23882000  0.03819000  1
  H  759  1  0.06453300  0.27243300  0.03784800  1
  H  760  1  0.06358800  0.27307300  0.98129000  1
  H  771  1  0.66995900  0.96776200  0.25464800  1
  H  772  1  0.66967400  0.02960000  0.25449000  1
  H  773  1  0.89290300  0.02745200  0.28493700  1
  H  774  1  0.89311300  0.97100000  0.28533100  1
  H  785  1  0.67020700  0.02959900  0.76231800  1
  H  786  1  0.67032400  0.96776700  0.76147400  1
  H  787  1  0.89385500  0.97104000  0.73229200  1
  H  788  1  0.89382800  0.02745700  0.73339200  1
  H  799  1  0.67199100  0.24602900  0.04145000  1
  H  800  1  0.67104900  0.24551100  0.97962600  1
  H  801  1  0.89535000  0.27115300  0.98035100  1
  H  802  1  0.89629900  0.27135600  0.03679000  1
  H  813  1  0.66549500  0.76017400  0.97728300  1
  H  814  1  0.66556300  0.76046800  0.03911500  1
  H  815  1  0.88624200  0.72158400  0.03663800  1
  H  816  1  0.88620400  0.72140300  0.97985400  1
  H  827  1  0.77557100  0.52988800  0.74890000  1
  H  828  1  0.77576700  0.46807800  0.74654300  1
  H  829  1  0.55685800  0.46845900  0.79063800  1
  H  830  1  0.55599500  0.52534200  0.79110300  1
  H  841  1  0.77907700  0.47061600  0.27093200  1
  H  842  1  0.77777100  0.53240600  0.26808500  1
  H  843  1  0.55796500  0.52551200  0.22669700  1
  H  844  1  0.55987900  0.46864300  0.22755300  1
  H  855  1  0.77603800  0.26353200  0.53966000  1
  H  856  1  0.77624800  0.26346200  0.47779700  1
  H  857  1  0.55825400  0.21693300  0.47981800  1
  H  858  1  0.55832900  0.21633700  0.53688900  1
  H  869  1  0.78096700  0.73316800  0.47777200  1
  H  870  1  0.78078200  0.73277900  0.53961000  1
  H  871  1  0.56181800  0.77642000  0.53711000  1
  H  872  1  0.56191100  0.77654800  0.48009400  1
  H  883  1  0.17587400  0.46461600  0.74146000  1
  H  884  1  0.17454300  0.52647100  0.74143200  1
  H  885  1  0.39170200  0.52654900  0.79004600  1
  H  886  1  0.39295300  0.46947300  0.79006600  1
  H  897  1  0.17454700  0.52550200  0.27083200  1
  H  898  1  0.17589100  0.46371200  0.26803300  1
  H  899  1  0.39567200  0.47064100  0.22660600  1
  H  900  1  0.39375100  0.52752600  0.22751100  1
  H  911  1  0.17674300  0.73503900  0.53951700  1
  H  912  1  0.17682000  0.73454400  0.47765900  1
  H  913  1  0.39562400  0.77897300  0.47986800  1
  H  914  1  0.39556500  0.77939000  0.53690900  1
  H  925  1  0.17485700  0.26263100  0.47688900  1
  H  926  1  0.17547400  0.26256000  0.53874100  1
  H  927  1  0.39351000  0.21636900  0.53517200  1
  H  928  1  0.39319000  0.21711700  0.47811900  1
  H  939  1  0.25858300  0.06051600  0.37302900  1
  H  940  1  0.31244200  0.09682900  0.40394300  1
  H  941  1  0.21774500  0.22885900  0.33138700  1
  H  942  1  0.17217300  0.19542900  0.30028000  1
  H  953  1  0.26055800  0.93518100  0.64435300  1
  H  954  1  0.31559900  0.89955800  0.61376100  1
  H  955  1  0.22011900  0.76607300  0.68305100  1
  H  956  1  0.17287000  0.79884700  0.71346000  1
  H  967  1  0.25174300  0.63112600  0.07109700  1
  H  968  1  0.30727500  0.60090800  0.10664600  1
  H  969  1  0.21241300  0.67041000  0.24022900  1
  H  970  1  0.16506300  0.70093700  0.20741300  1
  H  981  1  0.25648100  0.36391700  0.94567700  1
  H  982  1  0.31096300  0.39494400  0.90994800  1
  H  983  1  0.21875300  0.32271100  0.77676200  1
  H  984  1  0.17197100  0.29191000  0.80971900  1
  H  995  1  0.69542500  0.93461700  0.37399100  1
  H  996  1  0.64228700  0.89822000  0.40546200  1
  H  997  1  0.73642900  0.76632100  0.33233100  1
  H  998  1  0.78140400  0.79980600  0.30081200  1
  H  1009  1  0.69879000  0.06101100  0.64220900  1
  H  1010  1  0.64345600  0.09622700  0.61140600  1
  H  1011  1  0.73443200  0.23026100  0.68283300  1
  H  1012  1  0.78192300  0.19779200  0.71351600  1
  H  1023  1  0.70213700  0.36450200  0.07153400  1
  H  1024  1  0.64678300  0.39505900  0.10695200  1
  H  1025  1  0.74103800  0.32566800  0.24083100  1
  H  1026  1  0.78816800  0.29478700  0.20816100  1
  H  1037  1  0.81260600  0.59944000  0.90243800  1
  H  1038  1  0.75878400  0.56261400  0.87212600  1
  H  1039  1  0.66682100  0.69677200  0.80174100  1
  H  1040  1  0.71291600  0.73060800  0.83184900  1
  H  1051  1  0.69633200  0.93461400  0.64254300  1
  H  1052  1  0.64279200  0.89827100  0.61137800  1
  H  1053  1  0.73692800  0.76630900  0.68438900  1
  H  1054  1  0.78248300  0.79976600  0.71552900  1
  H  1065  1  0.69371000  0.06187800  0.37356400  1
  H  1066  1  0.63836900  0.09760900  0.40375200  1
  H  1067  1  0.73429100  0.23087300  0.33429900  1
  H  1068  1  0.78163800  0.19796900  0.30407300  1
  H  1079  1  0.69819800  0.36373600  0.94685200  1
  H  1080  1  0.64296100  0.39448400  0.91152000  1
  H  1081  1  0.73507200  0.32359000  0.77763000  1
  H  1082  1  0.78232100  0.29283900  0.81024300  1
  H  1093  1  0.81207000  0.59994400  0.11403300  1
  H  1094  1  0.75833100  0.56320900  0.14455000  1
  H  1095  1  0.66695900  0.69758600  0.21501900  1
  H  1096  1  0.71291600  0.73132300  0.18464500  1
  H  1107  1  0.25586800  0.06022600  0.64182500  1
  H  1108  1  0.30982500  0.09575100  0.61009600  1
  H  1109  1  0.21862600  0.22937800  0.68212000  1
  H  1110  1  0.17249900  0.19662700  0.71363600  1
  H  1121  1  0.26000700  0.93405700  0.37259500  1
  H  1122  1  0.31558900  0.89855400  0.40281400  1
  H  1123  1  0.22021500  0.76488100  0.33377100  1
  H  1124  1  0.17254300  0.79754900  0.30361100  1
  H  1135  1  0.25084300  0.63042900  0.94534000  1
  H  1136  1  0.30596500  0.59982600  0.90978500  1
  H  1137  1  0.21224200  0.67021100  0.77624200  1
  H  1138  1  0.16516500  0.70095700  0.80905600  1
  H  1149  1  0.14045200  0.39608600  0.11472000  1
  H  1150  1  0.19452700  0.43284100  0.14489000  1
  H  1151  1  0.28673300  0.29852000  0.21485300  1
  H  1152  1  0.24054300  0.26475900  0.18470700  1
  H  1163  1  0.30889700  0.14337200  0.20263600  1
  H  1164  1  0.31082300  0.18294800  0.15524100  1
  H  1165  1  0.09364900  0.15461500  0.12799000  1
  H  1166  1  0.09241700  0.11529000  0.17152300  1
  H  1177  1  0.30962900  0.83691000  0.80851100  1
  H  1178  1  0.30758200  0.79296500  0.85190600  1
  H  1179  1  0.09631500  0.83479400  0.88681900  1
  H  1180  1  0.09820500  0.87660700  0.84558500  1
  H  1191  1  0.30725500  0.79360800  0.16434200  1
  H  1192  1  0.30881300  0.83689700  0.20839600  1
  H  1193  1  0.09704600  0.87595200  0.17185500  1
  H  1194  1  0.09569900  0.83482100  0.12986600  1
  H  1205  1  0.31170800  0.19850000  0.85146700  1
  H  1206  1  0.31163400  0.15528700  0.80731900  1
  H  1207  1  0.09996000  0.11814300  0.84617800  1
  H  1208  1  0.09992500  0.15949800  0.88788800  1
  H  1219  1  0.64469700  0.85218500  0.20294400  1
  H  1220  1  0.64260000  0.81336400  0.15493500  1
  H  1221  1  0.85996200  0.84132300  0.12825300  1
  H  1222  1  0.86122700  0.88025500  0.17213100  1
  H  1233  1  0.64354200  0.15645900  0.80720300  1
  H  1234  1  0.64336300  0.19943400  0.85158000  1
  H  1235  1  0.85504000  0.16019600  0.88807900  1
  H  1236  1  0.85527400  0.11921300  0.84599200  1
  H  1247  1  0.64567600  0.20190300  0.16585600  1
  H  1248  1  0.64412300  0.15820900  0.20951000  1
  H  1249  1  0.85555600  0.11901300  0.17221700  1
  H  1250  1  0.85688600  0.16044000  0.13052500  1
  H  1261  1  0.64249000  0.81268300  0.86072700  1
  H  1262  1  0.64486200  0.85175100  0.81292400  1
  H  1263  1  0.86109600  0.87994100  0.84473900  1
  H  1264  1  0.85943600  0.84092900  0.88861900  1
  H  1275  1  0.80054500  0.64075300  0.70145400  1
  H  1276  1  0.80279600  0.68095800  0.65460000  1
  H  1277  1  0.58353700  0.65879200  0.63136700  1
  H  1278  1  0.58154300  0.61964200  0.67503300  1
  H  1289  1  0.80198200  0.35883400  0.32877800  1
  H  1290  1  0.79997400  0.31633800  0.37355900  1
  H  1291  1  0.57875900  0.33708500  0.38620800  1
  H  1292  1  0.58093200  0.37844600  0.34466800  1
  H  1303  1  0.79664700  0.31798200  0.64488300  1
  H  1304  1  0.79696400  0.36101500  0.68916600  1
  H  1305  1  0.57533300  0.37546400  0.67369500  1
  H  1306  1  0.57480000  0.33404000  0.63211800  1
  H  1317  1  0.80368600  0.68151200  0.36282800  1
  H  1318  1  0.80140400  0.64214100  0.31527300  1
  H  1319  1  0.58274300  0.61975500  0.34223100  1
  H  1320  1  0.58477100  0.65837300  0.38642700  1
  H  1331  1  0.15595600  0.36073200  0.68855100  1
  H  1332  1  0.15565400  0.31781400  0.64415500  1
  H  1333  1  0.37729400  0.33365100  0.63011700  1
  H  1334  1  0.37775400  0.37431000  0.67231000  1
  H  1345  1  0.15150400  0.63818500  0.32838700  1
  H  1346  1  0.15372600  0.68013900  0.37366900  1
  H  1347  1  0.37483300  0.65869200  0.38615000  1
  H  1348  1  0.37236500  0.61753300  0.34442500  1
  H  1359  1  0.15403100  0.68071700  0.64316600  1
  H  1360  1  0.15181300  0.63801000  0.68773800  1
  H  1361  1  0.37276000  0.61823600  0.67221400  1
  H  1362  1  0.37517000  0.65975300  0.63073000  1
  H  1373  1  0.15073700  0.31351600  0.36243600  1
  H  1374  1  0.15253900  0.35374600  0.31559700  1
  H  1375  1  0.37126900  0.37608900  0.34204000  1
  H  1376  1  0.36983200  0.33661600  0.38549000  1
  H  1387  1  0.01901400  0.09497700  0.38803100  1
  H  1388  1  0.93442300  0.09655200  0.38875100  1
  H  1389  1  0.93741000  0.16797100  0.23972600  1
  H  1390  1  0.01608500  0.16646100  0.23902700  1
  H  1401  1  0.02083200  0.90113000  0.62903000  1
  H  1402  1  0.93621100  0.90135300  0.62887500  1
  H  1403  1  0.93821500  0.82909800  0.77746700  1
  H  1404  1  0.01692100  0.82841800  0.77745700  1
  H  1415  1  0.00823100  0.61976800  0.10717600  1
  H  1416  1  0.92367600  0.62135200  0.10886400  1
  H  1417  1  0.93420300  0.77124200  0.17776500  1
  H  1418  1  0.01278700  0.76918800  0.17769700  1
  H  1429  1  0.02033400  0.37573800  0.91169000  1
  H  1430  1  0.93569200  0.37622700  0.91097800  1
  H  1431  1  0.93800100  0.22676500  0.84024900  1
  H  1432  1  0.01680900  0.22636900  0.84072500  1
  H  1443  1  0.93528600  0.90055500  0.38825700  1
  H  1444  1  0.01988000  0.89906100  0.38865100  1
  H  1445  1  0.01590300  0.82707700  0.23992100  1
  H  1446  1  0.93723500  0.82860300  0.23949700  1
  H  1457  1  0.93497300  0.09681700  0.62985100  1
  H  1458  1  0.01960300  0.09553000  0.63026000  1
  H  1459  1  0.01722900  0.16643500  0.77966600  1
  H  1460  1  0.93840400  0.16725800  0.77944000  1
  H  1471  1  0.94438100  0.37538100  0.10751900  1
  H  1472  1  0.02891700  0.37431500  0.11002800  1
  H  1473  1  0.01904200  0.22423200  0.17854200  1
  H  1474  1  0.94040400  0.22591000  0.17805500  1
  H  1485  1  0.92403700  0.62120600  0.90748300  1
  H  1486  1  0.00860000  0.61977000  0.90921500  1
  H  1487  1  0.01273900  0.76938100  0.83901300  1
  H  1488  1  0.93414800  0.77124400  0.83885500  1
  H  1499  1  0.51094900  0.59363300  0.89178200  1
  H  1500  1  0.42645100  0.59582200  0.89146300  1
  H  1501  1  0.43390600  0.67365000  0.74640500  1
  H  1502  1  0.51236800  0.67218400  0.74676900  1
  H  1513  1  0.52657700  0.39900000  0.12542000  1
  H  1514  1  0.44210700  0.40175900  0.12543700  1
  H  1515  1  0.44100400  0.32383300  0.27081200  1
  H  1516  1  0.51948000  0.32225700  0.27109500  1
  H  1527  1  0.51912600  0.11508500  0.60421900  1
  H  1528  1  0.43460400  0.11528000  0.60314500  1
  H  1529  1  0.43640200  0.25792400  0.68513700  1
  H  1530  1  0.51493200  0.25785400  0.68593500  1
  H  1541  1  0.52130800  0.87758600  0.40960100  1
  H  1542  1  0.43675900  0.87786000  0.40912700  1
  H  1543  1  0.43959500  0.73147700  0.33355000  1
  H  1544  1  0.51801900  0.73138400  0.33364300  1
  H  1555  1  0.43335300  0.40144800  0.89114400  1
  H  1556  1  0.51787100  0.40058900  0.89202500  1
  H  1557  1  0.51629300  0.31942300  0.74891800  1
  H  1558  1  0.43781800  0.32005800  0.74807200  1
  H  1569  1  0.42732400  0.59720800  0.12540300  1
  H  1570  1  0.51179100  0.59437600  0.12558200  1
  H  1571  1  0.51250600  0.67210900  0.27110000  1
  H  1572  1  0.43404400  0.67383900  0.27115300  1
  H  1583  1  0.43743300  0.87853700  0.60705100  1
  H  1584  1  0.52197800  0.87805300  0.60677200  1
  H  1585  1  0.51773000  0.73253800  0.68395500  1
  H  1586  1  0.43927200  0.73287200  0.68390700  1
  H  1597  1  0.43344600  0.11737700  0.40771400  1
  H  1598  1  0.51799100  0.11778400  0.40858000  1
  H  1599  1  0.51500800  0.26411400  0.33283000  1
  H  1600  1  0.43656300  0.26368000  0.33200900  1
  C  1  1  0.12869100  0.07136100  0.27158200  1
  C  2  1  0.07914000  0.08626900  0.27803900  1
  C  3  1  0.16070700  0.08919300  0.29814100  1
  C  4  1  0.16124200  0.12876100  0.29547700  1
  C  7  1  0.11044600  0.14088200  0.30180800  1
  C  8  1  0.07585800  0.12554300  0.27619100  1
  C  13  1  0.09381300  0.13501800  0.24009400  1
  C  14  1  0.14283000  0.12096300  0.23073800  1
  C  17  1  0.17594700  0.13614100  0.25813700  1
  C  20  1  0.14232500  0.08211500  0.23489000  1
  C  23  1  0.13097000  0.92227600  0.74620200  1
  C  24  1  0.08133000  0.90762900  0.73978600  1
  C  25  1  0.16247800  0.90519100  0.71878000  1
  C  26  1  0.16281200  0.86552400  0.72018000  1
  C  29  1  0.11183900  0.85372900  0.71400300  1
  C  30  1  0.07777000  0.86840100  0.74040800  1
  C  35  1  0.09629200  0.85772000  0.77604600  1
  C  36  1  0.14570600  0.87115200  0.78533700  1
  C  39  1  0.17813000  0.85697900  0.75707400  1
  C  42  1  0.14547000  0.91022700  0.78238700  1
  C  45  1  0.12454700  0.73422300  0.08364600  1
  C  46  1  0.07466300  0.72895600  0.09840900  1
  C  47  1  0.15500900  0.70631900  0.10094200  1
  C  48  1  0.15547900  0.70796300  0.14061600  1
  C  51  1  0.10426900  0.70302800  0.15248600  1
  C  52  1  0.07128900  0.73010600  0.13766100  1
  C  57  1  0.09143300  0.76538300  0.14795100  1
  C  58  1  0.14115000  0.77344100  0.13441500  1
  C  61  1  0.17231700  0.74456000  0.14888700  1
  C  64  1  0.14053000  0.77018700  0.09539400  1
  C  67  1  0.13131700  0.25965900  0.93355500  1
  C  68  1  0.08138500  0.26556300  0.91918100  1
  C  69  1  0.16212700  0.28721600  0.91613900  1
  C  70  1  0.16211400  0.28551200  0.87649200  1
  C  73  1  0.11101200  0.29096900  0.86476400  1
  C  74  1  0.07749400  0.26443800  0.87993300  1
  C  79  1  0.09652900  0.22888200  0.86947300  1
  C  80  1  0.14626900  0.22027200  0.88271000  1
  C  83  1  0.17806600  0.24874600  0.86816000  1
  C  86  1  0.14608600  0.22345700  0.92170100  1
  C  89  1  0.82481400  0.92391000  0.27217700  1
  C  90  1  0.87439100  0.90901200  0.27856100  1
  C  91  1  0.79284900  0.90602500  0.29873600  1
  C  92  1  0.79235100  0.86646300  0.29603500  1
  C  95  1  0.84318900  0.85437600  0.30232000  1
  C  96  1  0.87771800  0.86973900  0.27667800  1
  C  101  1  0.85970400  0.86029000  0.24059800  1
  C  102  1  0.81068400  0.87434800  0.23127400  1
  C  105  1  0.77760200  0.85910600  0.25868200  1
  C  108  1  0.81113500  0.91319400  0.23548500  1
  C  111  1  0.82457700  0.07433000  0.74583000  1
  C  112  1  0.87421900  0.08915300  0.74004400  1
  C  113  1  0.79354400  0.09157200  0.71830300  1
  C  114  1  0.79289700  0.13119000  0.72008200  1
  C  117  1  0.84384600  0.14335500  0.71465300  1
  C  118  1  0.87758800  0.12838700  0.74116400  1
  C  123  1  0.85841200  0.13861700  0.77675400  1
  C  124  1  0.80884600  0.12495800  0.78533200  1
  C  127  1  0.77685700  0.13935300  0.75688500  1
  C  130  1  0.80943000  0.08593200  0.78201100  1
  C  133  1  0.82787700  0.26081300  0.08449600  1
  C  134  1  0.87795900  0.26609700  0.09896800  1
  C  135  1  0.79770900  0.28883500  0.10178800  1
  C  136  1  0.79754800  0.28734400  0.14143800  1
  C  139  1  0.84883300  0.29220900  0.15312500  1
  C  140  1  0.88166700  0.26505800  0.13822900  1
  C  145  1  0.86151600  0.22984800  0.14873300  1
  C  146  1  0.81166400  0.22183900  0.13544100  1
  C  149  1  0.78066100  0.25081000  0.14994400  1
  C  152  1  0.81199400  0.22490800  0.09643200  1
  C  155  1  0.81893700  0.73908000  0.93315100  1
  C  156  1  0.86805000  0.73146400  0.91787800  1
  C  157  1  0.78553500  0.71377200  0.91478100  1
  C  158  1  0.78608900  0.71733600  0.87533200  1
  C  161  1  0.83594700  0.71115100  0.86156100  1
  C  162  1  0.87205400  0.73479800  0.87857800  1
  C  167  1  0.85681700  0.77195200  0.87094600  1
  C  168  1  0.80803400  0.78193300  0.88480800  1
  C  171  1  0.77479100  0.75545700  0.86871500  1
  C  174  1  0.80751900  0.77654100  0.92347400  1
  C  177  1  0.82528900  0.92389800  0.74470600  1
  C  178  1  0.87492000  0.90909500  0.73844500  1
  C  179  1  0.79353700  0.90605200  0.71796900  1
  C  180  1  0.79315900  0.86646300  0.72052400  1
  C  183  1  0.84407600  0.85448400  0.71436400  1
  C  184  1  0.87839900  0.86983700  0.74017200  1
  C  189  1  0.86020600  0.86023000  0.77617200  1
  C  190  1  0.81105600  0.87416200  0.78536900  1
  C  193  1  0.77822100  0.85895500  0.75780400  1
  C  196  1  0.81136200  0.91302600  0.78129500  1
  C  199  1  0.82368700  0.07436400  0.27220500  1
  C  200  1  0.87327700  0.08913300  0.27837300  1
  C  201  1  0.79220300  0.09162400  0.29949100  1
  C  202  1  0.79177700  0.13126700  0.29773700  1
  C  205  1  0.84274900  0.14321600  0.30366800  1
  C  206  1  0.87672100  0.12834800  0.27730300  1
  C  211  1  0.85799600  0.13865900  0.24161000  1
  C  212  1  0.80857400  0.12505000  0.23261900  1
  C  215  1  0.77625200  0.13945700  0.26082100  1
  C  218  1  0.80907200  0.08602300  0.23591200  1
  C  221  1  0.82504800  0.26033900  0.93377100  1
  C  222  1  0.87459400  0.26605500  0.91874200  1
  C  223  1  0.79393500  0.28798200  0.91664800  1
  C  224  1  0.79305200  0.28629200  0.87697400  1
  C  227  1  0.84396600  0.29170400  0.86474600  1
  C  228  1  0.87767300  0.26508100  0.87950600  1
  C  233  1  0.85830500  0.22956200  0.86925500  1
  C  234  1  0.80879700  0.22100800  0.88304600  1
  C  237  1  0.77685000  0.24953800  0.86880300  1
  C  240  1  0.80956400  0.22425200  0.92209000  1
  C  243  1  0.81896400  0.73941100  0.08330400  1
  C  244  1  0.86804600  0.73171000  0.09858100  1
  C  245  1  0.78546300  0.71420600  0.10171900  1
  C  246  1  0.78605800  0.71782300  0.14116400  1
  C  249  1  0.83588500  0.71153000  0.15493200  1
  C  250  1  0.87206400  0.73506900  0.13787400  1
  C  255  1  0.85699900  0.77227800  0.14545400  1
  C  256  1  0.80824100  0.78235700  0.13159800  1
  C  259  1  0.77491800  0.75596700  0.14774200  1
  C  262  1  0.80767400  0.77690700  0.09293100  1
  C  265  1  0.13068600  0.07301300  0.74617700  1
  C  266  1  0.08090100  0.08773900  0.74041100  1
  C  267  1  0.16157800  0.09024500  0.71851100  1
  C  268  1  0.16207300  0.12990600  0.72017800  1
  C  271  1  0.11105700  0.14190100  0.71480100  1
  C  272  1  0.07745500  0.12699400  0.74141500  1
  C  277  1  0.09675700  0.13736900  0.77690700  1
  C  278  1  0.14636400  0.12380300  0.78544200  1
  C  281  1  0.17824500  0.13818600  0.75692300  1
  C  284  1  0.14590100  0.08479000  0.78227200  1
  C  287  1  0.12973000  0.92091300  0.27150200  1
  C  288  1  0.08022100  0.90612300  0.27794600  1
  C  289  1  0.16145000  0.90379300  0.29872800  1
  C  290  1  0.16197200  0.86415900  0.29711200  1
  C  293  1  0.11107800  0.85215700  0.30331900  1
  C  294  1  0.07684300  0.86689700  0.27705700  1
  C  299  1  0.09528200  0.85646700  0.24131400  1
  C  300  1  0.14459500  0.87009000  0.23202500  1
  C  303  1  0.17719700  0.85584700  0.26014600  1
  C  306  1  0.14406800  0.90913500  0.23518600  1
  C  309  1  0.12464200  0.73423500  0.93281200  1
  C  310  1  0.07475300  0.72906200  0.91804100  1
  C  311  1  0.15501000  0.70627400  0.91552400  1
  C  312  1  0.15550500  0.70793000  0.87584900  1
  C  315  1  0.10429900  0.70310800  0.86395000  1
  C  316  1  0.07138200  0.73021600  0.87879400  1
  C  321  1  0.09162300  0.76547300  0.86849100  1
  C  322  1  0.14138600  0.77343800  0.88203200  1
  C  325  1  0.17247100  0.74449500  0.86759000  1
  C  328  1  0.14074100  0.77017200  0.92105900  1
  C  331  1  0.13344900  0.25661400  0.08388200  1
  C  332  1  0.08453500  0.26403600  0.09953100  1
  C  333  1  0.16695100  0.28194000  0.10216400  1
  C  334  1  0.16694800  0.27818900  0.14160200  1
  C  337  1  0.11725600  0.28431700  0.15570100  1
  C  338  1  0.08100900  0.26070000  0.13882200  1
  C  343  1  0.09638100  0.22351400  0.14620900  1
  C  344  1  0.14504200  0.21362700  0.13195100  1
  C  347  1  0.17840000  0.24005200  0.14798300  1
  C  350  1  0.14528900  0.21919200  0.09328500  1
  C  353  1  0.62265800  0.57279100  0.77422400  1
  C  354  1  0.57342100  0.58764400  0.78203300  1
  C  355  1  0.65604900  0.59048000  0.80003200  1
  C  356  1  0.65625600  0.63007500  0.79758700  1
  C  359  1  0.60568200  0.64192300  0.80546400  1
  C  360  1  0.57018700  0.62697200  0.78039400  1
  C  365  1  0.58663700  0.63670400  0.74395000  1
  C  366  1  0.63500100  0.62262700  0.73318400  1
  C  369  1  0.66932000  0.63755300  0.75991500  1
  C  372  1  0.63424100  0.58378300  0.73714200  1
  C  375  1  0.62879000  0.42347500  0.24586100  1
  C  376  1  0.58119600  0.40692300  0.23619400  1
  C  377  1  0.66500000  0.40615000  0.22189200  1
  C  378  1  0.66623000  0.36673600  0.22528300  1
  C  381  1  0.61762300  0.35178800  0.21672700  1
  C  382  1  0.57912400  0.36748400  0.23905000  1
  C  387  1  0.59190600  0.35995800  0.27668300  1
  C  388  1  0.63877800  0.37534600  0.28889300  1
  C  391  1  0.67506000  0.36022400  0.26390100  1
  C  394  1  0.63773000  0.41402200  0.28366900  1
  C  397  1  0.62488200  0.23546300  0.58356700  1
  C  398  1  0.57687600  0.22530600  0.59925400  1
  C  399  1  0.66083700  0.21150600  0.60119700  1
  C  400  1  0.66081300  0.21447200  0.64065500  1
  C  403  1  0.61186500  0.20547200  0.65470500  1
  C  404  1  0.57368600  0.22784500  0.63870700  1
  C  409  1  0.58589100  0.26551700  0.64671800  1
  C  410  1  0.63309300  0.27809900  0.63226100  1
  C  413  1  0.66900700  0.25304400  0.64772900  1
  C  416  1  0.63304500  0.27326200  0.59356600  1
  C  419  1  0.62905100  0.75852700  0.43337300  1
  C  420  1  0.58046800  0.76740800  0.41776000  1
  C  421  1  0.66378600  0.78337100  0.41560100  1
  C  422  1  0.66369300  0.78042200  0.37608700  1
  C  425  1  0.61422700  0.78801800  0.36219300  1
  C  426  1  0.57716100  0.76468500  0.37833300  1
  C  431  1  0.59127000  0.72739500  0.37029100  1
  C  432  1  0.63920800  0.71611400  0.38451600  1
  C  435  1  0.67370600  0.74214000  0.36904800  1
  C  438  1  0.63911100  0.72095900  0.42324500  1
  C  441  1  0.32757300  0.42223800  0.77069400  1
  C  442  1  0.37581600  0.40679000  0.78080800  1
  C  443  1  0.29189700  0.40453600  0.79477300  1
  C  444  1  0.29222600  0.36509700  0.79189100  1
  C  447  1  0.34128100  0.35119000  0.80072200  1
  C  448  1  0.37925300  0.36730600  0.77826800  1
  C  453  1  0.36690000  0.35916300  0.74066200  1
  C  454  1  0.31956800  0.37346400  0.72819800  1
  C  457  1  0.28379500  0.35791500  0.75334800  1
  C  460  1  0.31949800  0.41214700  0.73292200  1
  C  463  1  0.32478100  0.57269800  0.24572400  1
  C  464  1  0.37238200  0.58926500  0.23610300  1
  C  465  1  0.28862000  0.58995100  0.22166200  1
  C  466  1  0.28731200  0.62937200  0.22495700  1
  C  469  1  0.33594500  0.64433000  0.21645900  1
  C  470  1  0.37440700  0.62871400  0.23889000  1
  C  475  1  0.36146900  0.63632500  0.27647000  1
  C  476  1  0.31459800  0.62093000  0.28864700  1
  C  479  1  0.27834900  0.63595900  0.26356200  1
  C  482  1  0.31572100  0.58223900  0.28350100  1
  C  485  1  0.32892700  0.76029700  0.58345200  1
  C  486  1  0.37741800  0.76918800  0.59916800  1
  C  487  1  0.29400300  0.78469700  0.60153800  1
  C  488  1  0.29407000  0.78109200  0.64094900  1
  C  491  1  0.34341600  0.78876800  0.65503900  1
  C  492  1  0.38070700  0.76586500  0.63856700  1
  C  497  1  0.36699300  0.72834400  0.64595500  1
  C  498  1  0.31923600  0.71704500  0.63144300  1
  C  501  1  0.28442600  0.74260500  0.64741300  1
  C  504  1  0.31937100  0.72251200  0.59285300  1
  C  507  1  0.32596100  0.23630500  0.43186700  1
  C  508  1  0.37437600  0.22745100  0.41604000  1
  C  509  1  0.29102700  0.21158600  0.41418200  1
  C  510  1  0.29087100  0.21465900  0.37469400  1
  C  513  1  0.34021200  0.20708000  0.36054800  1
  C  514  1  0.37740700  0.23034600  0.37662700  1
  C  519  1  0.36329800  0.26768600  0.36876400  1
  C  520  1  0.31547200  0.27891700  0.38324900  1
  C  523  1  0.28082400  0.25296900  0.36782800  1
  C  526  1  0.31594900  0.27393700  0.42195700  1
  C  529  1  0.32990100  0.42254900  0.24298700  1
  C  530  1  0.37936300  0.40801500  0.23521400  1
  C  531  1  0.29686000  0.40475900  0.21704800  1
  C  532  1  0.29695600  0.36519000  0.21941400  1
  C  535  1  0.34765200  0.35356000  0.21165300  1
  C  536  1  0.38295100  0.36866600  0.23681100  1
  C  541  1  0.36642900  0.35879400  0.27318400  1
  C  542  1  0.31792200  0.37261800  0.28385700  1
  C  545  1  0.28381500  0.35755600  0.25704500  1
  C  548  1  0.31835800  0.41144600  0.28001900  1
  C  551  1  0.32414900  0.57233100  0.77048600  1
  C  552  1  0.37179400  0.58860000  0.78055500  1
  C  553  1  0.28783300  0.58948100  0.79449200  1
  C  554  1  0.28690000  0.62893800  0.79155200  1
  C  557  1  0.33558100  0.64364500  0.80037600  1
  C  558  1  0.37412800  0.62807900  0.77799200  1
  C  563  1  0.36155500  0.63605900  0.74042300  1
  C  564  1  0.31469900  0.62098300  0.72792000  1
  C  567  1  0.27832900  0.63589300  0.75297700  1
  C  570  1  0.31572200  0.58227700  0.73270700  1
  C  573  1  0.32894200  0.75948300  0.43348400  1
  C  574  1  0.37742400  0.76828700  0.41772400  1
  C  575  1  0.29403900  0.78381800  0.41530200  1
  C  576  1  0.29409200  0.78006800  0.37590900  1
  C  579  1  0.34342200  0.78766100  0.36176800  1
  C  580  1  0.38070000  0.76481000  0.37834600  1
  C  585  1  0.36697200  0.72725200  0.37111100  1
  C  586  1  0.31917400  0.71603600  0.38564600  1
  C  589  1  0.28443100  0.74157500  0.36958500  1
  C  592  1  0.31931000  0.72166600  0.42422900  1
  C  595  1  0.32727100  0.23498900  0.58213600  1
  C  596  1  0.37546200  0.22500600  0.59777500  1
  C  597  1  0.29153500  0.21095500  0.59991100  1
  C  598  1  0.29169200  0.21400400  0.63936800  1
  C  601  1  0.34074400  0.20522500  0.65334200  1
  C  602  1  0.37872700  0.22768100  0.63725700  1
  C  607  1  0.36626400  0.26529400  0.64516600  1
  C  608  1  0.31899600  0.27769700  0.63073200  1
  C  611  1  0.28322700  0.25258700  0.64635100  1
  C  614  1  0.31895300  0.27277700  0.59206900  1
  C  617  1  0.62373000  0.57357900  0.24313000  1
  C  618  1  0.57425000  0.58811300  0.23543500  1
  C  619  1  0.65669200  0.59136900  0.21715000  1
  C  620  1  0.65661600  0.63093100  0.21953900  1
  C  623  1  0.60591600  0.64258600  0.21186600  1
  C  624  1  0.57066800  0.62745400  0.23704500  1
  C  629  1  0.58726600  0.63732700  0.27341200  1
  C  630  1  0.63581900  0.62349000  0.28400600  1
  C  633  1  0.66986300  0.63855400  0.25715100  1
  C  636  1  0.63536100  0.58466400  0.28014700  1
  C  639  1  0.62464500  0.42250400  0.77239100  1
  C  640  1  0.57679000  0.40636600  0.78226900  1
  C  641  1  0.66068300  0.40496500  0.79635200  1
  C  642  1  0.66121900  0.36552600  0.79316400  1
  C  645  1  0.61240200  0.35108700  0.80195000  1
  C  646  1  0.57414700  0.36690700  0.77953800  1
  C  651  1  0.58672000  0.35922000  0.74189400  1
  C  652  1  0.63372900  0.37415600  0.72950100  1
  C  655  1  0.66977700  0.35875600  0.75453600  1
  C  658  1  0.63326100  0.41283400  0.73458900  1
  C  661  1  0.62474100  0.23673600  0.43351100  1
  C  662  1  0.57641200  0.22770300  0.41757400  1
  C  663  1  0.65991600  0.21240300  0.41562800  1
  C  664  1  0.66018400  0.21595600  0.37622700  1
  C  667  1  0.61103400  0.20822400  0.36184900  1
  C  668  1  0.57350400  0.23103700  0.37814500  1
  C  673  1  0.58713900  0.26857700  0.37078000  1
  C  674  1  0.63472900  0.27995900  0.38552000  1
  C  677  1  0.66980100  0.25444000  0.36977400  1
  C  680  1  0.63415500  0.27454400  0.42411300  1
  C  683  1  0.62891300  0.75845400  0.58390400  1
  C  684  1  0.58041600  0.76762700  0.59947700  1
  C  685  1  0.66383800  0.78324600  0.60154800  1
  C  686  1  0.66377300  0.78048400  0.64106200  1
  C  689  1  0.61438100  0.78838900  0.65493900  1
  C  690  1  0.57710600  0.76515400  0.63892100  1
  C  695  1  0.59088200  0.72784400  0.64717500  1
  C  696  1  0.63870200  0.71623200  0.63299900  1
  C  699  1  0.67346500  0.74218000  0.64829700  1
  C  702  1  0.63866500  0.72089100  0.59422600  1
  C  705  1  0.13178400  0.95932300  0.27377900  1
  C  706  1  0.17277200  0.97833300  0.26872300  1
  C  707  1  0.17263100  0.01424200  0.26898400  1
  C  708  1  0.13146700  0.03303500  0.27429100  1
  C  709  1  0.09162800  0.01360700  0.28055100  1
  C  710  1  0.09177200  0.97858900  0.28022800  1
  C  712  1  0.25409300  0.01404100  0.25776100  1
  C  713  1  0.25420100  0.97895500  0.25750000  1
  C  719  1  0.13308300  0.03457900  0.74408800  1
  C  720  1  0.17426200  0.01565800  0.74880500  1
  C  721  1  0.17426900  0.97971800  0.74901300  1
  C  722  1  0.13316200  0.96073800  0.74428100  1
  C  723  1  0.09304800  0.98013000  0.73863100  1
  C  724  1  0.09299500  0.01515600  0.73858100  1
  C  726  1  0.25591900  0.98019500  0.75923500  1
  C  727  1  0.25595600  0.01528800  0.75888600  1
  C  733  1  0.12685500  0.73203400  0.97127900  1
  C  734  1  0.16810300  0.73612100  0.99026700  1
  C  735  1  0.16808100  0.73613600  0.02621500  1
  C  736  1  0.12681500  0.73203100  0.04518000  1
  C  737  1  0.08661300  0.72691800  0.02574700  1
  C  738  1  0.08662900  0.72693300  0.99069300  1
  C  740  1  0.25002700  0.74510500  0.02580500  1
  C  741  1  0.25005200  0.74506500  0.99071300  1
  C  747  1  0.13542500  0.26049900  0.04562400  1
  C  748  1  0.17612800  0.25534100  0.02632100  1
  C  749  1  0.17570100  0.25631500  0.99042500  1
  C  750  1  0.13436300  0.26188000  0.97193400  1
  C  751  1  0.09488600  0.26844700  0.99171200  1
  C  752  1  0.09544900  0.26800000  0.02675000  1
  C  754  1  0.25708000  0.24487200  0.99005300  1
  C  755  1  0.25736800  0.24354800  0.02512000  1
  C  761  1  0.82162500  0.03595700  0.27459200  1
  C  762  1  0.78062400  0.01693700  0.26961700  1
  C  763  1  0.78080600  0.98102400  0.26975700  1
  C  764  1  0.82200300  0.96223500  0.27495100  1
  C  765  1  0.86183200  0.98167100  0.28121400  1
  C  766  1  0.86166000  0.01668900  0.28096300  1
  C  768  1  0.69931200  0.98122200  0.25867000  1
  C  769  1  0.69915100  0.01630800  0.25858200  1
  C  775  1  0.82258700  0.96224200  0.74214000  1
  C  776  1  0.78138700  0.98103100  0.74726600  1
  C  777  1  0.78131400  0.01694100  0.74779600  1
  C  778  1  0.82243600  0.03594500  0.74328200  1
  C  779  1  0.86249500  0.01669800  0.73698900  1
  C  780  1  0.86255000  0.98169200  0.73634400  1
  C  782  1  0.69969700  0.01630900  0.75826900  1
  C  783  1  0.69976600  0.98122500  0.75779900  1
  C  789  1  0.82356000  0.26254800  0.97224500  1
  C  790  1  0.78267200  0.25832300  0.99157700  1
  C  791  1  0.78327400  0.25854100  0.02751200  1
  C  792  1  0.82485900  0.26284200  0.04608500  1
  C  793  1  0.86471900  0.26797800  0.02633800  1
  C  794  1  0.86409000  0.26783700  0.99130600  1
  C  796  1  0.70136100  0.24932000  0.02781300  1
  C  797  1  0.70082800  0.24902000  0.99272400  1
  C  803  1  0.81622800  0.73558100  0.04506000  1
  C  804  1  0.77543400  0.74180600  0.02617200  1
  C  805  1  0.77540600  0.74166800  0.99027700  1
  C  806  1  0.81618400  0.73534700  0.97140200  1
  C  807  1  0.85544900  0.72694600  0.99070300  1
  C  808  1  0.85545600  0.72702300  0.02578400  1
  C  810  1  0.69466200  0.75525100  0.99066100  1
  C  811  1  0.69470000  0.75542200  0.02575100  1
  C  817  1  0.62662800  0.46079800  0.77571500  1
  C  818  1  0.66680400  0.48005900  0.76854600  1
  C  819  1  0.66650800  0.51592600  0.76947400  1
  C  820  1  0.62572400  0.53444900  0.77682700  1
  C  821  1  0.58679900  0.51476100  0.78520400  1
  C  822  1  0.58728700  0.47966800  0.78484200  1
  C  824  1  0.74673700  0.51624200  0.75411900  1
  C  825  1  0.74682700  0.48119100  0.75272600  1
  C  831  1  0.62759400  0.53530200  0.24068300  1
  C  832  1  0.66880800  0.51725600  0.24800800  1
  C  833  1  0.66977400  0.48142000  0.24920800  1
  C  834  1  0.62991700  0.46174700  0.24230100  1
  C  835  1  0.59016000  0.48016000  0.23314300  1
  C  836  1  0.58897800  0.51523000  0.23255900  1
  C  838  1  0.74986800  0.48341000  0.26475400  1
  C  839  1  0.74915300  0.51844400  0.26307500  1
  C  845  1  0.62740500  0.23303400  0.47172300  1
  C  846  1  0.66776300  0.24062100  0.49063200  1
  C  847  1  0.66771800  0.24048700  0.52648400  1
  C  848  1  0.62745600  0.23243500  0.54528300  1
  C  849  1  0.58866200  0.22292200  0.52597400  1
  C  850  1  0.58860000  0.22328100  0.49086100  1
  C  852  1  0.74736600  0.25738400  0.52622300  1
  C  853  1  0.74749700  0.25731400  0.49114700  1
  C  859  1  0.63139200  0.76145900  0.54552900  1
  C  860  1  0.67183900  0.75417900  0.52660400  1
  C  861  1  0.67192200  0.75433000  0.49070000  1
  C  862  1  0.63151500  0.76164500  0.47173800  1
  C  863  1  0.59242900  0.77050100  0.49104700  1
  C  864  1  0.59238400  0.77044600  0.52619000  1
  C  866  1  0.75202700  0.73878100  0.49113700  1
  C  867  1  0.75191700  0.73855300  0.52622300  1
  C  873  1  0.32253100  0.53402500  0.77357400  1
  C  874  1  0.28280200  0.51470600  0.76537000  1
  C  875  1  0.28359400  0.47886200  0.76539800  1
  C  876  1  0.32416900  0.46047400  0.77364900  1
  C  877  1  0.36245900  0.48012700  0.78342900  1
  C  878  1  0.36167200  0.51524000  0.78338900  1
  C  880  1  0.20418900  0.47834000  0.74785600  1
  C  881  1  0.20343600  0.51341000  0.74783800  1
  C  887  1  0.32604300  0.46083600  0.24057900  1
  C  888  1  0.28483900  0.47888200  0.24793000  1
  C  889  1  0.28385800  0.51472100  0.24912500  1
  C  890  1  0.32370500  0.53441100  0.24222400  1
  C  891  1  0.36347300  0.51599900  0.23309100  1
  C  892  1  0.36466200  0.48092300  0.23249200  1
  C  894  1  0.20376300  0.51271500  0.26466100  1
  C  895  1  0.20450000  0.47767900  0.26301200  1
  C  901  1  0.32623700  0.76339200  0.47168200  1
  C  902  1  0.28571600  0.75624500  0.49056200  1
  C  903  1  0.28567800  0.75651900  0.52641600  1
  C  904  1  0.32617400  0.76391900  0.54523000  1
  C  905  1  0.36511300  0.77314900  0.52596900  1
  C  906  1  0.36514700  0.77287800  0.49085800  1
  C  908  1  0.20561400  0.74071900  0.52610000  1
  C  909  1  0.20565600  0.74044300  0.49102400  1
  C  915  1  0.32431900  0.23203300  0.54383500  1
  C  916  1  0.28387900  0.23999300  0.52515800  1
  C  917  1  0.28357700  0.24023300  0.48928400  1
  C  918  1  0.32379500  0.23282900  0.47017400  1
  C  919  1  0.36283000  0.22329200  0.48922900  1
  C  920  1  0.36304700  0.22281000  0.52435500  1
  C  922  1  0.20375800  0.25659400  0.49011500  1
  C  923  1  0.20411500  0.25657300  0.52519400  1
  C  929  1  0.25592200  0.19115500  0.35784500  1
  C  930  1  0.25624400  0.15548900  0.36129900  1
  C  931  1  0.22536600  0.13433600  0.34284600  1
  C  932  1  0.19361700  0.14784500  0.31910400  1
  C  933  1  0.19331000  0.18330600  0.31675900  1
  C  934  1  0.22208400  0.20389500  0.33562600  1
  C  936  1  0.25829000  0.08597900  0.37010000  1
  C  937  1  0.28894300  0.10659400  0.38760100  1
  C  943  1  0.25878200  0.80431400  0.65780800  1
  C  944  1  0.25883000  0.84003300  0.65476800  1
  C  945  1  0.22724500  0.86081000  0.67301800  1
  C  946  1  0.19490400  0.84684000  0.69602400  1
  C  947  1  0.19445200  0.81132000  0.69756500  1
  C  948  1  0.22425800  0.79111500  0.67915300  1
  C  950  1  0.26041600  0.90968200  0.64693600  1
  C  951  1  0.29175100  0.88945500  0.62961800  1
  C  957  1  0.25109700  0.64540200  0.20190500  1
  C  958  1  0.25078300  0.64210900  0.16620100  1
  C  959  1  0.21896900  0.66017800  0.14546200  1
  C  960  1  0.18683400  0.68334500  0.15942100  1
  C  961  1  0.18643700  0.68488600  0.19495700  1
  C  962  1  0.21635200  0.66650600  0.21516500  1
  C  964  1  0.25183000  0.63386500  0.09658100  1
  C  965  1  0.28343200  0.61676300  0.11676000  1
  C  971  1  0.25656400  0.34859900  0.81499000  1
  C  972  1  0.25611700  0.35218700  0.85065900  1
  C  973  1  0.22491100  0.33370400  0.87148600  1
  C  974  1  0.19349300  0.30997700  0.85760700  1
  C  975  1  0.19314500  0.30817200  0.82209400  1
  C  976  1  0.22253000  0.32685800  0.80180100  1
  C  978  1  0.25673200  0.36098500  0.92021500  1
  C  979  1  0.28772000  0.37855700  0.89993500  1
  C  985  1  0.69846000  0.80396300  0.35904500  1
  C  986  1  0.69807800  0.83963100  0.36245100  1
  C  987  1  0.72858600  0.86082800  0.34370700  1
  C  988  1  0.76008300  0.84736300  0.31975200  1
  C  989  1  0.76042700  0.81190500  0.31742000  1
  C  990  1  0.73202000  0.79128100  0.33655800  1
  C  992  1  0.69581000  0.90915000  0.37111700  1
  C  993  1  0.66556700  0.88848300  0.38893900  1
  C  999  1  0.69692000  0.19170400  0.65716000  1
  C  1000  1  0.69787200  0.15603900  0.65370900  1
  C  1001  1  0.72959600  0.13551800  0.67208400  1
  C  1002  1  0.76106000  0.14970100  0.69562500  1
  C  1003  1  0.76085300  0.18520800  0.69734200  1
  C  1004  1  0.73092300  0.20519000  0.67877600  1
  C  1006  1  0.69820900  0.08647900  0.64506600  1
  C  1007  1  0.66666667  0.10646700  0.62763700  1
  C  1013  1  0.70247800  0.35058500  0.20236800  1
  C  1014  1  0.70284500  0.35376100  0.16666300  1
  C  1015  1  0.73452200  0.33547800  0.14601900  1
  C  1016  1  0.76640800  0.31219100  0.16010200  1
  C  1017  1  0.76686800  0.31084000  0.19563600  1
  C  1018  1  0.73710600  0.32944900  0.21574700  1
  C  1020  1  0.70197200  0.36183100  0.09702600  1
  C  1021  1  0.67047500  0.37912200  0.11712700  1
  C  1027  1  0.68954700  0.64938900  0.82030500  1
  C  1028  1  0.72255000  0.63616500  0.84325600  1
  C  1029  1  0.75351200  0.65763200  0.86129000  1
  C  1030  1  0.75217100  0.69332100  0.85807400  1
  C  1031  1  0.71779000  0.70569900  0.83610700  1
  C  1032  1  0.68874000  0.68483600  0.81781700  1
  C  1034  1  0.78832600  0.60900600  0.88659300  1
  C  1035  1  0.75769800  0.58808800  0.86941500  1
  C  1041  1  0.69881000  0.80398800  0.65786600  1
  C  1042  1  0.69860800  0.83964900  0.65433400  1
  C  1043  1  0.72936300  0.86082300  0.67289200  1
  C  1044  1  0.76099800  0.84734500  0.69673700  1
  C  1045  1  0.76136500  0.81187800  0.69902400  1
  C  1046  1  0.73261400  0.79127300  0.68013200  1
  C  1048  1  0.69661700  0.90915300  0.64548500  1
  C  1049  1  0.66614800  0.88851800  0.62783600  1
  C  1055  1  0.69560300  0.19270100  0.35961200  1
  C  1056  1  0.69552100  0.15699400  0.36279800  1
  C  1057  1  0.72724200  0.13615900  0.34476400  1
  C  1058  1  0.75968100  0.15005600  0.32178700  1
  C  1059  1  0.76008300  0.18556700  0.32004000  1
  C  1060  1  0.73021900  0.20584200  0.33831700  1
  C  1062  1  0.69386400  0.08736900  0.37089600  1
  C  1063  1  0.66236300  0.10765400  0.38797300  1
  C  1069  1  0.69727400  0.34914200  0.81608500  1
  C  1070  1  0.69796800  0.35250300  0.85177800  1
  C  1071  1  0.72963400  0.33416000  0.87239500  1
  C  1072  1  0.76125900  0.31070200  0.85831200  1
  C  1073  1  0.76120100  0.30900500  0.82278700  1
  C  1074  1  0.73141100  0.32759600  0.80269800  1
  C  1076  1  0.69779600  0.36092700  0.92137800  1
  C  1077  1  0.66636100  0.37833600  0.90131800  1
  C  1083  1  0.68966400  0.65015700  0.19657600  1
  C  1084  1  0.72246100  0.63684700  0.17350300  1
  C  1085  1  0.75333300  0.65824000  0.15532600  1
  C  1086  1  0.75206800  0.69392800  0.15848700  1
  C  1087  1  0.71775900  0.70639900  0.18046900  1
  C  1088  1  0.68880500  0.68560700  0.19892200  1
  C  1090  1  0.78791000  0.60954800  0.12995000  1
  C  1091  1  0.75733400  0.58868800  0.14723800  1
  C  1097  1  0.25605700  0.19101800  0.65612600  1
  C  1098  1  0.25554400  0.15532300  0.65282000  1
  C  1099  1  0.22460000  0.13461300  0.67169700  1
  C  1100  1  0.19349800  0.14862100  0.69557500  1
  C  1101  1  0.19334100  0.18414400  0.69723200  1
  C  1102  1  0.22240000  0.20431600  0.67812600  1
  C  1104  1  0.25610600  0.08571100  0.64455100  1
  C  1105  1  0.28680700  0.10587900  0.62658000  1
  C  1111  1  0.25875000  0.80320500  0.35901200  1
  C  1112  1  0.25867600  0.83891800  0.36206500  1
  C  1113  1  0.22680800  0.85961500  0.34400100  1
  C  1114  1  0.19434600  0.84556500  0.32112200  1
  C  1115  1  0.19414000  0.81005800  0.31946800  1
  C  1116  1  0.22419600  0.78992800  0.33773500  1
  C  1118  1  0.25998400  0.90855800  0.36998400  1
  C  1119  1  0.29162500  0.88840300  0.38707900  1
  C  1125  1  0.25064400  0.64496800  0.81456900  1
  C  1126  1  0.25017800  0.64157400  0.85025900  1
  C  1127  1  0.21856100  0.65982600  0.87099900  1
  C  1128  1  0.18672800  0.68321900  0.85704700  1
  C  1129  1  0.18637900  0.68479100  0.82151200  1
  C  1130  1  0.21612100  0.66626500  0.80130700  1
  C  1132  1  0.25100000  0.63320700  0.91986100  1
  C  1133  1  0.28236700  0.61588200  0.89967600  1
  C  1139  1  0.26381400  0.34593900  0.19653500  1
  C  1140  1  0.23076800  0.35922500  0.17363800  1
  C  1141  1  0.19971000  0.33781300  0.15564100  1
  C  1142  1  0.20105900  0.30212200  0.15876900  1
  C  1143  1  0.23562300  0.28968100  0.18055400  1
  C  1144  1  0.26474400  0.31048600  0.19885500  1
  C  1146  1  0.16480400  0.38648900  0.13048700  1
  C  1147  1  0.19557400  0.40736200  0.14757500  1
  C  1153  1  0.15737800  0.17737700  0.14105400  1
  C  1154  1  0.19887400  0.16803200  0.15740100  1
  C  1155  1  0.19774000  0.14492100  0.18461400  1
  C  1156  1  0.15522900  0.13052700  0.19467700  1
  C  1157  1  0.12170200  0.12912000  0.16879100  1
  C  1158  1  0.12260500  0.15249000  0.14233000  1
  C  1160  1  0.27954100  0.15014700  0.19033400  1
  C  1161  1  0.28064700  0.17264400  0.16330600  1
  C  1167  1  0.15632200  0.80863200  0.87091100  1
  C  1168  1  0.19817500  0.81606700  0.85403000  1
  C  1169  1  0.19938900  0.84152600  0.82895700  1
  C  1170  1  0.15873900  0.85956700  0.82076900  1
  C  1171  1  0.12605300  0.86108900  0.84717200  1
  C  1172  1  0.12472400  0.83577500  0.87180500  1
  C  1174  1  0.27991000  0.83112900  0.82085700  1
  C  1175  1  0.27874600  0.80612400  0.84555800  1
  C  1181  1  0.15762500  0.85882900  0.19649700  1
  C  1182  1  0.19850100  0.84115700  0.18805300  1
  C  1183  1  0.19760900  0.81608200  0.16258900  1
  C  1184  1  0.15586100  0.80866200  0.14558000  1
  C  1185  1  0.12406900  0.83567500  0.14493400  1
  C  1186  1  0.12485800  0.86039600  0.17015600  1
  C  1188  1  0.27826900  0.80648800  0.17089200  1
  C  1189  1  0.27915600  0.83112400  0.19596900  1
  C  1195  1  0.16030600  0.13482900  0.82081900  1
  C  1196  1  0.20167800  0.15204900  0.82881400  1
  C  1197  1  0.20169700  0.17708500  0.85429800  1
  C  1198  1  0.16032200  0.18492800  0.87160900  1
  C  1199  1  0.12806000  0.15822900  0.87261800  1
  C  1200  1  0.12817000  0.13332800  0.84757600  1
  C  1202  1  0.28237300  0.18590500  0.84519600  1
  C  1203  1  0.28232800  0.16131700  0.82006600  1
  C  1209  1  0.79608700  0.81859300  0.14096700  1
  C  1210  1  0.75462900  0.82788800  0.15740600  1
  C  1211  1  0.75585900  0.85061300  0.18494800  1
  C  1212  1  0.79839700  0.86484700  0.19517000  1
  C  1213  1  0.83193900  0.86644800  0.16929700  1
  C  1214  1  0.83100100  0.84334900  0.14260000  1
  C  1216  1  0.67402900  0.84551000  0.19055900  1
  C  1217  1  0.67282600  0.82345000  0.16317500  1
  C  1223  1  0.79461900  0.18566700  0.87194800  1
  C  1224  1  0.75333600  0.17793800  0.85448700  1
  C  1225  1  0.75345300  0.15306300  0.82883700  1
  C  1226  1  0.79486300  0.13590900  0.82074900  1
  C  1227  1  0.82696300  0.13427400  0.84753600  1
  C  1228  1  0.82691400  0.15897600  0.87279200  1
  C  1230  1  0.67281200  0.16240700  0.82003100  1
  C  1231  1  0.67270900  0.18686300  0.84529200  1
  C  1237  1  0.79520000  0.13616000  0.19712900  1
  C  1238  1  0.75433300  0.15393800  0.18891000  1
  C  1239  1  0.75523000  0.17922800  0.16367100  1
  C  1240  1  0.79695700  0.18666000  0.14664800  1
  C  1241  1  0.82859900  0.15956000  0.14567100  1
  C  1242  1  0.82778700  0.13462800  0.17067400  1
  C  1244  1  0.67464100  0.18890700  0.17223000  1
  C  1245  1  0.67375400  0.16403700  0.19707600  1
  C  1251  1  0.79850000  0.86452500  0.82138100  1
  C  1252  1  0.75589000  0.85023400  0.83137700  1
  C  1253  1  0.75449100  0.82739900  0.85881700  1
  C  1254  1  0.79583300  0.81814800  0.87542700  1
  C  1255  1  0.83064400  0.84301000  0.87410700  1
  C  1256  1  0.83180900  0.86610700  0.84741300  1
  C  1258  1  0.67275400  0.82285500  0.85266700  1
  C  1259  1  0.67411500  0.84506300  0.82540500  1
  C  1265  1  0.64882500  0.67985800  0.64322100  1
  C  1266  1  0.69023100  0.66937800  0.65898800  1
  C  1267  1  0.68887000  0.64597700  0.68599300  1
  C  1268  1  0.64607100  0.63268000  0.69694800  1
  C  1269  1  0.61137700  0.63272300  0.67186500  1
  C  1270  1  0.61270100  0.65604600  0.64536000  1
  C  1272  1  0.77111000  0.64860500  0.68991200  1
  C  1273  1  0.77239500  0.67147900  0.66321000  1
  C  1279  1  0.64513300  0.31658900  0.37663700  1
  C  1280  1  0.68803800  0.32790200  0.36388700  1
  C  1281  1  0.68919300  0.35263800  0.33813200  1
  C  1282  1  0.64745300  0.36635700  0.32570600  1
  C  1283  1  0.61059000  0.36549400  0.34903400  1
  C  1284  1  0.60922600  0.34055200  0.37401300  1
  C  1286  1  0.77155300  0.35036700  0.33833800  1
  C  1287  1  0.77041200  0.32618800  0.36387700  1
  C  1293  1  0.64228700  0.36490100  0.69271300  1
  C  1294  1  0.68448100  0.35198100  0.68024000  1
  C  1295  1  0.68428900  0.32700400  0.65467300  1
  C  1296  1  0.64187500  0.31478400  0.64184800  1
  C  1297  1  0.60500800  0.33793300  0.64453400  1
  C  1298  1  0.60528700  0.36279000  0.66958900  1
  C  1300  1  0.76670300  0.32721500  0.65454700  1
  C  1301  1  0.76688200  0.35171500  0.67979500  1
  C  1307  1  0.64696900  0.63345600  0.32022100  1
  C  1308  1  0.68979100  0.64668500  0.33119100  1
  C  1309  1  0.69119000  0.66961100  0.35858000  1
  C  1310  1  0.64978400  0.67975500  0.37455100  1
  C  1311  1  0.61386600  0.65579200  0.37232900  1
  C  1312  1  0.61252200  0.63286400  0.34548900  1
  C  1314  1  0.77329600  0.67207600  0.35415700  1
  C  1315  1  0.77199300  0.64967700  0.32705100  1
  C  1321  1  0.31028600  0.31442000  0.64015600  1
  C  1322  1  0.26811700  0.32657400  0.65339700  1
  C  1323  1  0.26832800  0.35140300  0.67909800  1
  C  1324  1  0.31077900  0.36394500  0.69152300  1
  C  1325  1  0.34753500  0.36198900  0.66819800  1
  C  1326  1  0.34727400  0.33748200  0.64280200  1
  C  1328  1  0.18590200  0.35139100  0.67899500  1
  C  1329  1  0.18573200  0.32693600  0.65370100  1
  C  1335  1  0.30854300  0.67941100  0.37679700  1
  C  1336  1  0.26559500  0.66829800  0.36393700  1
  C  1337  1  0.26432200  0.64383100  0.33792300  1
  C  1338  1  0.30597200  0.63000900  0.32545200  1
  C  1339  1  0.34280100  0.63059200  0.34882800  1
  C  1340  1  0.34433500  0.65538600  0.37395300  1
  C  1342  1  0.18197400  0.64643200  0.33806600  1
  C  1343  1  0.18323800  0.67029400  0.36390200  1
  C  1349  1  0.30630400  0.63040600  0.69117700  1
  C  1350  1  0.26465400  0.64426500  0.67872600  1
  C  1351  1  0.26592300  0.66911400  0.65306900  1
  C  1352  1  0.30886900  0.68042000  0.64037200  1
  C  1353  1  0.34474100  0.65645000  0.64302800  1
  C  1354  1  0.34332900  0.63153800  0.66800700  1
  C  1356  1  0.18354900  0.67083400  0.65288500  1
  C  1357  1  0.18228600  0.64652900  0.67830400  1
  C  1363  1  0.30694100  0.36257700  0.32007500  1
  C  1364  1  0.26426300  0.34907900  0.33098500  1
  C  1365  1  0.26318200  0.32565300  0.35795300  1
  C  1366  1  0.30478700  0.31531600  0.37353400  1
  C  1367  1  0.34060300  0.33938200  0.37157800  1
  C  1368  1  0.34155500  0.36287500  0.34522300  1
  C  1370  1  0.18103400  0.32315600  0.35381300  1
  C  1371  1  0.18206300  0.34604400  0.32711400  1
  C  1377  1  0.92668700  0.13867900  0.28395800  1
  C  1378  1  0.95207300  0.12771700  0.31255200  1
  C  1379  1  0.00112600  0.12675300  0.31212000  1
  C  1380  1  0.02632400  0.13678400  0.28311900  1
  C  1381  1  0.00077700  0.15548400  0.25924700  1
  C  1382  1  0.95266400  0.15641700  0.25965600  1
  C  1384  1  0.00072700  0.10379400  0.36801100  1
  C  1385  1  0.95266100  0.10468400  0.36841800  1
  C  1391  1  0.92812000  0.85888000  0.73346500  1
  C  1392  1  0.95358500  0.86935700  0.70475000  1
  C  1393  1  0.00266500  0.86907900  0.70480300  1
  C  1394  1  0.02784200  0.85809400  0.73349200  1
  C  1395  1  0.00180500  0.83988700  0.75743000  1
  C  1396  1  0.95367100  0.84035400  0.75746000  1
  C  1398  1  0.00245100  0.89255500  0.64911000  1
  C  1399  1  0.95436500  0.89267000  0.64901700  1
  C  1405  1  0.92139000  0.72703100  0.14889600  1
  C  1406  1  0.94528800  0.69748500  0.13874700  1
  C  1407  1  0.99437700  0.69645800  0.13812500  1
  C  1408  1  0.02113400  0.72466400  0.14835300  1
  C  1409  1  0.99656300  0.74945500  0.16653500  1
  C  1410  1  0.94847100  0.75070000  0.16663400  1
  C  1412  1  0.99100800  0.64040400  0.11571100  1
  C  1413  1  0.94294400  0.64127800  0.11673000  1
  C  1419  1  0.92764900  0.27140400  0.86897800  1
  C  1420  1  0.95317300  0.30006400  0.87958900  1
  C  1421  1  0.00222900  0.29977700  0.87997300  1
  C  1422  1  0.02746700  0.27089700  0.86959100  1
  C  1423  1  0.00156100  0.24660800  0.85171800  1
  C  1424  1  0.95340700  0.24689600  0.85133400  1
  C  1426  1  0.00195800  0.35568300  0.90305500  1
  C  1427  1  0.95389800  0.35596500  0.90264300  1
  C  1433  1  0.02693700  0.85656800  0.28397800  1
  C  1434  1  0.00173900  0.86763800  0.31262200  1
  C  1435  1  0.95267400  0.86858400  0.31237400  1
  C  1436  1  0.92728500  0.85847800  0.28349300  1
  C  1437  1  0.95267400  0.83966400  0.25961600  1
  C  1438  1  0.00078700  0.83872000  0.25985400  1
  C  1440  1  0.95344100  0.89169400  0.36819200  1
  C  1441  1  0.00151300  0.89085300  0.36841000  1
  C  1447  1  0.02748700  0.13759700  0.73507400  1
  C  1448  1  0.00204100  0.12735500  0.70624100  1
  C  1449  1  0.95298700  0.12802200  0.70602800  1
  C  1450  1  0.92763900  0.13871200  0.73474500  1
  C  1451  1  0.95364700  0.15617800  0.75924000  1
  C  1452  1  0.00180900  0.15554900  0.75943800  1
  C  1454  1  0.95332400  0.10504600  0.65009100  1
  C  1455  1  0.00137500  0.10429200  0.65033200  1
  C  1461  1  0.03169000  0.26861800  0.14995000  1
  C  1462  1  0.00761600  0.29806000  0.13972300  1
  C  1463  1  0.95853100  0.29880400  0.13869600  1
  C  1464  1  0.93189000  0.27048800  0.14879900  1
  C  1465  1  0.95654100  0.24574800  0.16702000  1
  C  1466  1  0.00465200  0.24474200  0.16742700  1
  C  1468  1  0.96168600  0.35485500  0.11623300  1
  C  1469  1  0.00973200  0.35428300  0.11773200  1
  C  1475  1  0.02120700  0.72474900  0.86816000  1
  C  1476  1  0.99452800  0.69647600  0.87833400  1
  C  1477  1  0.94544300  0.69741000  0.87769900  1
  C  1478  1  0.92143500  0.72690800  0.86756300  1
  C  1479  1  0.94847100  0.75068500  0.84991100  1
  C  1480  1  0.99658000  0.74953800  0.85002800  1
  C  1482  1  0.94325000  0.64118500  0.89967600  1
  C  1483  1  0.99131400  0.64038700  0.90070100  1
  C  1489  1  0.42217500  0.64049700  0.78773100  1
  C  1490  1  0.44639300  0.62871900  0.81646600  1
  C  1491  1  0.49547800  0.62763200  0.81666700  1
  C  1492  1  0.52120200  0.63873500  0.78830600  1
  C  1493  1  0.49658900  0.65979600  0.76593700  1
  C  1494  1  0.44854800  0.66076000  0.76573400  1
  C  1496  1  0.49334400  0.60310400  0.87173500  1
  C  1497  1  0.44522500  0.60436700  0.87156100  1
  C  1503  1  0.43206400  0.35703400  0.22908200  1
  C  1504  1  0.45772200  0.36795100  0.20062500  1
  C  1505  1  0.50679700  0.36661800  0.20066600  1
  C  1506  1  0.53109700  0.35496300  0.22942000  1
  C  1507  1  0.50479600  0.33488300  0.25160600  1
  C  1508  1  0.45676600  0.33614900  0.25159300  1
  C  1510  1  0.50785200  0.39064100  0.14542100  1
  C  1511  1  0.45975000  0.39225800  0.14545400  1
  C  1517  1  0.42676700  0.21810100  0.64979300  1
  C  1518  1  0.45180000  0.18975400  0.63795200  1
  C  1519  1  0.50091600  0.18964500  0.63855400  1
  C  1520  1  0.52561500  0.21794800  0.65089200  1
  C  1521  1  0.49988100  0.23918300  0.67235500  1
  C  1522  1  0.45184800  0.23929700  0.67175800  1
  C  1524  1  0.50081600  0.13498200  0.61328900  1
  C  1525  1  0.45264500  0.13509200  0.61267900  1
  C  1531  1  0.42929400  0.77343000  0.36619100  1
  C  1532  1  0.45435400  0.80212300  0.37720100  1
  C  1533  1  0.50349000  0.80199500  0.37738000  1
  C  1534  1  0.52847100  0.77327700  0.36634200  1
  C  1535  1  0.50285100  0.75078500  0.34606900  1
  C  1536  1  0.45479300  0.75092900  0.34587800  1
  C  1538  1  0.50308100  0.85749700  0.40087300  1
  C  1539  1  0.45492400  0.85765700  0.40059200  1
  C  1545  1  0.52613700  0.35429300  0.78909200  1
  C  1546  1  0.50094300  0.36640700  0.81724000  1
  C  1547  1  0.45183400  0.36685400  0.81672200  1
  C  1548  1  0.42730700  0.35502800  0.78811800  1
  C  1549  1  0.45281700  0.33321900  0.76704700  1
  C  1550  1  0.50086400  0.33282800  0.76754900  1
  C  1552  1  0.45174100  0.39201200  0.87145600  1
  C  1553  1  0.49990900  0.39152000  0.87196100  1
  C  1559  1  0.52154900  0.63905100  0.22927800  1
  C  1560  1  0.49597000  0.62818400  0.20075400  1
  C  1561  1  0.44689800  0.62956800  0.20068900  1
  C  1562  1  0.42249500  0.64123300  0.22938700  1
  C  1563  1  0.44877200  0.66122900  0.25167300  1
  C  1564  1  0.49680900  0.65992900  0.25176600  1
  C  1566  1  0.44599400  0.60554700  0.14544100  1
  C  1567  1  0.49409300  0.60389000  0.14556400  1
  C  1573  1  0.52848100  0.77405600  0.65083000  1
  C  1574  1  0.50367900  0.80275000  0.63951300  1
  C  1575  1  0.45453900  0.80299600  0.63956600  1
  C  1576  1  0.42928700  0.77447500  0.65076700  1
  C  1577  1  0.45463500  0.75206300  0.67128300  1
  C  1578  1  0.50268900  0.75182500  0.67126600  1
  C  1580  1  0.45546400  0.85835300  0.61577600  1
  C  1581  1  0.50362400  0.85807600  0.61561300  1
  C  1587  1  0.52513700  0.22224500  0.36564400  1
  C  1588  1  0.50022200  0.19337600  0.37634800  1
  C  1589  1  0.45109900  0.19312700  0.37582800  1
  C  1590  1  0.42604200  0.22172600  0.36458200  1
  C  1591  1  0.45175900  0.24435800  0.34455300  1
  C  1592  1  0.49981300  0.24455800  0.34498500  1
  C  1594  1  0.45162400  0.13761100  0.39926900  1
  C  1595  1  0.49977800  0.13784300  0.39976400  1
  N  711  1  0.21363400  0.02977300  0.26336600  1
  N  714  1  0.21384800  0.96299800  0.26287400  1
  N  725  1  0.21539900  0.96429000  0.75437300  1
  N  728  1  0.21544100  0.03113500  0.75381800  1
  N  739  1  0.20937000  0.74073400  0.04166300  1
  N  742  1  0.20941200  0.74068200  0.97483600  1
  N  753  1  0.21656500  0.25101300  0.97459300  1
  N  756  1  0.21719700  0.24878600  0.04137300  1
  N  767  1  0.73980800  0.96549000  0.26413900  1
  N  770  1  0.73950600  0.03227200  0.26393600  1
  N  781  1  0.74016200  0.03227100  0.75337100  1
  N  784  1  0.74028600  0.96549000  0.75243500  1
  N  795  1  0.74222800  0.25394500  0.04330700  1
  N  798  1  0.74119300  0.25344100  0.97649000  1
  N  809  1  0.73471400  0.74851900  0.97480600  1
  N  812  1  0.73478000  0.74881700  0.04162200  1
  N  823  1  0.70687400  0.53168500  0.76221700  1
  N  826  1  0.70718700  0.46502300  0.75995500  1
  N  837  1  0.71046600  0.46682500  0.25778600  1
  N  840  1  0.70895700  0.53343000  0.25500500  1
  N  851  1  0.70779800  0.24907900  0.54196000  1
  N  854  1  0.70798000  0.24910900  0.47529000  1
  N  865  1  0.71232800  0.74652600  0.47528000  1
  N  868  1  0.71214300  0.74615400  0.54205000  1
  N  879  1  0.24391600  0.46300700  0.75649900  1
  N  882  1  0.24248300  0.52965900  0.75646100  1
  N  893  1  0.24315400  0.52930800  0.25768500  1
  N  896  1  0.24470400  0.46270100  0.25494200  1
  N  907  1  0.24532300  0.74860200  0.54186900  1
  N  910  1  0.24540100  0.74807700  0.47518400  1
  N  921  1  0.24321400  0.24857300  0.47407500  1
  N  924  1  0.24383300  0.24837600  0.54078700  1
  N  935  1  0.22842400  0.10076200  0.34868200  1
  N  938  1  0.28640600  0.14009500  0.38242000  1
  N  949  1  0.23009000  0.89448000  0.66770800  1
  N  952  1  0.28941800  0.85587000  0.63430900  1
  N  963  1  0.22156000  0.65465500  0.11181500  1
  N  966  1  0.28133900  0.62165800  0.15032100  1
  N  977  1  0.22725000  0.33952200  0.90509600  1
  N  980  1  0.28587400  0.37335300  0.86641500  1
  N  991  1  0.72542700  0.89440500  0.34948800  1
  N  994  1  0.66818900  0.85497900  0.38381300  1
  N  1005  1  0.72768500  0.10188100  0.66633300  1
  N  1008  1  0.66812000  0.14001500  0.63274100  1
  N  1019  1  0.73202300  0.34094600  0.11235600  1
  N  1022  1  0.67248600  0.37430500  0.15069900  1
  N  1033  1  0.78473800  0.64251300  0.88177300  1
  N  1036  1  0.72667100  0.60258700  0.84868600  1
  N  1047  1  0.72632800  0.89439200  0.66703600  1
  N  1050  1  0.66864300  0.85501900  0.63304700  1
  N  1061  1  0.72435100  0.10251100  0.35020400  1
  N  1064  1  0.66475200  0.14121800  0.38316100  1
  N  1075  1  0.72749600  0.33977600  0.90604200  1
  N  1078  1  0.66800400  0.37333600  0.86775800  1
  N  1089  1  0.78440400  0.64306000  0.13475600  1
  N  1092  1  0.72649300  0.60326000  0.16805700  1
  N  1103  1  0.22690500  0.10096200  0.66613000  1
  N  1106  1  0.28501100  0.13944100  0.63153600  1
  N  1117  1  0.22953500  0.89328300  0.34936300  1
  N  1120  1  0.28940400  0.85482100  0.38236000  1
  N  1131  1  0.22103500  0.65424300  0.90464200  1
  N  1134  1  0.28040500  0.62084700  0.86611900  1
  N  1145  1  0.16838300  0.35298000  0.13527200  1
  N  1148  1  0.22665900  0.39280800  0.16821400  1
  N  1159  1  0.23838900  0.13727500  0.19966200  1
  N  1162  1  0.24046400  0.18058800  0.14809600  1
  N  1173  1  0.24041400  0.84763100  0.81373300  1
  N  1176  1  0.23817500  0.79977800  0.86095300  1
  N  1187  1  0.23777300  0.80013000  0.15539700  1
  N  1190  1  0.23947300  0.84727200  0.20334900  1
  N  1201  1  0.24228800  0.19263100  0.86110400  1
  N  1204  1  0.24222000  0.14555800  0.81307000  1
  N  1215  1  0.71523600  0.85813700  0.20009500  1
  N  1218  1  0.71298100  0.81561000  0.14787300  1
  N  1229  1  0.71293700  0.14668600  0.81300500  1
  N  1232  1  0.71274800  0.19348100  0.86131000  1
  N  1243  1  0.71510200  0.19532700  0.15671200  1
  N  1246  1  0.71340400  0.14774700  0.20424000  1
  N  1257  1  0.71280300  0.81500300  0.86810500  1
  N  1260  1  0.71536700  0.85777800  0.81610000  1
  N  1271  1  0.72965800  0.63686700  0.69998500  1
  N  1274  1  0.73211200  0.68079200  0.64895700  1
  N  1285  1  0.73111200  0.36256200  0.32671500  1
  N  1288  1  0.72891900  0.31606400  0.37550200  1
  N  1299  1  0.72563300  0.31602400  0.64310000  1
  N  1302  1  0.72598100  0.36305900  0.69141300  1
  N  1313  1  0.73304000  0.68101300  0.36869700  1
  N  1316  1  0.73055200  0.63797700  0.31690500  1
  N  1327  1  0.22697000  0.36255400  0.69047700  1
  N  1330  1  0.22663600  0.31569800  0.64198800  1
  N  1341  1  0.22234900  0.63421200  0.32635100  1
  N  1344  1  0.22477900  0.68014700  0.37566800  1
  N  1355  1  0.22509500  0.68100000  0.64139800  1
  N  1358  1  0.22267200  0.63428400  0.68997200  1
  N  1369  1  0.22142900  0.31401600  0.36801900  1
  N  1372  1  0.22338800  0.35799800  0.31700800  1
  N  1383  1  0.02249200  0.11460300  0.34001200  1
  N  1386  1  0.93079700  0.11633400  0.34080300  1
  N  1397  1  0.02412500  0.88101800  0.67685800  1
  N  1400  1  0.93238500  0.88134900  0.67672000  1
  N  1411  1  0.01425800  0.66787200  0.12626300  1
  N  1414  1  0.92248300  0.66966900  0.12787400  1
  N  1425  1  0.02358400  0.32774400  0.89197000  1
  N  1428  1  0.93202400  0.32826600  0.89122200  1
  N  1439  1  0.93147800  0.88078700  0.34031100  1
  N  1442  1  0.02320700  0.87912700  0.34075000  1
  N  1453  1  0.93164300  0.11657000  0.67782700  1
  N  1456  1  0.02319400  0.11522300  0.67825200  1
  N  1467  1  0.93856500  0.32726200  0.12660600  1
  N  1470  1  0.03030600  0.32601000  0.12906200  1
  N  1481  1  0.92271700  0.66954600  0.88853600  1
  N  1484  1  0.01447400  0.66790400  0.89018300  1
  N  1495  1  0.51615600  0.61458100  0.84441600  1
  N  1498  1  0.42397300  0.61685300  0.84402600  1
  N  1509  1  0.52915500  0.37818500  0.17295000  1
  N  1512  1  0.43700600  0.38103500  0.17290800  1
  N  1523  1  0.52275200  0.16215000  0.62598800  1
  N  1526  1  0.43035600  0.16235600  0.62483100  1
  N  1537  1  0.52509200  0.82980600  0.38946600  1
  N  1540  1  0.43281300  0.83007900  0.38900700  1
  N  1551  1  0.42993300  0.37986500  0.84398400  1
  N  1554  1  0.52231500  0.37895900  0.84493500  1
  N  1565  1  0.42461900  0.61802000  0.17293000  1
  N  1568  1  0.51674700  0.61508800  0.17306700  1
  N  1579  1  0.43317100  0.83091800  0.62751400  1
  N  1582  1  0.52547100  0.83041600  0.62727600  1
  N  1593  1  0.42954100  0.16514300  0.38755100  1
  N  1596  1  0.52181000  0.16559300  0.38851000  1
