# generated using pymatgen
data_H28C46N3O2
_symmetry_space_group_name_H-M   'P 1'
_cell_length_a   68.54180000
_cell_length_b   68.54180000
_cell_length_c   68.54180000
_cell_angle_alpha   90.00000000
_cell_angle_beta   90.00000000
_cell_angle_gamma   90.00000000
_symmetry_Int_Tables_number   1
_chemical_formula_structural   H28C46N3O2
_chemical_formula_sum   'H1344 C2208 N144 O96'
_cell_volume   322007.89228085
_cell_formula_units_Z   48
loop_
 _symmetry_equiv_pos_site_id
 _symmetry_equiv_pos_as_xyz
  1  'x, y, z'
loop_
 _atom_site_type_symbol
 _atom_site_label
 _atom_site_symmetry_multiplicity
 _atom_site_fract_x
 _atom_site_fract_y
 _atom_site_fract_z
 _atom_site_occupancy
  H  73  1  0.02505200  0.67917200  0.48179000  1
  H  74  1  0.02461400  0.64448400  0.48135300  1
  H  75  1  0.98739700  0.67901900  0.53054300  1
  H  76  1  0.98766700  0.64433900  0.53064200  1
  H  77  1  0.97564800  0.61621900  0.51086900  1
  H  78  1  0.97566100  0.58134700  0.51105000  1
  H  79  1  0.03649500  0.61610500  0.50093300  1
  H  80  1  0.03636000  0.58122900  0.50082800  1
  H  81  1  0.00583100  0.57105400  0.46679200  1
  H  82  1  0.00591900  0.54493900  0.44068100  1
  H  83  1  0.00589100  0.51795100  0.49378900  1
  H  84  1  0.00588900  0.49381200  0.51793200  1
  H  85  1  0.00615000  0.57166500  0.54542700  1
  H  86  1  0.00597100  0.54546500  0.57163600  1
  H  87  1  0.97571400  0.50067400  0.58127300  1
  H  88  1  0.97566000  0.50065300  0.61614600  1
  H  89  1  0.03635200  0.51124100  0.58128400  1
  H  90  1  0.03644500  0.51095100  0.61615900  1
  H  91  1  0.00605800  0.46682100  0.57103700  1
  H  92  1  0.00573000  0.44071000  0.54493100  1
  H  93  1  0.00563300  0.46630400  0.44008300  1
  H  94  1  0.00581500  0.44009900  0.46628700  1
  H  95  1  0.03606700  0.43046700  0.51108300  1
  H  96  1  0.03611700  0.39559300  0.51110700  1
  H  97  1  0.97542900  0.43045800  0.50050700  1
  H  98  1  0.97533300  0.39558300  0.50080100  1
  H  99  1  0.98740600  0.36722800  0.48131300  1
  H  100  1  0.98702300  0.33254300  0.48175700  1
  H  101  1  0.02435000  0.33277200  0.53076200  1
  H  102  1  0.02401600  0.36745100  0.53085200  1
  H  103  1  0.97540100  0.51089500  0.43052100  1
  H  104  1  0.97525700  0.51078300  0.39564300  1
  H  105  1  0.02407800  0.48108100  0.36739800  1
  H  106  1  0.02433600  0.48117800  0.33271800  1
  H  107  1  0.98667500  0.52992700  0.33257500  1
  H  108  1  0.98712600  0.53036800  0.36726300  1
  H  109  1  0.03610500  0.50085800  0.39551500  1
  H  110  1  0.03610200  0.50068400  0.43038700  1
  H  111  1  0.02437600  0.53044400  0.64451000  1
  H  112  1  0.02475900  0.53000300  0.67919500  1
  H  113  1  0.98776000  0.48090900  0.64429300  1
  H  114  1  0.98742500  0.48100400  0.67897200  1
  H  187  1  0.48094000  0.02449500  0.67896100  1
  H  188  1  0.48087900  0.02416400  0.64427800  1
  H  189  1  0.52973000  0.98688800  0.67923000  1
  H  190  1  0.53020500  0.98726600  0.64454500  1
  H  191  1  0.51069200  0.97531400  0.61617100  1
  H  192  1  0.51103200  0.97541500  0.58129600  1
  H  193  1  0.50071000  0.03615300  0.61615800  1
  H  194  1  0.50076700  0.03610500  0.58128300  1
  H  195  1  0.46678100  0.00560900  0.57105400  1
  H  196  1  0.44067100  0.00580200  0.54494000  1
  H  197  1  0.49377900  0.00581900  0.51795100  1
  H  198  1  0.51792000  0.00596300  0.49381200  1
  H  199  1  0.54541700  0.00591100  0.57166700  1
  H  200  1  0.57162600  0.00584300  0.54546400  1
  H  201  1  0.58126300  0.97573100  0.50062600  1
  H  202  1  0.61613600  0.97568000  0.50060800  1
  H  203  1  0.58127100  0.03635300  0.51129100  1
  H  204  1  0.61614600  0.03644900  0.51100000  1
  H  205  1  0.57102500  0.00620100  0.46682100  1
  H  206  1  0.54491700  0.00597300  0.44070900  1
  H  207  1  0.44007100  0.00576400  0.46630600  1
  H  208  1  0.46627400  0.00605400  0.44010200  1
  H  209  1  0.51103500  0.03632000  0.43051200  1
  H  210  1  0.51090100  0.03644800  0.39563400  1
  H  211  1  0.50047700  0.97568000  0.43041500  1
  H  212  1  0.50061300  0.97566100  0.39554400  1
  H  213  1  0.48086100  0.98780500  0.36744100  1
  H  214  1  0.48092400  0.98752500  0.33276200  1
  H  215  1  0.52992000  0.02486500  0.33255500  1
  H  216  1  0.53039100  0.02442800  0.36724000  1
  H  217  1  0.43050900  0.97539700  0.51085900  1
  H  218  1  0.39563100  0.97525100  0.51075200  1
  H  219  1  0.36739000  0.02408900  0.48109000  1
  H  220  1  0.33271100  0.02435100  0.48118600  1
  H  221  1  0.33256500  0.98666900  0.52992000  1
  H  222  1  0.36725300  0.98711400  0.53035900  1
  H  223  1  0.39550000  0.03611100  0.50089700  1
  H  224  1  0.43037400  0.03610900  0.50072300  1
  H  225  1  0.64450300  0.02437200  0.53045600  1
  H  226  1  0.67918700  0.02475200  0.53001800  1
  H  227  1  0.64428400  0.98778800  0.48089800  1
  H  228  1  0.67896300  0.98744900  0.48099500  1
  H  301  1  0.67896200  0.48093800  0.02448700  1
  H  302  1  0.64428000  0.48087700  0.02415900  1
  H  303  1  0.67922900  0.52973500  0.98688800  1
  H  304  1  0.64454400  0.53020900  0.98726900  1
  H  305  1  0.61616800  0.51069200  0.97531400  1
  H  306  1  0.58129300  0.51103500  0.97541600  1
  H  307  1  0.61615900  0.50070900  0.03615200  1
  H  308  1  0.58128400  0.50076700  0.03610700  1
  H  309  1  0.57105300  0.46678200  0.00560200  1
  H  310  1  0.54493700  0.44067200  0.00579400  1
  H  311  1  0.51795100  0.49378200  0.00583100  1
  H  312  1  0.49381200  0.51792500  0.00597100  1
  H  313  1  0.57166700  0.54541700  0.00591600  1
  H  314  1  0.54546500  0.57162900  0.00585000  1
  H  315  1  0.50062700  0.58126300  0.97573100  1
  H  316  1  0.50061100  0.61613600  0.97567600  1
  H  317  1  0.51129100  0.58127700  0.03635300  1
  H  318  1  0.51100000  0.61615100  0.03644600  1
  H  319  1  0.46682100  0.57102900  0.00619300  1
  H  320  1  0.44070900  0.54492300  0.00596700  1
  H  321  1  0.46630200  0.44007600  0.00577300  1
  H  322  1  0.44010100  0.46627900  0.00606300  1
  H  323  1  0.43050900  0.51103800  0.03632200  1
  H  324  1  0.39563100  0.51090100  0.03644700  1
  H  325  1  0.43041600  0.50048100  0.97568100  1
  H  326  1  0.39554500  0.50061400  0.97566100  1
  H  327  1  0.36744400  0.48086300  0.98780800  1
  H  328  1  0.33276500  0.48092500  0.98752400  1
  H  329  1  0.33255000  0.52992300  0.02486100  1
  H  330  1  0.36723700  0.53039400  0.02443000  1
  H  331  1  0.51085200  0.43051400  0.97540000  1
  H  332  1  0.51074500  0.39563600  0.97525400  1
  H  333  1  0.48109200  0.36739000  0.02409700  1
  H  334  1  0.48118900  0.33271100  0.02435200  1
  H  335  1  0.52991700  0.33257100  0.98666500  1
  H  336  1  0.53035600  0.36725900  0.98711500  1
  H  337  1  0.50090300  0.39550300  0.03611600  1
  H  338  1  0.50072800  0.43037700  0.03611500  1
  H  339  1  0.53045600  0.64450600  0.02436800  1
  H  340  1  0.53001500  0.67919100  0.02475200  1
  H  341  1  0.48090200  0.64428700  0.98777900  1
  H  342  1  0.48099700  0.67896600  0.98744400  1
  H  415  1  0.51776800  0.17893600  0.97693800  1
  H  416  1  0.51780500  0.14411600  0.97709500  1
  H  417  1  0.49349100  0.17917400  0.03355600  1
  H  418  1  0.49373800  0.14434800  0.03380000  1
  H  419  1  0.47626400  0.11637700  0.01433000  1
  H  420  1  0.47628300  0.08145200  0.01437500  1
  H  421  1  0.53534900  0.11633700  0.99680700  1
  H  422  1  0.53539400  0.08141000  0.99714300  1
  H  423  1  0.50563000  0.07095800  0.96660400  1
  H  424  1  0.50611100  0.04485300  0.94061200  1
  H  425  1  0.50593200  0.01793600  0.99375500  1
  H  426  1  0.50591700  0.99383400  0.01796200  1
  H  427  1  0.50606300  0.07173300  0.04532700  1
  H  428  1  0.50563700  0.04565100  0.07152800  1
  H  429  1  0.47637300  0.99739400  0.08134400  1
  H  430  1  0.47631200  0.99723500  0.11627200  1
  H  431  1  0.53541200  0.01487300  0.08148000  1
  H  432  1  0.53532000  0.01501500  0.11640400  1
  H  433  1  0.50615700  0.96691800  0.07110300  1
  H  434  1  0.50566900  0.94081400  0.04511400  1
  H  435  1  0.50571200  0.96612700  0.94018500  1
  H  436  1  0.50614200  0.94004000  0.96638200  1
  H  437  1  0.53536900  0.93034000  0.01466700  1
  H  438  1  0.53531700  0.89541200  0.01496800  1
  H  439  1  0.47632200  0.93032100  0.99721400  1
  H  440  1  0.47630200  0.89539800  0.99721300  1
  H  441  1  0.49386800  0.86744400  0.97777200  1
  H  442  1  0.49360500  0.83261900  0.97798100  1
  H  443  1  0.51763300  0.83279400  0.03470600  1
  H  444  1  0.51767900  0.86761200  0.03458400  1
  H  445  1  0.47631100  0.01425300  0.93040700  1
  H  446  1  0.47622300  0.01443700  0.89548100  1
  H  447  1  0.51772600  0.97729400  0.86756100  1
  H  448  1  0.51760500  0.97717800  0.83274400  1
  H  449  1  0.49325800  0.03376700  0.83263200  1
  H  450  1  0.49359100  0.03397000  0.86746000  1
  H  451  1  0.53531700  0.99694200  0.89529400  1
  H  452  1  0.53542900  0.99704500  0.93021900  1
  H  453  1  0.51760700  0.03462500  0.14413300  1
  H  454  1  0.51750600  0.03477100  0.17894900  1
  H  455  1  0.49381700  0.97780400  0.14429700  1
  H  456  1  0.49350000  0.97803600  0.17912400  1
  H  529  1  0.97693900  0.51776700  0.17893600  1
  H  530  1  0.97709700  0.51780300  0.14411500  1
  H  531  1  0.03355800  0.49349100  0.17917400  1
  H  532  1  0.03380200  0.49373600  0.14434800  1
  H  533  1  0.01433900  0.47626400  0.11637500  1
  H  534  1  0.01438500  0.47628300  0.08145000  1
  H  535  1  0.99680300  0.53534500  0.11633500  1
  H  536  1  0.99713800  0.53539100  0.08140900  1
  H  537  1  0.96660500  0.50562800  0.07095800  1
  H  538  1  0.94061400  0.50611000  0.04485400  1
  H  539  1  0.99375500  0.50593000  0.01793500  1
  H  540  1  0.01796200  0.50592800  0.99383200  1
  H  541  1  0.04533000  0.50607600  0.07173000  1
  H  542  1  0.07153000  0.50565200  0.04564700  1
  H  543  1  0.08134100  0.47637000  0.99740100  1
  H  544  1  0.11626800  0.47630300  0.99724400  1
  H  545  1  0.08148400  0.53541500  0.01485900  1
  H  546  1  0.11640900  0.53531700  0.01500400  1
  H  547  1  0.07110100  0.50614600  0.96691300  1
  H  548  1  0.04511100  0.50565200  0.94081100  1
  H  549  1  0.94018300  0.50573100  0.96612700  1
  H  550  1  0.96638100  0.50616100  0.94004000  1
  H  551  1  0.01467100  0.53536600  0.93033700  1
  H  552  1  0.01497100  0.53531200  0.89540900  1
  H  553  1  0.99720700  0.47632400  0.93032400  1
  H  554  1  0.99720600  0.47630000  0.89539900  1
  H  555  1  0.97777100  0.49386900  0.86744200  1
  H  556  1  0.97798200  0.49360800  0.83261700  1
  H  557  1  0.03471000  0.51762700  0.83279500  1
  H  558  1  0.03458600  0.51767400  0.86761500  1
  H  559  1  0.93040400  0.47631100  0.01424400  1
  H  560  1  0.89547800  0.47622400  0.01442600  1
  H  561  1  0.86756100  0.51772800  0.97729200  1
  H  562  1  0.83274300  0.51760800  0.97717700  1
  H  563  1  0.83263000  0.49326100  0.03376600  1
  H  564  1  0.86745900  0.49359200  0.03396900  1
  H  565  1  0.89529600  0.53532300  0.99694400  1
  H  566  1  0.93022000  0.53543200  0.99705200  1
  H  567  1  0.14413000  0.51760700  0.03462000  1
  H  568  1  0.17894600  0.51750400  0.03477000  1
  H  569  1  0.14429900  0.49381200  0.97780100  1
  H  570  1  0.17912700  0.49349400  0.97803800  1
  H  643  1  0.17890200  0.97704300  0.51776300  1
  H  644  1  0.14408300  0.97723500  0.51779600  1
  H  645  1  0.17920200  0.03365800  0.49348000  1
  H  646  1  0.14437500  0.03393800  0.49372200  1
  H  647  1  0.11638000  0.01449100  0.47624900  1
  H  648  1  0.08145500  0.01452800  0.47625800  1
  H  649  1  0.11632900  0.99696900  0.53533400  1
  H  650  1  0.08140200  0.99729600  0.53537100  1
  H  651  1  0.07103800  0.96674200  0.50563600  1
  H  652  1  0.04499000  0.94069700  0.50614300  1
  H  653  1  0.01795800  0.99378100  0.50587500  1
  H  654  1  0.99380800  0.01793400  0.50588500  1
  H  655  1  0.07164800  0.04546700  0.50604700  1
  H  656  1  0.04550900  0.07161400  0.50565200  1
  H  657  1  0.99722300  0.08140000  0.47643700  1
  H  658  1  0.99693900  0.11632700  0.47648100  1
  H  659  1  0.01469900  0.08142200  0.53547700  1
  H  660  1  0.01471700  0.11634700  0.53548900  1
  H  661  1  0.96677600  0.07101600  0.50616400  1
  H  662  1  0.94072900  0.04497300  0.50564300  1
  H  663  1  0.96626500  0.94009700  0.50572000  1
  H  664  1  0.94012200  0.96624100  0.50612700  1
  H  665  1  0.93034300  0.01451900  0.53535000  1
  H  666  1  0.89541500  0.01481200  0.53530800  1
  H  667  1  0.93031400  0.99706300  0.47630500  1
  H  668  1  0.89538900  0.99705400  0.47629500  1
  H  669  1  0.86741000  0.97763200  0.49385800  1
  H  670  1  0.83258500  0.97787700  0.49360100  1
  H  671  1  0.83282100  0.03460300  0.51762300  1
  H  672  1  0.86763800  0.03444600  0.51766500  1
  H  673  1  0.01443600  0.93034400  0.47638400  1
  H  674  1  0.01475800  0.89541800  0.47641100  1
  H  675  1  0.97779100  0.86736400  0.51802200  1
  H  676  1  0.97806800  0.83253800  0.51825900  1
  H  677  1  0.03467700  0.83283600  0.49396100  1
  H  678  1  0.03448700  0.86765500  0.49393500  1
  H  679  1  0.99723600  0.89535400  0.53549600  1
  H  680  1  0.99720600  0.93027900  0.53549600  1
  H  681  1  0.03412800  0.14432200  0.51792300  1
  H  682  1  0.03389100  0.17914800  0.51818000  1
  H  683  1  0.97731100  0.14410600  0.49412500  1
  H  684  1  0.97716100  0.17892300  0.49416400  1
  H  691  1  0.97756900  0.49165900  0.20636400  1
  H  698  1  0.00788000  0.53575900  0.26931900  1
  H  699  1  0.00853100  0.53601400  0.30411600  1
  H  700  1  0.00229700  0.47470100  0.30461500  1
  H  701  1  0.03250800  0.51918700  0.20738700  1
  H  702  1  0.00235000  0.47444500  0.26983700  1
  H  703  1  0.03216900  0.51876900  0.24217300  1
  H  713  1  0.03399400  0.49160800  0.80537100  1
  H  720  1  0.00353200  0.53569500  0.74242000  1
  H  721  1  0.00288800  0.53595000  0.70762600  1
  H  722  1  0.00939500  0.47466500  0.70712600  1
  H  723  1  0.97907200  0.51916900  0.80437400  1
  H  724  1  0.00931100  0.47440500  0.74190000  1
  H  725  1  0.97938600  0.51873100  0.76959100  1
  H  735  1  0.20634000  0.97764200  0.49165900  1
  H  742  1  0.26931700  0.00790700  0.53576500  1
  H  743  1  0.30411500  0.00853700  0.53601700  1
  H  744  1  0.30460400  0.00230000  0.47470300  1
  H  745  1  0.20740300  0.03258500  0.51917800  1
  H  746  1  0.26982500  0.00237500  0.47445000  1
  H  747  1  0.24218900  0.03221500  0.51876900  1
  H  757  1  0.80539600  0.03391800  0.49160900  1
  H  764  1  0.74241100  0.00350800  0.53569600  1
  H  765  1  0.70761700  0.00288400  0.53595000  1
  H  766  1  0.70712300  0.00940500  0.47466600  1
  H  767  1  0.80434200  0.97899600  0.51916500  1
  H  768  1  0.74189700  0.00930200  0.47440800  1
  H  769  1  0.76955900  0.97934600  0.51873000  1
  H  779  1  0.49166000  0.20636400  0.97756900  1
  H  786  1  0.53576000  0.26931700  0.00787600  1
  H  787  1  0.53601600  0.30411500  0.00852800  1
  H  788  1  0.47470100  0.30461100  0.00230200  1
  H  789  1  0.51918900  0.20738400  0.03250700  1
  H  790  1  0.47444600  0.26983200  0.00235400  1
  H  791  1  0.51877200  0.24217000  0.03216900  1
  H  801  1  0.49161400  0.80537200  0.03399200  1
  H  808  1  0.53569300  0.74241700  0.00352700  1
  H  809  1  0.53595000  0.70762300  0.00288700  1
  H  810  1  0.47466600  0.70712100  0.00940500  1
  H  811  1  0.51917200  0.80436900  0.97907100  1
  H  812  1  0.47440500  0.74189600  0.00931900  1
  H  813  1  0.51873100  0.76958700  0.97938600  1
  H  823  1  0.49146000  0.97779800  0.80536700  1
  H  830  1  0.53549800  0.00819700  0.74243700  1
  H  831  1  0.53577400  0.00881100  0.70764100  1
  H  832  1  0.47446800  0.00248800  0.70711100  1
  H  833  1  0.51889200  0.03278500  0.80436600  1
  H  834  1  0.47419200  0.00257900  0.74189100  1
  H  835  1  0.51845900  0.03246600  0.76957800  1
  H  845  1  0.49147200  0.03406400  0.20635100  1
  H  852  1  0.53557800  0.00365100  0.26930900  1
  H  853  1  0.53585100  0.00301200  0.30410200  1
  H  854  1  0.47456600  0.00951500  0.30463300  1
  H  855  1  0.51904500  0.97915100  0.20738900  1
  H  856  1  0.47428800  0.00942900  0.26985700  1
  H  857  1  0.51860900  0.97949100  0.24217200  1
  H  867  1  0.97784800  0.20635300  0.52016600  1
  H  874  1  0.00827600  0.26932000  0.47607700  1
  H  875  1  0.00890500  0.30411500  0.47581900  1
  H  876  1  0.00237900  0.30462000  0.53710300  1
  H  877  1  0.03277700  0.20738700  0.49262300  1
  H  878  1  0.00247700  0.26984400  0.53736500  1
  H  879  1  0.03243600  0.24217000  0.49305200  1
  H  889  1  0.03408000  0.80539700  0.52006000  1
  H  896  1  0.00381000  0.74242000  0.47595700  1
  H  897  1  0.00318100  0.70762200  0.47570400  1
  H  898  1  0.00943100  0.70713200  0.53701700  1
  H  899  1  0.97913200  0.80433500  0.49255300  1
  H  900  1  0.00935500  0.74191000  0.53727000  1
  H  901  1  0.97950300  0.76954900  0.49295900  1
  H  911  1  0.20635400  0.49147100  0.03406700  1
  H  918  1  0.26930700  0.53557800  0.00364500  1
  H  919  1  0.30410000  0.53585100  0.00300900  1
  H  920  1  0.30463300  0.47456700  0.00951900  1
  H  921  1  0.20738600  0.51903900  0.97915100  1
  H  922  1  0.26985700  0.47428800  0.00943000  1
  H  923  1  0.24216900  0.51860600  0.97948800  1
  H  933  1  0.80536800  0.49146000  0.97779700  1
  H  940  1  0.74243700  0.53549600  0.00819300  1
  H  941  1  0.70763900  0.53577200  0.00881000  1
  H  942  1  0.70711100  0.47446800  0.00248600  1
  H  943  1  0.80436300  0.51889300  0.03278300  1
  H  944  1  0.74189000  0.47419200  0.00257300  1
  H  945  1  0.76957500  0.51845700  0.03246200  1
  H  1021  1  0.12717900  0.78129900  0.61309700  1
  H  1022  1  0.12674100  0.74661100  0.61266000  1
  H  1023  1  0.08952450  0.78114600  0.66185000  1
  H  1024  1  0.08979450  0.74646600  0.66194900  1
  H  1025  1  0.07777550  0.71834600  0.64217600  1
  H  1026  1  0.07778850  0.68347400  0.64235700  1
  H  1027  1  0.13862200  0.71823200  0.63224000  1
  H  1028  1  0.13848700  0.68335600  0.63213500  1
  H  1029  1  0.10795800  0.67318100  0.59809900  1
  H  1030  1  0.10804600  0.64706600  0.57198800  1
  H  1031  1  0.10801800  0.62007800  0.62509600  1
  H  1032  1  0.10801600  0.59593900  0.64923900  1
  H  1033  1  0.10827700  0.67379200  0.67673400  1
  H  1034  1  0.10809800  0.64759200  0.70294300  1
  H  1035  1  0.07784150  0.60280100  0.71258000  1
  H  1036  1  0.07778750  0.60278000  0.74745300  1
  H  1037  1  0.13847900  0.61336800  0.71259100  1
  H  1038  1  0.13857200  0.61307800  0.74746600  1
  H  1039  1  0.10818500  0.56894800  0.70234400  1
  H  1040  1  0.10785700  0.54283700  0.67623800  1
  H  1041  1  0.10776000  0.56843100  0.57139000  1
  H  1042  1  0.10794200  0.54222600  0.59759400  1
  H  1043  1  0.13819400  0.53259400  0.64239000  1
  H  1044  1  0.13824400  0.49772000  0.64241400  1
  H  1045  1  0.07755650  0.53258500  0.63181400  1
  H  1046  1  0.07746050  0.49771000  0.63210800  1
  H  1047  1  0.08953350  0.46935500  0.61262000  1
  H  1048  1  0.08915050  0.43467000  0.61306400  1
  H  1049  1  0.12647700  0.43489900  0.66206900  1
  H  1050  1  0.12614300  0.46957800  0.66215900  1
  H  1051  1  0.07752850  0.61302200  0.56182800  1
  H  1052  1  0.07738450  0.61291000  0.52695000  1
  H  1053  1  0.12620500  0.58320800  0.49870500  1
  H  1054  1  0.12646300  0.58330500  0.46402500  1
  H  1055  1  0.08880250  0.63205400  0.46388200  1
  H  1056  1  0.08925350  0.63249500  0.49857000  1
  H  1057  1  0.13823200  0.60298500  0.52682200  1
  H  1058  1  0.13822900  0.60281100  0.56169400  1
  H  1059  1  0.12650300  0.63257100  0.77581700  1
  H  1060  1  0.12688600  0.63213000  0.81050200  1
  H  1061  1  0.08988750  0.58303600  0.77560000  1
  H  1062  1  0.08955250  0.58313100  0.81027900  1
  H  1135  1  0.58306700  0.12662200  0.81026800  1
  H  1136  1  0.58300600  0.12629100  0.77558500  1
  H  1137  1  0.63185700  0.08901550  0.81053700  1
  H  1138  1  0.63233200  0.08939350  0.77585200  1
  H  1139  1  0.61281900  0.07744150  0.74747800  1
  H  1140  1  0.61315900  0.07754250  0.71260300  1
  H  1141  1  0.60283700  0.13828000  0.74746500  1
  H  1142  1  0.60289400  0.13823200  0.71259000  1
  H  1143  1  0.56890800  0.10773600  0.70236100  1
  H  1144  1  0.54279800  0.10792900  0.67624700  1
  H  1145  1  0.59590600  0.10794600  0.64925800  1
  H  1146  1  0.62004700  0.10809000  0.62511900  1
  H  1147  1  0.64754400  0.10803800  0.70297400  1
  H  1148  1  0.67375300  0.10797000  0.67677100  1
  H  1149  1  0.68339000  0.07785850  0.63193300  1
  H  1150  1  0.71826300  0.07780750  0.63191500  1
  H  1151  1  0.68339800  0.13848000  0.64259800  1
  H  1152  1  0.71827300  0.13857600  0.64230700  1
  H  1153  1  0.67315200  0.10832800  0.59812800  1
  H  1154  1  0.64704400  0.10810000  0.57201600  1
  H  1155  1  0.54219800  0.10789100  0.59761300  1
  H  1156  1  0.56840100  0.10818100  0.57140900  1
  H  1157  1  0.61316200  0.13844700  0.56181900  1
  H  1158  1  0.61302800  0.13857500  0.52694100  1
  H  1159  1  0.60260400  0.07780750  0.56172200  1
  H  1160  1  0.60274000  0.07778850  0.52685100  1
  H  1161  1  0.58298800  0.08993250  0.49874800  1
  H  1162  1  0.58305100  0.08965250  0.46406900  1
  H  1163  1  0.63204700  0.12699200  0.46386200  1
  H  1164  1  0.63251800  0.12655500  0.49854700  1
  H  1165  1  0.53263600  0.07752450  0.64216600  1
  H  1166  1  0.49775800  0.07737850  0.64205900  1
  H  1167  1  0.46951700  0.12621600  0.61239700  1
  H  1168  1  0.43483800  0.12647800  0.61249300  1
  H  1169  1  0.43469200  0.08879650  0.66122700  1
  H  1170  1  0.46938000  0.08924150  0.66166600  1
  H  1171  1  0.49762700  0.13823800  0.63220400  1
  H  1172  1  0.53250100  0.13823600  0.63203000  1
  H  1173  1  0.74663000  0.12649900  0.66176300  1
  H  1174  1  0.78131400  0.12687900  0.66132500  1
  H  1175  1  0.74641100  0.08991550  0.61220500  1
  H  1176  1  0.78109000  0.08957650  0.61230200  1
  H  1249  1  0.78108900  0.58306500  0.15579400  1
  H  1250  1  0.74640700  0.58300400  0.15546600  1
  H  1251  1  0.78135600  0.63186200  0.11819500  1
  H  1252  1  0.74667100  0.63233600  0.11857600  1
  H  1253  1  0.71829500  0.61281900  0.10662100  1
  H  1254  1  0.68342000  0.61316200  0.10672300  1
  H  1255  1  0.71828600  0.60283600  0.16745900  1
  H  1256  1  0.68341100  0.60289400  0.16741400  1
  H  1257  1  0.67318000  0.56890900  0.13690900  1
  H  1258  1  0.64706400  0.54279900  0.13710100  1
  H  1259  1  0.62007800  0.59590900  0.13713800  1
  H  1260  1  0.59593900  0.62005200  0.13727800  1
  H  1261  1  0.67379400  0.64754400  0.13722300  1
  H  1262  1  0.64759200  0.67375600  0.13715700  1
  H  1263  1  0.60275400  0.68339000  0.10703800  1
  H  1264  1  0.60273800  0.71826300  0.10698300  1
  H  1265  1  0.61341800  0.68340400  0.16766000  1
  H  1266  1  0.61312700  0.71827800  0.16775300  1
  H  1267  1  0.56894800  0.67315600  0.13750000  1
  H  1268  1  0.54283600  0.64705000  0.13727400  1
  H  1269  1  0.56842900  0.54220300  0.13708000  1
  H  1270  1  0.54222800  0.56840600  0.13737000  1
  H  1271  1  0.53263600  0.61316500  0.16762900  1
  H  1272  1  0.49775800  0.61302800  0.16775400  1
  H  1273  1  0.53254300  0.60260800  0.10698800  1
  H  1274  1  0.49767200  0.60274100  0.10696800  1
  H  1275  1  0.46957100  0.58299000  0.11911500  1
  H  1276  1  0.43489200  0.58305200  0.11883100  1
  H  1277  1  0.43467700  0.63205000  0.15616800  1
  H  1278  1  0.46936400  0.63252100  0.15573700  1
  H  1279  1  0.61297900  0.53264100  0.10670700  1
  H  1280  1  0.61287200  0.49776300  0.10656100  1
  H  1281  1  0.58321900  0.46951700  0.15540400  1
  H  1282  1  0.58331600  0.43483800  0.15565900  1
  H  1283  1  0.63204400  0.43469800  0.11797200  1
  H  1284  1  0.63248300  0.46938600  0.11842200  1
  H  1285  1  0.60303000  0.49763000  0.16742300  1
  H  1286  1  0.60285500  0.53250400  0.16742200  1
  H  1287  1  0.63258300  0.74663300  0.15567500  1
  H  1288  1  0.63214200  0.78131800  0.15605900  1
  H  1289  1  0.58302900  0.74641400  0.11908600  1
  H  1290  1  0.58312400  0.78109300  0.11875100  1
  H  1363  1  0.61989500  0.28106300  0.10824500  1
  H  1364  1  0.61993200  0.24624300  0.10840200  1
  H  1365  1  0.59561800  0.28130100  0.16486300  1
  H  1366  1  0.59586500  0.24647500  0.16510700  1
  H  1367  1  0.57839100  0.21850400  0.14563700  1
  H  1368  1  0.57841000  0.18357900  0.14568200  1
  H  1369  1  0.63747600  0.21846400  0.12811400  1
  H  1370  1  0.63752100  0.18353700  0.12845000  1
  H  1371  1  0.60775700  0.17308500  0.09791070  1
  H  1372  1  0.60823800  0.14698000  0.07191870  1
  H  1373  1  0.60805900  0.12006300  0.12506200  1
  H  1374  1  0.60804400  0.09596150  0.14926900  1
  H  1375  1  0.60819000  0.17386000  0.17663400  1
  H  1376  1  0.60776400  0.14777800  0.20283500  1
  H  1377  1  0.57850000  0.09952150  0.21265100  1
  H  1378  1  0.57843900  0.09936250  0.24757900  1
  H  1379  1  0.63753900  0.11700000  0.21278700  1
  H  1380  1  0.63744700  0.11714200  0.24771100  1
  H  1381  1  0.60828400  0.06904550  0.20241000  1
  H  1382  1  0.60779600  0.04294150  0.17642100  1
  H  1383  1  0.60783900  0.06825450  0.07149170  1
  H  1384  1  0.60826900  0.04216750  0.09768870  1
  H  1385  1  0.63749600  0.03246750  0.14597400  1
  H  1386  1  0.63744400  0.99753900  0.14627500  1
  H  1387  1  0.57844900  0.03244850  0.12852100  1
  H  1388  1  0.57842900  0.99752500  0.12852000  1
  H  1389  1  0.59599500  0.96957100  0.10907900  1
  H  1390  1  0.59573200  0.93474600  0.10928800  1
  H  1391  1  0.61976000  0.93492100  0.16601300  1
  H  1392  1  0.61980600  0.96973900  0.16589100  1
  H  1393  1  0.57843800  0.11638000  0.06171370  1
  H  1394  1  0.57835000  0.11656400  0.02678770  1
  H  1395  1  0.61985300  0.07942150  0.99886800  1
  H  1396  1  0.61973200  0.07930550  0.96405100  1
  H  1397  1  0.59538500  0.13589400  0.96393900  1
  H  1398  1  0.59571800  0.13609700  0.99876700  1
  H  1399  1  0.63744400  0.09906950  0.02660070  1
  H  1400  1  0.63755600  0.09917250  0.06152570  1
  H  1401  1  0.61973400  0.13675200  0.27544000  1
  H  1402  1  0.61963300  0.13689800  0.31025600  1
  H  1403  1  0.59594400  0.07993150  0.27560400  1
  H  1404  1  0.59562700  0.08016350  0.31043100  1
  H  1477  1  0.07906650  0.61989400  0.31024300  1
  H  1478  1  0.07922450  0.61993000  0.27542200  1
  H  1479  1  0.13568500  0.59561800  0.31048100  1
  H  1480  1  0.13592900  0.59586300  0.27565500  1
  H  1481  1  0.11646600  0.57839100  0.24768200  1
  H  1482  1  0.11651200  0.57841000  0.21275700  1
  H  1483  1  0.09893050  0.63747200  0.24764200  1
  H  1484  1  0.09926550  0.63751800  0.21271600  1
  H  1485  1  0.06873250  0.60775500  0.20226500  1
  H  1486  1  0.04274150  0.60823700  0.17616100  1
  H  1487  1  0.09588250  0.60805700  0.14924200  1
  H  1488  1  0.12008900  0.60805500  0.12513900  1
  H  1489  1  0.14745700  0.60820300  0.20303700  1
  H  1490  1  0.17365700  0.60777900  0.17695400  1
  H  1491  1  0.18346800  0.57849700  0.12870800  1
  H  1492  1  0.21839500  0.57843000  0.12855100  1
  H  1493  1  0.18361100  0.63754200  0.14616600  1
  H  1494  1  0.21853600  0.63744400  0.14631100  1
  H  1495  1  0.17322800  0.60827300  0.09821970  1
  H  1496  1  0.14723800  0.60777900  0.07211770  1
  H  1497  1  0.04231050  0.60785800  0.09743370  1
  H  1498  1  0.06850850  0.60828800  0.07134670  1
  H  1499  1  0.11679800  0.63749300  0.06164370  1
  H  1500  1  0.11709800  0.63743900  0.02671570  1
  H  1501  1  0.09933450  0.57845100  0.06163070  1
  H  1502  1  0.09933350  0.57842700  0.02670570  1
  H  1503  1  0.07989850  0.59599600  0.99874900  1
  H  1504  1  0.08010950  0.59573500  0.96392400  1
  H  1505  1  0.13683700  0.61975400  0.96410200  1
  H  1506  1  0.13671300  0.61980100  0.99892200  1
  H  1507  1  0.03253150  0.57843800  0.14555100  1
  H  1508  1  0.99760500  0.57835100  0.14573300  1
  H  1509  1  0.96968800  0.61985500  0.10859900  1
  H  1510  1  0.93487000  0.61973500  0.10848400  1
  H  1511  1  0.93475700  0.59538800  0.16507300  1
  H  1512  1  0.96958600  0.59571900  0.16527600  1
  H  1513  1  0.99742300  0.63745000  0.12825100  1
  H  1514  1  0.03234750  0.63755900  0.12835900  1
  H  1515  1  0.24625700  0.61973400  0.16592700  1
  H  1516  1  0.28107300  0.61963100  0.16607700  1
  H  1517  1  0.24642600  0.59593900  0.10910800  1
  H  1518  1  0.28125400  0.59562100  0.10934500  1
  H  1591  1  0.28102900  0.07917050  0.64907000  1
  H  1592  1  0.24621000  0.07936250  0.64910300  1
  H  1593  1  0.28132900  0.13578500  0.62478700  1
  H  1594  1  0.24650200  0.13606500  0.62502900  1
  H  1595  1  0.21850700  0.11661800  0.60755600  1
  H  1596  1  0.18358200  0.11665500  0.60756500  1
  H  1597  1  0.21845600  0.09909650  0.66666667  1
  H  1598  1  0.18352900  0.09942350  0.66666667  1
  H  1599  1  0.17316500  0.06886950  0.63694300  1
  H  1600  1  0.14711700  0.04282450  0.63745000  1
  H  1601  1  0.12008500  0.09590850  0.63718200  1
  H  1602  1  0.09593550  0.12006100  0.63719200  1
  H  1603  1  0.17377500  0.14759400  0.63735400  1
  H  1604  1  0.14763600  0.17374100  0.63695900  1
  H  1605  1  0.09935050  0.18352700  0.60774400  1
  H  1606  1  0.09906650  0.21845400  0.60778800  1
  H  1607  1  0.11682600  0.18354900  0.66678400  1
  H  1608  1  0.11684400  0.21847400  0.66679600  1
  H  1609  1  0.06890350  0.17314300  0.63747100  1
  H  1610  1  0.04285650  0.14710000  0.63695000  1
  H  1611  1  0.06839250  0.04222450  0.63702700  1
  H  1612  1  0.04224950  0.06836850  0.63743400  1
  H  1613  1  0.03247050  0.11664600  0.66666667  1
  H  1614  1  0.99754200  0.11693900  0.66666667  1
  H  1615  1  0.03244150  0.09919050  0.60761200  1
  H  1616  1  0.99751600  0.09918150  0.60760200  1
  H  1617  1  0.96953700  0.07975950  0.62516500  1
  H  1618  1  0.93471200  0.08000450  0.62490800  1
  H  1619  1  0.93494800  0.13673000  0.64893000  1
  H  1620  1  0.96976500  0.13657300  0.64897200  1
  H  1621  1  0.11656300  0.03247150  0.60769100  1
  H  1622  1  0.11688500  0.99754500  0.60771800  1
  H  1623  1  0.07991850  0.96949100  0.64932900  1
  H  1624  1  0.08019550  0.93466500  0.64956600  1
  H  1625  1  0.13680400  0.93496300  0.62526800  1
  H  1626  1  0.13661400  0.96978200  0.62524200  1
  H  1627  1  0.09936350  0.99748100  0.66680300  1
  H  1628  1  0.09933350  0.03240650  0.66680300  1
  H  1629  1  0.13625500  0.24644900  0.64923000  1
  H  1630  1  0.13601800  0.28127500  0.64948700  1
  H  1631  1  0.07943850  0.24623300  0.62543200  1
  H  1632  1  0.07928850  0.28105000  0.62547100  1
  H  1639  1  0.07969650  0.59378600  0.33767100  1
  H  1646  1  0.11000700  0.63788600  0.40062600  1
  H  1647  1  0.11065800  0.63814100  0.43542300  1
  H  1648  1  0.10442400  0.57682800  0.43592200  1
  H  1649  1  0.13463500  0.62131400  0.33869400  1
  H  1650  1  0.10447700  0.57657200  0.40114400  1
  H  1651  1  0.13429600  0.62089600  0.37348000  1
  H  1661  1  0.13612100  0.59373500  0.93667800  1
  H  1668  1  0.10565900  0.63782200  0.87372700  1
  H  1669  1  0.10501500  0.63807700  0.83893300  1
  H  1670  1  0.11152200  0.57679200  0.83843300  1
  H  1671  1  0.08119950  0.62129600  0.93568100  1
  H  1672  1  0.11143800  0.57653200  0.87320700  1
  H  1673  1  0.08151350  0.62085800  0.90089800  1
  H  1683  1  0.30846700  0.07976950  0.62296600  1
  H  1690  1  0.37144400  0.11003400  0.66707200  1
  H  1691  1  0.40624200  0.11066400  0.66732400  1
  H  1692  1  0.40673100  0.10442700  0.60601000  1
  H  1693  1  0.30953000  0.13471200  0.65048500  1
  H  1694  1  0.37195200  0.10450200  0.60575700  1
  H  1695  1  0.34431600  0.13434200  0.65007600  1
  H  1705  1  0.90752300  0.13604500  0.62291600  1
  H  1712  1  0.84453800  0.10563500  0.66700300  1
  H  1713  1  0.80974400  0.10501100  0.66725700  1
  H  1714  1  0.80925000  0.11153200  0.60597300  1
  H  1715  1  0.90646900  0.08112350  0.65047200  1
  H  1716  1  0.84402400  0.11142900  0.60571500  1
  H  1717  1  0.87168600  0.08147350  0.65003700  1
  H  1727  1  0.59378700  0.30849100  0.10887600  1
  H  1734  1  0.63788700  0.37144400  0.13918300  1
  H  1735  1  0.63814300  0.40624200  0.13983500  1
  H  1736  1  0.57682800  0.40673800  0.13360900  1
  H  1737  1  0.62131600  0.30951100  0.16381400  1
  H  1738  1  0.57657300  0.37195900  0.13366100  1
  H  1739  1  0.62089900  0.34429700  0.16347600  1
  H  1749  1  0.59374100  0.90749900  0.16529900  1
  H  1756  1  0.63782000  0.84454400  0.13483400  1
  H  1757  1  0.63807700  0.80975000  0.13419400  1
  H  1758  1  0.57679300  0.80924800  0.14071200  1
  H  1759  1  0.62129900  0.90649600  0.11037800  1
  H  1760  1  0.57653200  0.84402300  0.14062600  1
  H  1761  1  0.62085800  0.87171400  0.11069300  1
  H  1771  1  0.59358700  0.07992550  0.93667400  1
  H  1778  1  0.63762500  0.11032400  0.87374400  1
  H  1779  1  0.63790100  0.11093800  0.83894800  1
  H  1780  1  0.57659500  0.10461500  0.83841800  1
  H  1781  1  0.62101900  0.13491200  0.93567300  1
  H  1782  1  0.57631900  0.10470600  0.87319800  1
  H  1783  1  0.62058600  0.13459300  0.90088500  1
  H  1793  1  0.59359900  0.13619100  0.33765800  1
  H  1800  1  0.63770500  0.10577800  0.40061600  1
  H  1801  1  0.63797800  0.10513900  0.43540900  1
  H  1802  1  0.57669300  0.11164200  0.43594000  1
  H  1803  1  0.62117200  0.08127850  0.33869600  1
  H  1804  1  0.57641500  0.11155600  0.40116400  1
  H  1805  1  0.62073600  0.08161850  0.37347900  1
  H  1815  1  0.07997550  0.30848000  0.65147300  1
  H  1822  1  0.11040300  0.37144700  0.60738400  1
  H  1823  1  0.11103200  0.40624200  0.60712600  1
  H  1824  1  0.10450600  0.40674700  0.66841000  1
  H  1825  1  0.13490400  0.30951400  0.62393000  1
  H  1826  1  0.10460400  0.37197100  0.66867200  1
  H  1827  1  0.13456300  0.34429700  0.62435900  1
  H  1837  1  0.13620700  0.90752400  0.65136700  1
  H  1844  1  0.10593700  0.84454700  0.60726400  1
  H  1845  1  0.10530800  0.80974900  0.60701100  1
  H  1846  1  0.11155800  0.80925900  0.66832400  1
  H  1847  1  0.08125950  0.90646200  0.62386000  1
  H  1848  1  0.11148200  0.84403700  0.66857700  1
  H  1849  1  0.08163050  0.87167600  0.62426600  1
  H  1859  1  0.30848100  0.59359800  0.16537400  1
  H  1866  1  0.37143400  0.63770500  0.13495200  1
  H  1867  1  0.40622700  0.63797800  0.13431600  1
  H  1868  1  0.40676000  0.57669400  0.14082600  1
  H  1869  1  0.30951300  0.62116600  0.11045800  1
  H  1870  1  0.37198400  0.57641500  0.14073700  1
  H  1871  1  0.34429600  0.62073300  0.11079500  1
  H  1881  1  0.90749500  0.59358700  0.10910400  1
  H  1888  1  0.84456400  0.63762300  0.13950000  1
  H  1889  1  0.80976600  0.63789900  0.14011700  1
  H  1890  1  0.80923800  0.57659500  0.13379300  1
  H  1891  1  0.90649000  0.62102000  0.16409000  1
  H  1892  1  0.84401700  0.57631900  0.13388000  1
  H  1893  1  0.87170200  0.62058400  0.16376900  1
  H  1969  1  0.22930700  0.88342700  0.74440300  1
  H  1970  1  0.22886900  0.84873900  0.74396600  1
  H  1971  1  0.19165200  0.88327400  0.79315600  1
  H  1972  1  0.19192200  0.84859400  0.79325500  1
  H  1973  1  0.17990300  0.82047400  0.77348200  1
  H  1974  1  0.17991600  0.78560200  0.77366300  1
  H  1975  1  0.24075000  0.82036000  0.76354600  1
  H  1976  1  0.24061500  0.78548400  0.76344100  1
  H  1977  1  0.21008600  0.77530900  0.72940500  1
  H  1978  1  0.21017400  0.74919400  0.70329400  1
  H  1979  1  0.21014600  0.72220600  0.75640200  1
  H  1980  1  0.21014400  0.69806700  0.78054500  1
  H  1981  1  0.21040500  0.77592000  0.80804000  1
  H  1982  1  0.21022600  0.74972000  0.83424900  1
  H  1983  1  0.17996900  0.70492900  0.84388600  1
  H  1984  1  0.17991500  0.70490800  0.87875900  1
  H  1985  1  0.24060700  0.71549600  0.84389700  1
  H  1986  1  0.24070000  0.71520600  0.87877200  1
  H  1987  1  0.21031300  0.67107600  0.83365000  1
  H  1988  1  0.20998500  0.64496500  0.80754400  1
  H  1989  1  0.20988800  0.67055900  0.70269600  1
  H  1990  1  0.21007000  0.64435400  0.72890000  1
  H  1991  1  0.24032200  0.63472200  0.77369600  1
  H  1992  1  0.24037200  0.59984800  0.77372000  1
  H  1993  1  0.17968400  0.63471300  0.76312000  1
  H  1994  1  0.17958800  0.59983800  0.76341400  1
  H  1995  1  0.19166100  0.57148300  0.74392600  1
  H  1996  1  0.19127800  0.53679800  0.74437000  1
  H  1997  1  0.22860500  0.53702700  0.79337500  1
  H  1998  1  0.22827100  0.57170600  0.79346500  1
  H  1999  1  0.17965600  0.71515000  0.69313400  1
  H  2000  1  0.17951200  0.71503800  0.65825600  1
  H  2001  1  0.22833300  0.68533600  0.63001100  1
  H  2002  1  0.22859100  0.68543300  0.59533100  1
  H  2003  1  0.19093000  0.73418200  0.59518800  1
  H  2004  1  0.19138100  0.73462300  0.62987600  1
  H  2005  1  0.24036000  0.70511300  0.65812800  1
  H  2006  1  0.24035700  0.70493900  0.69300000  1
  H  2007  1  0.22863100  0.73469900  0.90712300  1
  H  2008  1  0.22901400  0.73425800  0.94180800  1
  H  2009  1  0.19201500  0.68516400  0.90690600  1
  H  2010  1  0.19168000  0.68525900  0.94158500  1
  H  2083  1  0.68519500  0.22875000  0.94157400  1
  H  2084  1  0.68513400  0.22841900  0.90689100  1
  H  2085  1  0.73398500  0.19114300  0.94184300  1
  H  2086  1  0.73446000  0.19152100  0.90715800  1
  H  2087  1  0.71494700  0.17956900  0.87878400  1
  H  2088  1  0.71528700  0.17967000  0.84390900  1
  H  2089  1  0.70496500  0.24040800  0.87877100  1
  H  2090  1  0.70502200  0.24036000  0.84389600  1
  H  2091  1  0.67103600  0.20986400  0.83366700  1
  H  2092  1  0.64492600  0.21005700  0.80755300  1
  H  2093  1  0.69803400  0.21007400  0.78056400  1
  H  2094  1  0.72217500  0.21021800  0.75642500  1
  H  2095  1  0.74967200  0.21016600  0.83428000  1
  H  2096  1  0.77588100  0.21009800  0.80807700  1
  H  2097  1  0.78551800  0.17998600  0.76323900  1
  H  2098  1  0.82039100  0.17993500  0.76322100  1
  H  2099  1  0.78552600  0.24060800  0.77390400  1
  H  2100  1  0.82040100  0.24070400  0.77361300  1
  H  2101  1  0.77528000  0.21045600  0.72943400  1
  H  2102  1  0.74917200  0.21022800  0.70332200  1
  H  2103  1  0.64432600  0.21001900  0.72891900  1
  H  2104  1  0.67052900  0.21030900  0.70271500  1
  H  2105  1  0.71529000  0.24057500  0.69312500  1
  H  2106  1  0.71515600  0.24070300  0.65824700  1
  H  2107  1  0.70473200  0.17993500  0.69302800  1
  H  2108  1  0.70486800  0.17991600  0.65815700  1
  H  2109  1  0.68511600  0.19206000  0.63005400  1
  H  2110  1  0.68517900  0.19178000  0.59537500  1
  H  2111  1  0.73417500  0.22912000  0.59516800  1
  H  2112  1  0.73464600  0.22868300  0.62985300  1
  H  2113  1  0.63476400  0.17965200  0.77347200  1
  H  2114  1  0.59988600  0.17950600  0.77336500  1
  H  2115  1  0.57164500  0.22834400  0.74370300  1
  H  2116  1  0.53696600  0.22860600  0.74379900  1
  H  2117  1  0.53682000  0.19092400  0.79253300  1
  H  2118  1  0.57150800  0.19136900  0.79297200  1
  H  2119  1  0.59975500  0.24036600  0.76351000  1
  H  2120  1  0.63462900  0.24036400  0.76333600  1
  H  2121  1  0.84875800  0.22862700  0.79306900  1
  H  2122  1  0.88344200  0.22900700  0.79263100  1
  H  2123  1  0.84853900  0.19204300  0.74351100  1
  H  2124  1  0.88321800  0.19170400  0.74360800  1
  H  2197  1  0.88321700  0.68519300  0.28710000  1
  H  2198  1  0.84853500  0.68513200  0.28677200  1
  H  2199  1  0.88348400  0.73399000  0.24950100  1
  H  2200  1  0.84879900  0.73446400  0.24988200  1
  H  2201  1  0.82042300  0.71494700  0.23792700  1
  H  2202  1  0.78554800  0.71529000  0.23802900  1
  H  2203  1  0.82041400  0.70496400  0.29876500  1
  H  2204  1  0.78553900  0.70502200  0.29872000  1
  H  2205  1  0.77530800  0.67103700  0.26821500  1
  H  2206  1  0.74919200  0.64492700  0.26840700  1
  H  2207  1  0.72220600  0.69803700  0.26844400  1
  H  2208  1  0.69806700  0.72218000  0.26858400  1
  H  2209  1  0.77592200  0.74967200  0.26852900  1
  H  2210  1  0.74972000  0.77588400  0.26846300  1
  H  2211  1  0.70488200  0.78551800  0.23834400  1
  H  2212  1  0.70486600  0.82039100  0.23828900  1
  H  2213  1  0.71554600  0.78553200  0.29896600  1
  H  2214  1  0.71525500  0.82040600  0.29905900  1
  H  2215  1  0.67107600  0.77528400  0.26880600  1
  H  2216  1  0.64496400  0.74917800  0.26858000  1
  H  2217  1  0.67055700  0.64433100  0.26838600  1
  H  2218  1  0.64435600  0.67053400  0.26867600  1
  H  2219  1  0.63476400  0.71529300  0.29893500  1
  H  2220  1  0.59988600  0.71515600  0.29906000  1
  H  2221  1  0.63467100  0.70473600  0.23829400  1
  H  2222  1  0.59980000  0.70486900  0.23827400  1
  H  2223  1  0.57169900  0.68511800  0.25042100  1
  H  2224  1  0.53702000  0.68518000  0.25013700  1
  H  2225  1  0.53680500  0.73417800  0.28747400  1
  H  2226  1  0.57149200  0.73464900  0.28704300  1
  H  2227  1  0.71510700  0.63476900  0.23801300  1
  H  2228  1  0.71500000  0.59989100  0.23786700  1
  H  2229  1  0.68534700  0.57164500  0.28671000  1
  H  2230  1  0.68544400  0.53696600  0.28696500  1
  H  2231  1  0.73417200  0.53682600  0.24927800  1
  H  2232  1  0.73461100  0.57151400  0.24972800  1
  H  2233  1  0.70515800  0.59975800  0.29872900  1
  H  2234  1  0.70498300  0.63463200  0.29872800  1
  H  2235  1  0.73471100  0.84876100  0.28698100  1
  H  2236  1  0.73427000  0.88344600  0.28736500  1
  H  2237  1  0.68515700  0.84854200  0.25039200  1
  H  2238  1  0.68525200  0.88322100  0.25005700  1
  H  2311  1  0.72202300  0.38319100  0.23955100  1
  H  2312  1  0.72206000  0.34837100  0.23970800  1
  H  2313  1  0.69774600  0.38342900  0.29616900  1
  H  2314  1  0.69799300  0.34860300  0.29641300  1
  H  2315  1  0.68051900  0.32063200  0.27694300  1
  H  2316  1  0.68053800  0.28570700  0.27698800  1
  H  2317  1  0.73960400  0.32059200  0.25942000  1
  H  2318  1  0.73964900  0.28566500  0.25975600  1
  H  2319  1  0.70988500  0.27521300  0.22921700  1
  H  2320  1  0.71036600  0.24910800  0.20322500  1
  H  2321  1  0.71018700  0.22219100  0.25636800  1
  H  2322  1  0.71017200  0.19808900  0.28057500  1
  H  2323  1  0.71031800  0.27598800  0.30794000  1
  H  2324  1  0.70989200  0.24990600  0.33414100  1
  H  2325  1  0.68062800  0.20164900  0.34395700  1
  H  2326  1  0.68056700  0.20149000  0.37888500  1
  H  2327  1  0.73966700  0.21912800  0.34409300  1
  H  2328  1  0.73957500  0.21927000  0.37901700  1
  H  2329  1  0.71041200  0.17117300  0.33371600  1
  H  2330  1  0.70992400  0.14506900  0.30772700  1
  H  2331  1  0.70996700  0.17038200  0.20279800  1
  H  2332  1  0.71039700  0.14429500  0.22899500  1
  H  2333  1  0.73962400  0.13459500  0.27728000  1
  H  2334  1  0.73957200  0.09966690  0.27758100  1
  H  2335  1  0.68057700  0.13457600  0.25982700  1
  H  2336  1  0.68055700  0.09965290  0.25982600  1
  H  2337  1  0.69812300  0.07169890  0.24038500  1
  H  2338  1  0.69786000  0.03687390  0.24059400  1
  H  2339  1  0.72188800  0.03704890  0.29731900  1
  H  2340  1  0.72193400  0.07186690  0.29719700  1
  H  2341  1  0.68056600  0.21850800  0.19302000  1
  H  2342  1  0.68047800  0.21869200  0.15809400  1
  H  2343  1  0.72198100  0.18154900  0.13017400  1
  H  2344  1  0.72186000  0.18143300  0.09535750  1
  H  2345  1  0.69751300  0.23802200  0.09524550  1
  H  2346  1  0.69784600  0.23822500  0.13007300  1
  H  2347  1  0.73957200  0.20119700  0.15790700  1
  H  2348  1  0.73968400  0.20130000  0.19283200  1
  H  2349  1  0.72186200  0.23888000  0.40674600  1
  H  2350  1  0.72176100  0.23902600  0.44156200  1
  H  2351  1  0.69807200  0.18205900  0.40691000  1
  H  2352  1  0.69775500  0.18229100  0.44173700  1
  H  2425  1  0.18119400  0.72202200  0.44154900  1
  H  2426  1  0.18135200  0.72205800  0.40672800  1
  H  2427  1  0.23781300  0.69774600  0.44178700  1
  H  2428  1  0.23805700  0.69799100  0.40696100  1
  H  2429  1  0.21859400  0.68051900  0.37898800  1
  H  2430  1  0.21864000  0.68053800  0.34406300  1
  H  2431  1  0.20105800  0.73960000  0.37894800  1
  H  2432  1  0.20139300  0.73964600  0.34402200  1
  H  2433  1  0.17086000  0.70988300  0.33357100  1
  H  2434  1  0.14486900  0.71036500  0.30746700  1
  H  2435  1  0.19801000  0.71018500  0.28054800  1
  H  2436  1  0.22221700  0.71018300  0.25644500  1
  H  2437  1  0.24958500  0.71033100  0.33434300  1
  H  2438  1  0.27578500  0.70990700  0.30826000  1
  H  2439  1  0.28559600  0.68062500  0.26001400  1
  H  2440  1  0.32052300  0.68055800  0.25985700  1
  H  2441  1  0.28573900  0.73967000  0.27747200  1
  H  2442  1  0.32066400  0.73957200  0.27761700  1
  H  2443  1  0.27535600  0.71040100  0.22952600  1
  H  2444  1  0.24936600  0.70990700  0.20342400  1
  H  2445  1  0.14443800  0.70998600  0.22874000  1
  H  2446  1  0.17063600  0.71041600  0.20265300  1
  H  2447  1  0.21892600  0.73962100  0.19295000  1
  H  2448  1  0.21922600  0.73956700  0.15802200  1
  H  2449  1  0.20146200  0.68057900  0.19293700  1
  H  2450  1  0.20146100  0.68055500  0.15801200  1
  H  2451  1  0.18202600  0.69812400  0.13005500  1
  H  2452  1  0.18223700  0.69786300  0.09523050  1
  H  2453  1  0.23896500  0.72188200  0.09540850  1
  H  2454  1  0.23884100  0.72192900  0.13022800  1
  H  2455  1  0.13465900  0.68056600  0.27685700  1
  H  2456  1  0.09973290  0.68047900  0.27703900  1
  H  2457  1  0.07181590  0.72198300  0.23990500  1
  H  2458  1  0.03699790  0.72186300  0.23979000  1
  H  2459  1  0.03688490  0.69751600  0.29637900  1
  H  2460  1  0.07171390  0.69784700  0.29658200  1
  H  2461  1  0.09955090  0.73957800  0.25955700  1
  H  2462  1  0.13447500  0.73968700  0.25966500  1
  H  2463  1  0.34838500  0.72186200  0.29723300  1
  H  2464  1  0.38320100  0.72175900  0.29738300  1
  H  2465  1  0.34855400  0.69806700  0.24041400  1
  H  2466  1  0.38338200  0.69774900  0.24065100  1
  H  2539  1  0.38315700  0.18129800  0.78037600  1
  H  2540  1  0.34833800  0.18149000  0.78040900  1
  H  2541  1  0.38345700  0.23791300  0.75609300  1
  H  2542  1  0.34863000  0.23819300  0.75633500  1
  H  2543  1  0.32063500  0.21874600  0.73886200  1
  H  2544  1  0.28571000  0.21878300  0.73887100  1
  H  2545  1  0.32058400  0.20122400  0.79794700  1
  H  2546  1  0.28565700  0.20155100  0.79798400  1
  H  2547  1  0.27529300  0.17099700  0.76824900  1
  H  2548  1  0.24924500  0.14495200  0.76875600  1
  H  2549  1  0.22221300  0.19803600  0.76848800  1
  H  2550  1  0.19806300  0.22218900  0.76849800  1
  H  2551  1  0.27590300  0.24972200  0.76866000  1
  H  2552  1  0.24976400  0.27586900  0.76826500  1
  H  2553  1  0.20147800  0.28565500  0.73905000  1
  H  2554  1  0.20119400  0.32058200  0.73909400  1
  H  2555  1  0.21895400  0.28567700  0.79809000  1
  H  2556  1  0.21897200  0.32060200  0.79810200  1
  H  2557  1  0.17103100  0.27527100  0.76877700  1
  H  2558  1  0.14498400  0.24922800  0.76825600  1
  H  2559  1  0.17052000  0.14435200  0.76833300  1
  H  2560  1  0.14437700  0.17049600  0.76874000  1
  H  2561  1  0.13459800  0.21877400  0.79796300  1
  H  2562  1  0.09966990  0.21906700  0.79792100  1
  H  2563  1  0.13456900  0.20131800  0.73891800  1
  H  2564  1  0.09964390  0.20130900  0.73890800  1
  H  2565  1  0.07166490  0.18188700  0.75647100  1
  H  2566  1  0.03683990  0.18213200  0.75621400  1
  H  2567  1  0.03707590  0.23885800  0.78023600  1
  H  2568  1  0.07189290  0.23870100  0.78027800  1
  H  2569  1  0.21869100  0.13459900  0.73899700  1
  H  2570  1  0.21901300  0.09967290  0.73902400  1
  H  2571  1  0.18204600  0.07161890  0.78063500  1
  H  2572  1  0.18232300  0.03679290  0.78087200  1
  H  2573  1  0.23893200  0.03709090  0.75657400  1
  H  2574  1  0.23874200  0.07190990  0.75654800  1
  H  2575  1  0.20149100  0.09960890  0.79810900  1
  H  2576  1  0.20146100  0.13453400  0.79810900  1
  H  2577  1  0.23838300  0.34857700  0.78053600  1
  H  2578  1  0.23814600  0.38340300  0.78079300  1
  H  2579  1  0.18156600  0.34836100  0.75673800  1
  H  2580  1  0.18141600  0.38317800  0.75677700  1
  H  2587  1  0.18182400  0.69591400  0.46897700  1
  H  2594  1  0.21213500  0.74001400  0.53193200  1
  H  2595  1  0.21278600  0.74026900  0.56672900  1
  H  2596  1  0.20655200  0.67895600  0.56722800  1
  H  2597  1  0.23676300  0.72344200  0.47000000  1
  H  2598  1  0.20660500  0.67870000  0.53245000  1
  H  2599  1  0.23642400  0.72302400  0.50478600  1
  H  2609  1  0.23824900  0.69586300  0.06798450  1
  H  2616  1  0.20778700  0.73995000  0.00503347  1
  H  2617  1  0.20714300  0.74020500  0.97023900  1
  H  2618  1  0.21365000  0.67892000  0.96973900  1
  H  2619  1  0.18332700  0.72342400  0.06698750  1
  H  2620  1  0.21356600  0.67866000  0.00451347  1
  H  2621  1  0.18364100  0.72298600  0.03220450  1
  H  2631  1  0.41059500  0.18189700  0.75427200  1
  H  2638  1  0.47357200  0.21216200  0.79837800  1
  H  2639  1  0.50837000  0.21279200  0.79863000  1
  H  2640  1  0.50885900  0.20655500  0.73731600  1
  H  2641  1  0.41165800  0.23684000  0.78179100  1
  H  2642  1  0.47408000  0.20663000  0.73706300  1
  H  2643  1  0.44644400  0.23647000  0.78138200  1
  H  2653  1  0.00965092  0.23817300  0.75422200  1
  H  2660  1  0.94666600  0.20776300  0.79830900  1
  H  2661  1  0.91187200  0.20713900  0.79856300  1
  H  2662  1  0.91137800  0.21366000  0.73727900  1
  H  2663  1  0.00859692  0.18325100  0.78177800  1
  H  2664  1  0.94615200  0.21355700  0.73702100  1
  H  2665  1  0.97381400  0.18360100  0.78134300  1
  H  2675  1  0.69591500  0.41061900  0.24018200  1
  H  2682  1  0.74001500  0.47357200  0.27048900  1
  H  2683  1  0.74027100  0.50837000  0.27114100  1
  H  2684  1  0.67895600  0.50886600  0.26491500  1
  H  2685  1  0.72344400  0.41163900  0.29512000  1
  H  2686  1  0.67870100  0.47408700  0.26496700  1
  H  2687  1  0.72302700  0.44642500  0.29478200  1
  H  2697  1  0.69586900  0.00962692  0.29660500  1
  H  2704  1  0.73994800  0.94667200  0.26614000  1
  H  2705  1  0.74020500  0.91187800  0.26550000  1
  H  2706  1  0.67892100  0.91137600  0.27201800  1
  H  2707  1  0.72342700  0.00862392  0.24168400  1
  H  2708  1  0.67866000  0.94615100  0.27193200  1
  H  2709  1  0.72298600  0.97384200  0.24199900  1
  H  2719  1  0.69571500  0.18205300  0.06798050  1
  H  2726  1  0.73975300  0.21245200  0.00505047  1
  H  2727  1  0.74002900  0.21306600  0.97025400  1
  H  2728  1  0.67872300  0.20674300  0.96972400  1
  H  2729  1  0.72314700  0.23704000  0.06697950  1
  H  2730  1  0.67844700  0.20683400  0.00450447  1
  H  2731  1  0.72271400  0.23672100  0.03219150  1
  H  2741  1  0.69572700  0.23831900  0.46896400  1
  H  2748  1  0.73983300  0.20790600  0.53192200  1
  H  2749  1  0.74010600  0.20726700  0.56671500  1
  H  2750  1  0.67882100  0.21377000  0.56724600  1
  H  2751  1  0.72330000  0.18340600  0.47000200  1
  H  2752  1  0.67854300  0.21368400  0.53247000  1
  H  2753  1  0.72286400  0.18374600  0.50478500  1
  H  2763  1  0.18210300  0.41060800  0.78277900  1
  H  2770  1  0.21253100  0.47357500  0.73869000  1
  H  2771  1  0.21316000  0.50837000  0.73843200  1
  H  2772  1  0.20663400  0.50887500  0.79971600  1
  H  2773  1  0.23703200  0.41164200  0.75523600  1
  H  2774  1  0.20673200  0.47409900  0.79997800  1
  H  2775  1  0.23669100  0.44642500  0.75566500  1
  H  2785  1  0.23833500  0.00965192  0.78267300  1
  H  2792  1  0.20806500  0.94667500  0.73857000  1
  H  2793  1  0.20743600  0.91187700  0.73831700  1
  H  2794  1  0.21368600  0.91138700  0.79963000  1
  H  2795  1  0.18338700  0.00858992  0.75516600  1
  H  2796  1  0.21361000  0.94616500  0.79988300  1
  H  2797  1  0.18375800  0.97380400  0.75557200  1
  H  2807  1  0.41060900  0.69572600  0.29668000  1
  H  2814  1  0.47356200  0.73983300  0.26625800  1
  H  2815  1  0.50835500  0.74010600  0.26562200  1
  H  2816  1  0.50888800  0.67882200  0.27213200  1
  H  2817  1  0.41164100  0.72329400  0.24176400  1
  H  2818  1  0.47411200  0.67854300  0.27204300  1
  H  2819  1  0.44642400  0.72286100  0.24210100  1
  H  2829  1  0.00962292  0.69571500  0.24041000  1
  H  2836  1  0.94669200  0.73975100  0.27080600  1
  H  2837  1  0.91189400  0.74002700  0.27142300  1
  H  2838  1  0.91136600  0.67872300  0.26509900  1
  H  2839  1  0.00861792  0.72314800  0.29539600  1
  H  2840  1  0.94614500  0.67844700  0.26518600  1
  H  2841  1  0.97383000  0.72271200  0.29507500  1
  H  2917  1  0.33143400  0.98555400  0.87571000  1
  H  2918  1  0.33099600  0.95086600  0.87527300  1
  H  2919  1  0.29377900  0.98540100  0.92446300  1
  H  2920  1  0.29404900  0.95072100  0.92456200  1
  H  2921  1  0.28203000  0.92260100  0.90478900  1
  H  2922  1  0.28204300  0.88772900  0.90497000  1
  H  2923  1  0.34287700  0.92248700  0.89485300  1
  H  2924  1  0.34274200  0.88761100  0.89474800  1
  H  2925  1  0.31221300  0.87743600  0.86071200  1
  H  2926  1  0.31230100  0.85132100  0.83460100  1
  H  2927  1  0.31227300  0.82433300  0.88770900  1
  H  2928  1  0.31227100  0.80019400  0.91185200  1
  H  2929  1  0.31253200  0.87804700  0.93934700  1
  H  2930  1  0.31235300  0.85184700  0.96555600  1
  H  2931  1  0.28209600  0.80705600  0.97519300  1
  H  2932  1  0.28204200  0.80703500  0.01006620  1
  H  2933  1  0.34273400  0.81762300  0.97520400  1
  H  2934  1  0.34282700  0.81733300  0.01007920  1
  H  2935  1  0.31244000  0.77320300  0.96495700  1
  H  2936  1  0.31211200  0.74709200  0.93885100  1
  H  2937  1  0.31201500  0.77268600  0.83400300  1
  H  2938  1  0.31219700  0.74648100  0.86020700  1
  H  2939  1  0.34244900  0.73684900  0.90500300  1
  H  2940  1  0.34249900  0.70197500  0.90502700  1
  H  2941  1  0.28181100  0.73684000  0.89442700  1
  H  2942  1  0.28171500  0.70196500  0.89472100  1
  H  2943  1  0.29378800  0.67361000  0.87523300  1
  H  2944  1  0.29340500  0.63892500  0.87567700  1
  H  2945  1  0.33073200  0.63915400  0.92468200  1
  H  2946  1  0.33039800  0.67383300  0.92477200  1
  H  2947  1  0.28178300  0.81727700  0.82444100  1
  H  2948  1  0.28163900  0.81716500  0.78956300  1
  H  2949  1  0.33046000  0.78746300  0.76131800  1
  H  2950  1  0.33071800  0.78756000  0.72663800  1
  H  2951  1  0.29305700  0.83630900  0.72649500  1
  H  2952  1  0.29350800  0.83675000  0.76118300  1
  H  2953  1  0.34248700  0.80724000  0.78943500  1
  H  2954  1  0.34248400  0.80706600  0.82430700  1
  H  2955  1  0.33075800  0.83682600  0.03843020  1
  H  2956  1  0.33114100  0.83638500  0.07311520  1
  H  2957  1  0.29414200  0.78729100  0.03821320  1
  H  2958  1  0.29380700  0.78738600  0.07289220  1
  H  3031  1  0.78732200  0.33087700  0.07288120  1
  H  3032  1  0.78726100  0.33054600  0.03819820  1
  H  3033  1  0.83611200  0.29327000  0.07315020  1
  H  3034  1  0.83658700  0.29364800  0.03846520  1
  H  3035  1  0.81707400  0.28169600  0.01009120  1
  H  3036  1  0.81741400  0.28179700  0.97521600  1
  H  3037  1  0.80709200  0.34253500  0.01007820  1
  H  3038  1  0.80714900  0.34248700  0.97520300  1
  H  3039  1  0.77316300  0.31199100  0.96497400  1
  H  3040  1  0.74705300  0.31218400  0.93886000  1
  H  3041  1  0.80016100  0.31220100  0.91187100  1
  H  3042  1  0.82430200  0.31234500  0.88773200  1
  H  3043  1  0.85179900  0.31229300  0.96558700  1
  H  3044  1  0.87800800  0.31222500  0.93938400  1
  H  3045  1  0.88764500  0.28211300  0.89454600  1
  H  3046  1  0.92251800  0.28206200  0.89452800  1
  H  3047  1  0.88765300  0.34273500  0.90521100  1
  H  3048  1  0.92252800  0.34283100  0.90492000  1
  H  3049  1  0.87740700  0.31258300  0.86074100  1
  H  3050  1  0.85129900  0.31235500  0.83462900  1
  H  3051  1  0.74645300  0.31214600  0.86022600  1
  H  3052  1  0.77265600  0.31243600  0.83402200  1
  H  3053  1  0.81741700  0.34270200  0.82443200  1
  H  3054  1  0.81728300  0.34283000  0.78955400  1
  H  3055  1  0.80685900  0.28206200  0.82433500  1
  H  3056  1  0.80699500  0.28204300  0.78946400  1
  H  3057  1  0.78724300  0.29418700  0.76136100  1
  H  3058  1  0.78730600  0.29390700  0.72668200  1
  H  3059  1  0.83630200  0.33124700  0.72647500  1
  H  3060  1  0.83677300  0.33081000  0.76116000  1
  H  3061  1  0.73689100  0.28177900  0.90477900  1
  H  3062  1  0.70201300  0.28163300  0.90467200  1
  H  3063  1  0.67377200  0.33047100  0.87501000  1
  H  3064  1  0.63909300  0.33073300  0.87510600  1
  H  3065  1  0.63894700  0.29305100  0.92384000  1
  H  3066  1  0.67363500  0.29349600  0.92427900  1
  H  3067  1  0.70188200  0.34249300  0.89481700  1
  H  3068  1  0.73675600  0.34249100  0.89464300  1
  H  3069  1  0.95088500  0.33075400  0.92437600  1
  H  3070  1  0.98556900  0.33113400  0.92393800  1
  H  3071  1  0.95066600  0.29417000  0.87481800  1
  H  3072  1  0.98534500  0.29383100  0.87491500  1
  H  3145  1  0.98534400  0.78732000  0.41840700  1
  H  3146  1  0.95066200  0.78725900  0.41807900  1
  H  3147  1  0.98561100  0.83611700  0.38080800  1
  H  3148  1  0.95092600  0.83659100  0.38118900  1
  H  3149  1  0.92255000  0.81707400  0.36923400  1
  H  3150  1  0.88767500  0.81741700  0.36933600  1
  H  3151  1  0.92254100  0.80709100  0.43007200  1
  H  3152  1  0.88766600  0.80714900  0.43002700  1
  H  3153  1  0.87743500  0.77316400  0.39952200  1
  H  3154  1  0.85131900  0.74705400  0.39971400  1
  H  3155  1  0.82433300  0.80016400  0.39975100  1
  H  3156  1  0.80019400  0.82430700  0.39989100  1
  H  3157  1  0.87804900  0.85179900  0.39983600  1
  H  3158  1  0.85184700  0.87801100  0.39977000  1
  H  3159  1  0.80700900  0.88764500  0.36965100  1
  H  3160  1  0.80699300  0.92251800  0.36959600  1
  H  3161  1  0.81767300  0.88765900  0.43027300  1
  H  3162  1  0.81738200  0.92253300  0.43036600  1
  H  3163  1  0.77320300  0.87741100  0.40011300  1
  H  3164  1  0.74709100  0.85130500  0.39988700  1
  H  3165  1  0.77268400  0.74645800  0.39969300  1
  H  3166  1  0.74648300  0.77266100  0.39998300  1
  H  3167  1  0.73689100  0.81742000  0.43024200  1
  H  3168  1  0.70201300  0.81728300  0.43036700  1
  H  3169  1  0.73679800  0.80686300  0.36960100  1
  H  3170  1  0.70192700  0.80699600  0.36958100  1
  H  3171  1  0.67382600  0.78724500  0.38172800  1
  H  3172  1  0.63914700  0.78730700  0.38144400  1
  H  3173  1  0.63893200  0.83630500  0.41878100  1
  H  3174  1  0.67361900  0.83677600  0.41835000  1
  H  3175  1  0.81723400  0.73689600  0.36932000  1
  H  3176  1  0.81712700  0.70201800  0.36917400  1
  H  3177  1  0.78747400  0.67377200  0.41801700  1
  H  3178  1  0.78757100  0.63909300  0.41827200  1
  H  3179  1  0.83629900  0.63895300  0.38058500  1
  H  3180  1  0.83673800  0.67364100  0.38103500  1
  H  3181  1  0.80728500  0.70188500  0.43003600  1
  H  3182  1  0.80711000  0.73675900  0.43003500  1
  H  3183  1  0.83683800  0.95088800  0.41828800  1
  H  3184  1  0.83639700  0.98557300  0.41867200  1
  H  3185  1  0.78728400  0.95066900  0.38169900  1
  H  3186  1  0.78737900  0.98534800  0.38136400  1
  H  3259  1  0.82415000  0.48531800  0.37085800  1
  H  3260  1  0.82418700  0.45049800  0.37101500  1
  H  3261  1  0.79987300  0.48555600  0.42747600  1
  H  3262  1  0.80012000  0.45073000  0.42772000  1
  H  3263  1  0.78264600  0.42275900  0.40825000  1
  H  3264  1  0.78266500  0.38783400  0.40829500  1
  H  3265  1  0.84173100  0.42271900  0.39072700  1
  H  3266  1  0.84177600  0.38779200  0.39106300  1
  H  3267  1  0.81201200  0.37734000  0.36052400  1
  H  3268  1  0.81249300  0.35123500  0.33453200  1
  H  3269  1  0.81231400  0.32431800  0.38767500  1
  H  3270  1  0.81229900  0.30021600  0.41188200  1
  H  3271  1  0.81244500  0.37811500  0.43924700  1
  H  3272  1  0.81201900  0.35203300  0.46544800  1
  H  3273  1  0.78275500  0.30377600  0.47526400  1
  H  3274  1  0.78269400  0.30361700  0.51019200  1
  H  3275  1  0.84179400  0.32125500  0.47540000  1
  H  3276  1  0.84170200  0.32139700  0.51032400  1
  H  3277  1  0.81253900  0.27330000  0.46502300  1
  H  3278  1  0.81205100  0.24719600  0.43903400  1
  H  3279  1  0.81209400  0.27250900  0.33410500  1
  H  3280  1  0.81252400  0.24642200  0.36030200  1
  H  3281  1  0.84175100  0.23672200  0.40858700  1
  H  3282  1  0.84169900  0.20179400  0.40888800  1
  H  3283  1  0.78270400  0.23670300  0.39113400  1
  H  3284  1  0.78268400  0.20178000  0.39113300  1
  H  3285  1  0.80025000  0.17382600  0.37169200  1
  H  3286  1  0.79998700  0.13900100  0.37190100  1
  H  3287  1  0.82401500  0.13917600  0.42862600  1
  H  3288  1  0.82406100  0.17399400  0.42850400  1
  H  3289  1  0.78269300  0.32063500  0.32432700  1
  H  3290  1  0.78260500  0.32081900  0.28940100  1
  H  3291  1  0.82410800  0.28367600  0.26148100  1
  H  3292  1  0.82398700  0.28356000  0.22666400  1
  H  3293  1  0.79964000  0.34014900  0.22655200  1
  H  3294  1  0.79997300  0.34035200  0.26138000  1
  H  3295  1  0.84169900  0.30332400  0.28921400  1
  H  3296  1  0.84181100  0.30342700  0.32413900  1
  H  3297  1  0.82398900  0.34100700  0.53805300  1
  H  3298  1  0.82388800  0.34115300  0.57286900  1
  H  3299  1  0.80019900  0.28418600  0.53821700  1
  H  3300  1  0.79988200  0.28441800  0.57304400  1
  H  3373  1  0.28332100  0.82414900  0.57285600  1
  H  3374  1  0.28347900  0.82418500  0.53803500  1
  H  3375  1  0.33994000  0.79987300  0.57309400  1
  H  3376  1  0.34018400  0.80011800  0.53826800  1
  H  3377  1  0.32072100  0.78264600  0.51029500  1
  H  3378  1  0.32076700  0.78266500  0.47537000  1
  H  3379  1  0.30318500  0.84172700  0.51025500  1
  H  3380  1  0.30352000  0.84177300  0.47532900  1
  H  3381  1  0.27298700  0.81201000  0.46487800  1
  H  3382  1  0.24699600  0.81249200  0.43877400  1
  H  3383  1  0.30013700  0.81231200  0.41185500  1
  H  3384  1  0.32434400  0.81231000  0.38775200  1
  H  3385  1  0.35171200  0.81245800  0.46565000  1
  H  3386  1  0.37791200  0.81203400  0.43956700  1
  H  3387  1  0.38772300  0.78275200  0.39132100  1
  H  3388  1  0.42265000  0.78268500  0.39116400  1
  H  3389  1  0.38786600  0.84179700  0.40877900  1
  H  3390  1  0.42279100  0.84169900  0.40892400  1
  H  3391  1  0.37748300  0.81252800  0.36083300  1
  H  3392  1  0.35149300  0.81203400  0.33473100  1
  H  3393  1  0.24656500  0.81211300  0.36004700  1
  H  3394  1  0.27276300  0.81254300  0.33396000  1
  H  3395  1  0.32105300  0.84174800  0.32425700  1
  H  3396  1  0.32135300  0.84169400  0.28932900  1
  H  3397  1  0.30358900  0.78270600  0.32424400  1
  H  3398  1  0.30358800  0.78268200  0.28931900  1
  H  3399  1  0.28415300  0.80025100  0.26136200  1
  H  3400  1  0.28436400  0.79999000  0.22653700  1
  H  3401  1  0.34109200  0.82400900  0.22671500  1
  H  3402  1  0.34096800  0.82405600  0.26153500  1
  H  3403  1  0.23678600  0.78269300  0.40816400  1
  H  3404  1  0.20186000  0.78260600  0.40834600  1
  H  3405  1  0.17394300  0.82411000  0.37121200  1
  H  3406  1  0.13912500  0.82399000  0.37109700  1
  H  3407  1  0.13901200  0.79964300  0.42768600  1
  H  3408  1  0.17384100  0.79997400  0.42788900  1
  H  3409  1  0.20167800  0.84170500  0.39086400  1
  H  3410  1  0.23660200  0.84181400  0.39097200  1
  H  3411  1  0.45051200  0.82398900  0.42854000  1
  H  3412  1  0.48532800  0.82388600  0.42869000  1
  H  3413  1  0.45068100  0.80019400  0.37172100  1
  H  3414  1  0.48550900  0.79987600  0.37195800  1
  H  3487  1  0.48528400  0.28342500  0.91168300  1
  H  3488  1  0.45046500  0.28361700  0.91171600  1
  H  3489  1  0.48558400  0.34004000  0.88740000  1
  H  3490  1  0.45075700  0.34032000  0.88764200  1
  H  3491  1  0.42276200  0.32087300  0.87016900  1
  H  3492  1  0.38783700  0.32091000  0.87017800  1
  H  3493  1  0.42271100  0.30335100  0.92925400  1
  H  3494  1  0.38778400  0.30367800  0.92929100  1
  H  3495  1  0.37742000  0.27312400  0.89955600  1
  H  3496  1  0.35137200  0.24707900  0.90006300  1
  H  3497  1  0.32434000  0.30016300  0.89979500  1
  H  3498  1  0.30019000  0.32431600  0.89980500  1
  H  3499  1  0.37803000  0.35184900  0.89996700  1
  H  3500  1  0.35189100  0.37799600  0.89957200  1
  H  3501  1  0.30360500  0.38778200  0.87035700  1
  H  3502  1  0.30332100  0.42270900  0.87040100  1
  H  3503  1  0.32108100  0.38780400  0.92939700  1
  H  3504  1  0.32109900  0.42272900  0.92940900  1
  H  3505  1  0.27315800  0.37739800  0.90008400  1
  H  3506  1  0.24711100  0.35135500  0.89956300  1
  H  3507  1  0.27264700  0.24647900  0.89964000  1
  H  3508  1  0.24650400  0.27262300  0.90004700  1
  H  3509  1  0.23672500  0.32090100  0.92927000  1
  H  3510  1  0.20179700  0.32119400  0.92922800  1
  H  3511  1  0.23669600  0.30344500  0.87022500  1
  H  3512  1  0.20177100  0.30343600  0.87021500  1
  H  3513  1  0.17379200  0.28401400  0.88777800  1
  H  3514  1  0.13896700  0.28425900  0.88752100  1
  H  3515  1  0.13920300  0.34098500  0.91154300  1
  H  3516  1  0.17402000  0.34082800  0.91158500  1
  H  3517  1  0.32081800  0.23672600  0.87030400  1
  H  3518  1  0.32114000  0.20180000  0.87033100  1
  H  3519  1  0.28417300  0.17374600  0.91194200  1
  H  3520  1  0.28445000  0.13892000  0.91217900  1
  H  3521  1  0.34105900  0.13921800  0.88788100  1
  H  3522  1  0.34086900  0.17403700  0.88785500  1
  H  3523  1  0.30361800  0.20173600  0.92941600  1
  H  3524  1  0.30358800  0.23666100  0.92941600  1
  H  3525  1  0.34051000  0.45070400  0.91184300  1
  H  3526  1  0.34027300  0.48553000  0.91210000  1
  H  3527  1  0.28369300  0.45048800  0.88804500  1
  H  3528  1  0.28354300  0.48530500  0.88808400  1
  H  3535  1  0.28395100  0.79804100  0.60028400  1
  H  3542  1  0.31426200  0.84214100  0.66323900  1
  H  3543  1  0.31491300  0.84239600  0.69803600  1
  H  3544  1  0.30867900  0.78108300  0.69853500  1
  H  3545  1  0.33889000  0.82556900  0.60130700  1
  H  3546  1  0.30873200  0.78082700  0.66375700  1
  H  3547  1  0.33855100  0.82515100  0.63609300  1
  H  3557  1  0.34037600  0.79799000  0.19929100  1
  H  3564  1  0.30991400  0.84207700  0.13634000  1
  H  3565  1  0.30927000  0.84233200  0.10154600  1
  H  3566  1  0.31577700  0.78104700  0.10104600  1
  H  3567  1  0.28545400  0.82555100  0.19829400  1
  H  3568  1  0.31569300  0.78078700  0.13582000  1
  H  3569  1  0.28576800  0.82511300  0.16351100  1
  H  3579  1  0.51272200  0.28402400  0.88557900  1
  H  3586  1  0.57569900  0.31428900  0.92968500  1
  H  3587  1  0.61049700  0.31491900  0.92993700  1
  H  3588  1  0.61098600  0.30868200  0.86862300  1
  H  3589  1  0.51378500  0.33896700  0.91309800  1
  H  3590  1  0.57620700  0.30875700  0.86837000  1
  H  3591  1  0.54857100  0.33859700  0.91268900  1
  H  3601  1  0.11177800  0.34030000  0.88552900  1
  H  3608  1  0.04879340  0.30989000  0.92961600  1
  H  3609  1  0.01399940  0.30926600  0.92987000  1
  H  3610  1  0.01350540  0.31578700  0.86858600  1
  H  3611  1  0.11072400  0.28537800  0.91308500  1
  H  3612  1  0.04827940  0.31568400  0.86832800  1
  H  3613  1  0.07594140  0.28572800  0.91265000  1
  H  3623  1  0.79804200  0.51274600  0.37148900  1
  H  3630  1  0.84214200  0.57569900  0.40179600  1
  H  3631  1  0.84239800  0.61049700  0.40244800  1
  H  3632  1  0.78108300  0.61099300  0.39622200  1
  H  3633  1  0.82557100  0.51376600  0.42642700  1
  H  3634  1  0.78082800  0.57621400  0.39627400  1
  H  3635  1  0.82515400  0.54855200  0.42608900  1
  H  3645  1  0.79799600  0.11175400  0.42791200  1
  H  3652  1  0.84207500  0.04879940  0.39744700  1
  H  3653  1  0.84233200  0.01400540  0.39680700  1
  H  3654  1  0.78104800  0.01350340  0.40332500  1
  H  3655  1  0.82555400  0.11075100  0.37299100  1
  H  3656  1  0.78078700  0.04827840  0.40323900  1
  H  3657  1  0.82511300  0.07596940  0.37330600  1
  H  3667  1  0.79784200  0.28418000  0.19928700  1
  H  3674  1  0.84188000  0.31457900  0.13635700  1
  H  3675  1  0.84215600  0.31519300  0.10156100  1
  H  3676  1  0.78085000  0.30887000  0.10103100  1
  H  3677  1  0.82527400  0.33916700  0.19828600  1
  H  3678  1  0.78057400  0.30896100  0.13581100  1
  H  3679  1  0.82484100  0.33884800  0.16349800  1
  H  3689  1  0.79785400  0.34044600  0.60027100  1
  H  3696  1  0.84196000  0.31003300  0.66322900  1
  H  3697  1  0.84223300  0.30939400  0.69802200  1
  H  3698  1  0.78094800  0.31589700  0.69855300  1
  H  3699  1  0.82542700  0.28553300  0.60130900  1
  H  3700  1  0.78067000  0.31581100  0.66377700  1
  H  3701  1  0.82499100  0.28587300  0.63609200  1
  H  3711  1  0.28423000  0.51273500  0.91408600  1
  H  3718  1  0.31465800  0.57570200  0.86999700  1
  H  3719  1  0.31528700  0.61049700  0.86973900  1
  H  3720  1  0.30876100  0.61100200  0.93102300  1
  H  3721  1  0.33915900  0.51376900  0.88654300  1
  H  3722  1  0.30885900  0.57622600  0.93128500  1
  H  3723  1  0.33881800  0.54855200  0.88697200  1
  H  3733  1  0.34046200  0.11177900  0.91398000  1
  H  3740  1  0.31019200  0.04880240  0.86987700  1
  H  3741  1  0.30956300  0.01400440  0.86962400  1
  H  3742  1  0.31581300  0.01351440  0.93093700  1
  H  3743  1  0.28551400  0.11071700  0.88647300  1
  H  3744  1  0.31573700  0.04829240  0.93119000  1
  H  3745  1  0.28588500  0.07593140  0.88687900  1
  H  3755  1  0.51273600  0.79785300  0.42798700  1
  H  3762  1  0.57568900  0.84196000  0.39756500  1
  H  3763  1  0.61048200  0.84223300  0.39692900  1
  H  3764  1  0.61101500  0.78094900  0.40343900  1
  H  3765  1  0.51376800  0.82542100  0.37307100  1
  H  3766  1  0.57623900  0.78067000  0.40335000  1
  H  3767  1  0.54855100  0.82498800  0.37340800  1
  H  3777  1  0.11175000  0.79784200  0.37171700  1
  H  3784  1  0.04881940  0.84187800  0.40211300  1
  H  3785  1  0.01402140  0.84215400  0.40273000  1
  H  3786  1  0.01349340  0.78085000  0.39640600  1
  H  3787  1  0.11074500  0.82527500  0.42670300  1
  H  3788  1  0.04827240  0.78057400  0.39649300  1
  H  3789  1  0.07595740  0.82483900  0.42638200  1
  C  1  1  0.00586300  0.55640300  0.46957500  1
  C  2  1  0.00588500  0.54215800  0.45533200  1
  C  3  1  0.00581100  0.52393300  0.46447500  1
  C  5  1  0.00594700  0.54726300  0.48780300  1
  C  6  1  0.00598200  0.55716000  0.50608400  1
  C  7  1  0.00598600  0.54774900  0.52456700  1
  C  9  1  0.00603800  0.52459500  0.54772800  1
  C  10  1  0.00601200  0.54275900  0.55697100  1
  C  11  1  0.00608200  0.55699900  0.54272700  1
  C  12  1  0.00600600  0.50611400  0.55714400  1
  C  13  1  0.00592300  0.48783300  0.54724500  1
  C  15  1  0.00585900  0.46449900  0.52391500  1
  C  16  1  0.00581800  0.45536100  0.54214500  1
  C  17  1  0.00596800  0.46960500  0.55638700  1
  C  18  1  0.00577600  0.45459700  0.50563600  1
  C  19  1  0.00573900  0.46401200  0.48715400  1
  C  21  1  0.00579300  0.48716800  0.46399500  1
  C  22  1  0.00570000  0.46900700  0.45475000  1
  C  23  1  0.00577300  0.45476500  0.46899100  1
  C  24  1  0.00578700  0.50565000  0.45458100  1
  C  25  1  0.00576200  0.50580600  0.43372500  1
  C  26  1  0.02320400  0.50284200  0.42316800  1
  C  27  1  0.02312100  0.50280200  0.40262000  1
  C  28  1  0.00567500  0.50583100  0.39193000  1
  C  29  1  0.98827800  0.50889200  0.40269400  1
  C  30  1  0.98827800  0.50881000  0.42324400  1
  C  31  1  0.00562200  0.50575100  0.37100400  1
  C  32  1  0.99487900  0.51972600  0.36022200  1
  C  33  1  0.99486400  0.51965600  0.33967000  1
  C  34  1  0.00550100  0.50553800  0.32896600  1
  C  35  1  0.01620100  0.49153500  0.33975200  1
  C  36  1  0.01630500  0.49167200  0.36030100  1
  C  37  1  0.00574800  0.43373800  0.50579800  1
  C  38  1  0.02318500  0.42321900  0.50893200  1
  C  39  1  0.02312900  0.40267100  0.50908500  1
  C  40  1  0.00572200  0.39194000  0.50597600  1
  C  41  1  0.98832500  0.40266400  0.50278300  1
  C  42  1  0.98829700  0.42321300  0.50275300  1
  C  43  1  0.00571300  0.37101400  0.50606600  1
  C  44  1  0.01632100  0.36033600  0.52022000  1
  C  45  1  0.01626600  0.33978700  0.52035400  1
  C  46  1  0.00568900  0.32897300  0.50627600  1
  C  47  1  0.99512900  0.33965500  0.49208300  1
  C  48  1  0.99509200  0.36020800  0.49201600  1
  C  49  1  0.00603300  0.50595500  0.57800300  1
  C  50  1  0.98859500  0.50282600  0.58852100  1
  C  51  1  0.98864900  0.50267300  0.60907000  1
  C  52  1  0.00605500  0.50578500  0.61980100  1
  C  53  1  0.02345100  0.50898300  0.60907900  1
  C  54  1  0.02348300  0.50900000  0.58853000  1
  C  55  1  0.00606200  0.50569700  0.64072800  1
  C  56  1  0.01668100  0.51974800  0.65153200  1
  C  57  1  0.01664800  0.51968100  0.67208600  1
  C  58  1  0.00608700  0.50549100  0.68277000  1
  C  59  1  0.99550600  0.49141500  0.67195700  1
  C  60  1  0.99544600  0.49154900  0.65140800  1
  C  61  1  0.00600200  0.57801600  0.50592300  1
  C  62  1  0.98855700  0.58856900  0.50888900  1
  C  63  1  0.02348200  0.58850200  0.50291500  1
  C  64  1  0.02347700  0.60905300  0.50283700  1
  C  65  1  0.00607800  0.61981100  0.50589400  1
  C  66  1  0.98863600  0.60911700  0.50893200  1
  C  67  1  0.00612500  0.64073900  0.50597300  1
  C  68  1  0.99544200  0.65143900  0.52005500  1
  C  69  1  0.99554100  0.67198700  0.52019300  1
  C  70  1  0.00623000  0.68277700  0.50618300  1
  C  71  1  0.01686600  0.67207400  0.49206300  1
  C  72  1  0.01686700  0.65152200  0.49200000  1
  C  115  1  0.46956600  0.00568900  0.55640300  1
  C  116  1  0.45532200  0.00576700  0.54215900  1
  C  117  1  0.46446500  0.00574600  0.52393300  1
  C  119  1  0.48779400  0.00579600  0.54726400  1
  C  120  1  0.50607300  0.00578700  0.55716200  1
  C  121  1  0.52455700  0.00582100  0.54775000  1
  C  123  1  0.54771700  0.00597000  0.52459600  1
  C  124  1  0.55696100  0.00587700  0.54275900  1
  C  125  1  0.54271700  0.00588900  0.55700000  1
  C  126  1  0.55713300  0.00601500  0.50611400  1
  C  127  1  0.54723500  0.00600400  0.48783200  1
  C  129  1  0.52390300  0.00602800  0.46449900  1
  C  130  1  0.54213300  0.00601500  0.45536000  1
  C  131  1  0.55637400  0.00610900  0.46960400  1
  C  132  1  0.50562400  0.00597800  0.45459800  1
  C  133  1  0.48714200  0.00590700  0.46401300  1
  C  135  1  0.46398500  0.00586300  0.48717000  1
  C  136  1  0.45473800  0.00583100  0.46900800  1
  C  137  1  0.46897900  0.00596200  0.45476800  1
  C  138  1  0.45457100  0.00578900  0.50565200  1
  C  139  1  0.43371300  0.00576200  0.50580800  1
  C  140  1  0.42315500  0.02320900  0.50286500  1
  C  141  1  0.40260800  0.02312500  0.50282600  1
  C  142  1  0.39192000  0.00567500  0.50583300  1
  C  143  1  0.40268300  0.98827400  0.50886400  1
  C  144  1  0.42323200  0.98827500  0.50879100  1
  C  145  1  0.37099400  0.00562100  0.50575100  1
  C  146  1  0.36021400  0.99487400  0.51972200  1
  C  147  1  0.33966100  0.99486000  0.51965100  1
  C  148  1  0.32895800  0.00550300  0.50553700  1
  C  149  1  0.33974400  0.01620100  0.49153200  1
  C  150  1  0.36029200  0.01630800  0.49167200  1
  C  151  1  0.50577900  0.00599100  0.43373800  1
  C  152  1  0.50887000  0.02345200  0.42324400  1
  C  153  1  0.50892000  0.02344400  0.40269300  1
  C  154  1  0.50575400  0.00606000  0.39194000  1
  C  155  1  0.50262700  0.98863900  0.40264200  1
  C  156  1  0.50270200  0.98856300  0.42319000  1
  C  157  1  0.50565200  0.00610300  0.37101400  1
  C  158  1  0.51968600  0.01675000  0.36021500  1
  C  159  1  0.51960100  0.01674800  0.33966100  1
  C  160  1  0.50540500  0.00619800  0.32897300  1
  C  161  1  0.49133800  0.99560100  0.33978100  1
  C  162  1  0.49148700  0.99551500  0.36033000  1
  C  163  1  0.57799200  0.00604300  0.50595500  1
  C  164  1  0.58851100  0.98861100  0.50279700  1
  C  165  1  0.60905900  0.98866500  0.50264500  1
  C  166  1  0.61979100  0.00606700  0.50578300  1
  C  167  1  0.60906700  0.02345900  0.50900200  1
  C  168  1  0.58851600  0.02348800  0.50902800  1
  C  169  1  0.64071800  0.00607500  0.50569600  1
  C  170  1  0.65152300  0.01668400  0.51975600  1
  C  171  1  0.67207700  0.01665500  0.51968400  1
  C  172  1  0.68276100  0.00610000  0.50549000  1
  C  173  1  0.67194900  0.99553400  0.49140200  1
  C  174  1  0.65139900  0.99547200  0.49153900  1
  C  175  1  0.50590900  0.00576100  0.57801800  1
  C  176  1  0.50885000  0.98829300  0.58854100  1
  C  177  1  0.50285100  0.02321300  0.58853300  1
  C  178  1  0.50268300  0.02315700  0.60908200  1
  C  179  1  0.50567900  0.00573000  0.61981300  1
  C  180  1  0.50878900  0.98831800  0.60909100  1
  C  181  1  0.50556600  0.00572000  0.64073900  1
  C  182  1  0.51954400  0.99501900  0.65155700  1
  C  183  1  0.51945900  0.99505500  0.67210900  1
  C  184  1  0.50531800  0.00569700  0.68277700  1
  C  185  1  0.49131000  0.01635600  0.67195300  1
  C  186  1  0.49146300  0.01641100  0.65140400  1
  C  229  1  0.55640200  0.46956700  0.00568700  1
  C  230  1  0.54215600  0.45532500  0.00576400  1
  C  231  1  0.52393100  0.46446800  0.00575100  1
  C  233  1  0.54726300  0.48779600  0.00579700  1
  C  234  1  0.55716000  0.50607500  0.00579200  1
  C  235  1  0.54775000  0.52455800  0.00582800  1
  C  237  1  0.52459600  0.54772000  0.00598100  1
  C  238  1  0.54276000  0.55696200  0.00588800  1
  C  239  1  0.55700000  0.54271800  0.00590300  1
  C  240  1  0.50611400  0.55713600  0.00601600  1
  C  241  1  0.48783300  0.54723800  0.00599600  1
  C  243  1  0.46449900  0.52390800  0.00602400  1
  C  244  1  0.45536000  0.54213800  0.00600300  1
  C  245  1  0.46960500  0.55637800  0.00609800  1
  C  246  1  0.45459700  0.50562800  0.00598000  1
  C  247  1  0.46401200  0.48714600  0.00591400  1
  C  249  1  0.48716800  0.46398800  0.00586900  1
  C  250  1  0.46900700  0.45474300  0.00584300  1
  C  251  1  0.45476600  0.46898400  0.00597100  1
  C  252  1  0.50564900  0.45457300  0.00579400  1
  C  253  1  0.50580500  0.43371600  0.00576700  1
  C  254  1  0.50286500  0.42315800  0.02321300  1
  C  255  1  0.50281800  0.40261000  0.02312800  1
  C  256  1  0.50582700  0.39192300  0.00567800  1
  C  257  1  0.50885400  0.40268700  0.98827500  1
  C  258  1  0.50878300  0.42323600  0.98827800  1
  C  259  1  0.50574800  0.37099700  0.00562400  1
  C  260  1  0.51971500  0.36021800  0.99486800  1
  C  261  1  0.51964900  0.33966600  0.99485700  1
  C  262  1  0.50553800  0.32896100  0.00550100  1
  C  263  1  0.49153800  0.33974600  0.01620800  1
  C  264  1  0.49167300  0.36029400  0.01631300  1
  C  265  1  0.43373800  0.50578500  0.00599200  1
  C  266  1  0.42324200  0.50887800  0.02345200  1
  C  267  1  0.40269100  0.50893700  0.02344100  1
  C  268  1  0.39194000  0.50576100  0.00605900  1
  C  269  1  0.40264200  0.50263800  0.98863700  1
  C  270  1  0.42319000  0.50270800  0.98856300  1
  C  271  1  0.37101400  0.50565800  0.00610100  1
  C  272  1  0.36021200  0.51969300  0.01674400  1
  C  273  1  0.33966000  0.51960500  0.01674200  1
  C  274  1  0.32897300  0.50540500  0.00619500  1
  C  275  1  0.33978200  0.49133500  0.99560400  1
  C  276  1  0.36033200  0.49149500  0.99550700  1
  C  277  1  0.50595700  0.57799400  0.00604300  1
  C  278  1  0.50279800  0.58851200  0.98860900  1
  C  279  1  0.50265100  0.60906000  0.98866200  1
  C  280  1  0.50578500  0.61979400  0.00606400  1
  C  281  1  0.50899900  0.60907000  0.02345700  1
  C  282  1  0.50902800  0.58852100  0.02348800  1
  C  283  1  0.50569800  0.64072100  0.00607000  1
  C  284  1  0.51975300  0.65152800  0.01668500  1
  C  285  1  0.51969000  0.67208000  0.01664300  1
  C  286  1  0.50549300  0.68276400  0.00609300  1
  C  287  1  0.49140900  0.67195200  0.99552200  1
  C  288  1  0.49154400  0.65140100  0.99546400  1
  C  289  1  0.57801800  0.50591000  0.00576200  1
  C  290  1  0.58854000  0.50885300  0.98829400  1
  C  291  1  0.58853400  0.50285100  0.02321400  1
  C  292  1  0.60908200  0.50267100  0.02315500  1
  C  293  1  0.61981100  0.50567900  0.00573000  1
  C  294  1  0.60908900  0.50880200  0.98831900  1
  C  295  1  0.64073900  0.50556400  0.00571600  1
  C  296  1  0.65155500  0.51954400  0.99501400  1
  C  297  1  0.67210800  0.51945600  0.99504600  1
  C  298  1  0.68277600  0.50531800  0.00568900  1
  C  299  1  0.67195500  0.49130900  0.01634800  1
  C  300  1  0.65140400  0.49146200  0.01640500  1
  C  343  1  0.50579300  0.05632600  0.96946200  1
  C  344  1  0.50600800  0.04205900  0.95525700  1
  C  345  1  0.50590300  0.02384400  0.96442300  1
  C  347  1  0.50592200  0.04724200  0.98771800  1
  C  348  1  0.50587900  0.05721700  0.00597000  1
  C  349  1  0.50587200  0.04780100  0.02446500  1
  C  351  1  0.50592600  0.02467800  0.04769300  1
  C  352  1  0.50578000  0.04287100  0.05688000  1
  C  353  1  0.50596400  0.05707200  0.04261500  1
  C  354  1  0.50592300  0.00622400  0.05719200  1
  C  355  1  0.50590700  0.98792900  0.04729500  1
  C  357  1  0.50592900  0.96452800  0.02399700  1
  C  358  1  0.50580500  0.95544600  0.04225400  1
  C  359  1  0.50603400  0.96971300  0.05645800  1
  C  360  1  0.50589000  0.95455000  0.00574500  1
  C  361  1  0.50588500  0.96396900  0.98725000  1
  C  363  1  0.50593200  0.98709500  0.96402400  1
  C  364  1  0.50581700  0.96890500  0.95483400  1
  C  365  1  0.50601200  0.95470200  0.96909900  1
  C  366  1  0.50591700  0.00554800  0.95452800  1
  C  367  1  0.50588400  0.00566300  0.93363100  1
  C  368  1  0.52285900  0.00069800  0.92302500  1
  C  369  1  0.52272700  0.00053300  0.90247800  1
  C  370  1  0.50576400  0.00570500  0.89188200  1
  C  371  1  0.48886500  0.01087100  0.90258500  1
  C  372  1  0.48885200  0.01066100  0.92313400  1
  C  373  1  0.50568200  0.00565000  0.87103000  1
  C  374  1  0.49858000  0.02182600  0.86034200  1
  C  375  1  0.49862400  0.02180800  0.83978800  1
  C  376  1  0.50541000  0.00545900  0.82915500  1
  C  377  1  0.51236700  0.98922100  0.83985300  1
  C  378  1  0.51266200  0.98938300  0.86040000  1
  C  379  1  0.50584400  0.93365300  0.00594400  1
  C  380  1  0.52281500  0.92310300  0.01104400  1
  C  381  1  0.52272000  0.90255500  0.01131900  1
  C  382  1  0.50580800  0.89189900  0.00610000  1
  C  383  1  0.48890700  0.90254400  0.00082400  1
  C  384  1  0.48885200  0.92309200  0.00093900  1
  C  385  1  0.50578900  0.87104800  0.00616100  1
  C  386  1  0.51270600  0.86043700  0.02246600  1
  C  387  1  0.51245500  0.83988900  0.02262800  1
  C  388  1  0.50560900  0.82917000  0.00635600  1
  C  389  1  0.49890100  0.83978600  0.98996300  1
  C  390  1  0.49881800  0.86033900  0.98994000  1
  C  391  1  0.50590600  0.00611500  0.07809000  1
  C  392  1  0.48890300  0.00105000  0.08860600  1
  C  393  1  0.48893100  0.00085700  0.10915500  1
  C  394  1  0.50581100  0.00611700  0.11984400  1
  C  395  1  0.52273900  0.01137000  0.10923200  1
  C  396  1  0.52286300  0.01117000  0.08868500  1
  C  397  1  0.50574200  0.00619100  0.14069500  1
  C  398  1  0.51263700  0.02250600  0.15130600  1
  C  399  1  0.51234100  0.02268800  0.17185400  1
  C  400  1  0.50548500  0.00642000  0.18257300  1
  C  401  1  0.49879600  0.99002000  0.17195500  1
  C  402  1  0.49875200  0.98997800  0.15140200  1
  C  403  1  0.50583900  0.07811200  0.00576700  1
  C  404  1  0.48882700  0.08867700  0.01069600  1
  C  405  1  0.52283000  0.08865200  0.00071600  1
  C  406  1  0.52273600  0.10919900  0.00040900  1
  C  407  1  0.50580500  0.11986200  0.00555500  1
  C  408  1  0.48888400  0.10922500  0.01078600  1
  C  409  1  0.50578700  0.14071200  0.00546900  1
  C  410  1  0.49874100  0.15143900  0.02164600  1
  C  411  1  0.49883500  0.17199000  0.02160400  1
  C  412  1  0.50562300  0.18258600  0.00523100  1
  C  413  1  0.51254100  0.17185100  0.98900000  1
  C  414  1  0.51279200  0.15130300  0.98918900  1
  C  457  1  0.96946300  0.50577000  0.05632500  1
  C  458  1  0.95525900  0.50598600  0.04205900  1
  C  459  1  0.96442300  0.50588700  0.02384300  1
  C  461  1  0.98771900  0.50590400  0.04724100  1
  C  462  1  0.00597200  0.50587800  0.05721500  1
  C  463  1  0.02446700  0.50587800  0.04779900  1
  C  465  1  0.04769400  0.50593000  0.02467500  1
  C  466  1  0.05688200  0.50579500  0.04286700  1
  C  467  1  0.04261700  0.50597700  0.05706900  1
  C  468  1  0.05719200  0.50592600  0.00622100  1
  C  469  1  0.04729400  0.50590700  0.98792500  1
  C  471  1  0.02399600  0.50592200  0.96452500  1
  C  472  1  0.04225200  0.50579900  0.95544300  1
  C  473  1  0.05645600  0.50601800  0.96970800  1
  C  474  1  0.00574300  0.50589100  0.95455000  1
  C  475  1  0.98724800  0.50589100  0.96396700  1
  C  477  1  0.96402300  0.50594400  0.98709400  1
  C  478  1  0.95483300  0.50583300  0.96890300  1
  C  479  1  0.96909600  0.50602800  0.95470200  1
  C  480  1  0.95452700  0.50591700  0.00554800  1
  C  481  1  0.93363100  0.50588500  0.00566300  1
  C  482  1  0.92302600  0.52286200  0.00070100  1
  C  483  1  0.90247800  0.52273300  0.00053600  1
  C  484  1  0.89188000  0.50576800  0.00570700  1
  C  485  1  0.90258300  0.48887200  0.01088000  1
  C  486  1  0.92313100  0.48885300  0.01065900  1
  C  487  1  0.87103000  0.50568800  0.00565000  1
  C  488  1  0.86034000  0.49859000  0.02182900  1
  C  489  1  0.83978800  0.49862200  0.02180600  1
  C  490  1  0.82915500  0.50541400  0.00545700  1
  C  491  1  0.83985300  0.51237800  0.98922400  1
  C  492  1  0.86040000  0.51267800  0.98938700  1
  C  493  1  0.00594100  0.50584400  0.93365200  1
  C  494  1  0.01104300  0.52281400  0.92310000  1
  C  495  1  0.01132300  0.52271700  0.90255400  1
  C  496  1  0.00610000  0.50580300  0.89189900  1
  C  497  1  0.00082400  0.48890400  0.90254500  1
  C  498  1  0.00093200  0.48885200  0.92309300  1
  C  499  1  0.00616300  0.50578200  0.87104800  1
  C  500  1  0.02247000  0.51269700  0.86043800  1
  C  501  1  0.02263400  0.51244800  0.83989100  1
  C  502  1  0.00636100  0.50560400  0.82917000  1
  C  503  1  0.98997100  0.49889100  0.83978600  1
  C  504  1  0.98994600  0.49880500  0.86033900  1
  C  505  1  0.07809100  0.50590600  0.00611000  1
  C  506  1  0.08860400  0.48890100  0.00104800  1
  C  507  1  0.10915300  0.48892900  0.00084600  1
  C  508  1  0.11984400  0.50580500  0.00611100  1
  C  509  1  0.10923400  0.52273800  0.01136000  1
  C  510  1  0.08868700  0.52286300  0.01116000  1
  C  511  1  0.14069500  0.50573200  0.00619000  1
  C  512  1  0.15130500  0.51262300  0.02250700  1
  C  513  1  0.17185100  0.51233500  0.02268800  1
  C  514  1  0.18257300  0.50547800  0.00642200  1
  C  515  1  0.17195600  0.49878000  0.99002500  1
  C  516  1  0.15140400  0.49873300  0.98998200  1
  C  517  1  0.00577000  0.50583700  0.07811100  1
  C  518  1  0.01070200  0.48882700  0.08867600  1
  C  519  1  0.00071400  0.52282700  0.08865100  1
  C  520  1  0.00041200  0.52273500  0.10919800  1
  C  521  1  0.00555800  0.50580300  0.11986100  1
  C  522  1  0.01078900  0.48888200  0.10922400  1
  C  523  1  0.00547200  0.50578600  0.14071200  1
  C  524  1  0.02164800  0.49873900  0.15143900  1
  C  525  1  0.02160600  0.49883400  0.17199000  1
  C  526  1  0.00523300  0.50562300  0.18258600  1
  C  527  1  0.98900000  0.51253500  0.17185100  1
  C  528  1  0.98919000  0.51278900  0.15130300  1
  C  571  1  0.05640000  0.96957000  0.50576600  1
  C  572  1  0.04216400  0.95533600  0.50599600  1
  C  573  1  0.02392800  0.96446100  0.50587900  1
  C  575  1  0.04727700  0.98780700  0.50588100  1
  C  576  1  0.05721400  0.00608000  0.50584000  1
  C  577  1  0.04776000  0.02455500  0.50583000  1
  C  579  1  0.02458800  0.04773300  0.50590700  1
  C  580  1  0.04276000  0.05696000  0.50576600  1
  C  581  1  0.05699200  0.04272500  0.50593600  1
  C  582  1  0.00611400  0.05719100  0.50592500  1
  C  583  1  0.98783900  0.04725400  0.50589800  1
  C  585  1  0.96448800  0.02390600  0.50589200  1
  C  586  1  0.95536700  0.04214300  0.50578700  1
  C  587  1  0.96960300  0.05637800  0.50601900  1
  C  588  1  0.95454800  0.00563300  0.50585700  1
  C  589  1  0.96400400  0.98715800  0.50586000  1
  C  591  1  0.98718000  0.96398200  0.50592800  1
  C  592  1  0.96901000  0.95475300  0.50582400  1
  C  593  1  0.95477600  0.96898600  0.50599600  1
  C  594  1  0.00565400  0.95452700  0.50592000  1
  C  595  1  0.00581500  0.93363000  0.50594200  1
  C  596  1  0.00087900  0.92305800  0.52294800  1
  C  597  1  0.00079000  0.90251000  0.52288200  1
  C  598  1  0.00601100  0.89188000  0.50595400  1
  C  599  1  0.01114700  0.90255000  0.48902400  1
  C  600  1  0.01085300  0.92309600  0.48894400  1
  C  601  1  0.00611500  0.87103000  0.50596500  1
  C  602  1  0.02240700  0.86045600  0.49896400  1
  C  603  1  0.02261000  0.83990700  0.49919700  1
  C  604  1  0.00639100  0.82915500  0.50611600  1
  C  605  1  0.99001100  0.83973400  0.51291200  1
  C  606  1  0.98995000  0.86028600  0.51301500  1
  C  607  1  0.93365000  0.00579000  0.50582700  1
  C  608  1  0.92310300  0.01088000  0.52280200  1
  C  609  1  0.90255500  0.01114900  0.52271400  1
  C  610  1  0.89189600  0.00593500  0.50580200  1
  C  611  1  0.90253800  0.00064900  0.48890100  1
  C  612  1  0.92308600  0.00077600  0.48883900  1
  C  613  1  0.87104500  0.00601600  0.50578200  1
  C  614  1  0.86045100  0.02233000  0.51270600  1
  C  615  1  0.83990300  0.02251700  0.51244900  1
  C  616  1  0.82916700  0.00625700  0.50560100  1
  C  617  1  0.83976600  0.98985700  0.49888400  1
  C  618  1  0.86032000  0.98980700  0.49880900  1
  C  619  1  0.00595900  0.07808900  0.50595800  1
  C  620  1  0.00086300  0.08863800  0.48898600  1
  C  621  1  0.00058700  0.10918500  0.48907800  1
  C  622  1  0.00581800  0.11984200  0.50598700  1
  C  623  1  0.01110300  0.10919900  0.52288600  1
  C  624  1  0.01098000  0.08865100  0.52294600  1
  C  625  1  0.00574100  0.14069300  0.50600800  1
  C  626  1  0.02195200  0.15141600  0.51297700  1
  C  627  1  0.02190600  0.17196800  0.51290300  1
  C  628  1  0.00550700  0.18257200  0.50618900  1
  C  629  1  0.98924300  0.17183800  0.49935100  1
  C  630  1  0.98942500  0.15129000  0.49909200  1
  C  631  1  0.07811000  0.00591800  0.50581400  1
  C  632  1  0.08867800  0.01085300  0.48880500  1
  C  633  1  0.08864700  0.00087800  0.52280900  1
  C  634  1  0.10919400  0.00058700  0.52272500  1
  C  635  1  0.11986000  0.00571700  0.50579000  1
  C  636  1  0.10922600  0.01093900  0.48886500  1
  C  637  1  0.14070900  0.00561100  0.50577300  1
  C  638  1  0.15145200  0.02177500  0.49872500  1
  C  639  1  0.17200400  0.02171100  0.49881800  1
  C  640  1  0.18258300  0.00533100  0.50561200  1
  C  641  1  0.17183100  0.98911000  0.51252900  1
  C  642  1  0.15128400  0.98931700  0.51277200  1
  C  685  1  0.00504800  0.50540100  0.20344500  1
  C  686  1  0.02077600  0.51309500  0.21433600  1
  C  687  1  0.02046400  0.51304300  0.23486100  1
  C  688  1  0.00457500  0.50497800  0.24528400  1
  C  689  1  0.98867800  0.49707000  0.23455900  1
  C  690  1  0.98908800  0.49749900  0.21387400  1
  C  692  1  0.00492900  0.50509000  0.26612800  1
  C  693  1  0.00683100  0.52276000  0.27660200  1
  C  694  1  0.00695300  0.52290300  0.29715400  1
  C  695  1  0.00539300  0.50539100  0.30803500  1
  C  696  1  0.00372600  0.48771500  0.29744200  1
  C  697  1  0.00348600  0.48755600  0.27689700  1
  C  707  1  0.00653000  0.50537300  0.80830800  1
  C  708  1  0.99080400  0.51307800  0.79742100  1
  C  709  1  0.99109700  0.51300800  0.77689600  1
  C  710  1  0.00697300  0.50493000  0.76646300  1
  C  711  1  0.02287300  0.49702100  0.77718400  1
  C  712  1  0.02247800  0.49746000  0.79786900  1
  C  714  1  0.00660700  0.50503800  0.74561500  1
  C  715  1  0.00463200  0.52270000  0.73513900  1
  C  716  1  0.00451600  0.52284300  0.71458500  1
  C  717  1  0.00616000  0.50534100  0.70370200  1
  C  718  1  0.00789100  0.48767200  0.71429700  1
  C  719  1  0.00812500  0.48751200  0.73484200  1
  C  729  1  0.20344100  0.00512300  0.50539900  1
  C  730  1  0.21434400  0.02083900  0.51310300  1
  C  731  1  0.23486700  0.02051300  0.51304900  1
  C  732  1  0.24527800  0.00461600  0.50498500  1
  C  733  1  0.23454100  0.98872600  0.49707600  1
  C  734  1  0.21385600  0.98915500  0.49749900  1
  C  736  1  0.26612200  0.00495600  0.50509600  1
  C  737  1  0.27659700  0.00684600  0.52276500  1
  C  738  1  0.29715000  0.00697200  0.52290500  1
  C  739  1  0.30802800  0.00540200  0.50539200  1
  C  740  1  0.29743300  0.00374300  0.48771700  1
  C  741  1  0.27688800  0.00350500  0.48756100  1
  C  751  1  0.80830300  0.00644800  0.50536900  1
  C  752  1  0.79740100  0.99073200  0.51307100  1
  C  753  1  0.77687600  0.99104900  0.51300500  1
  C  754  1  0.76645900  0.00693800  0.50493100  1
  C  755  1  0.77719500  0.02282700  0.49702300  1
  C  756  1  0.79788200  0.02240600  0.49745500  1
  C  758  1  0.74561000  0.00659400  0.50504000  1
  C  759  1  0.73513100  0.00462600  0.52270100  1
  C  760  1  0.71457800  0.00451400  0.52284400  1
  C  761  1  0.70369400  0.00617000  0.50534200  1
  C  762  1  0.71429200  0.00791000  0.48767400  1
  C  763  1  0.73483900  0.00812400  0.48751500  1
  C  773  1  0.50540200  0.20344500  0.00504600  1
  C  774  1  0.51309700  0.21433500  0.02077500  1
  C  775  1  0.51304400  0.23485800  0.02046400  1
  C  776  1  0.50497900  0.24528100  0.00457500  1
  C  777  1  0.49707200  0.23455900  0.98867800  1
  C  778  1  0.49750100  0.21387200  0.98908600  1
  C  780  1  0.50509200  0.26612500  0.00493100  1
  C  781  1  0.52276100  0.27659900  0.00683000  1
  C  782  1  0.52290400  0.29715100  0.00695200  1
  C  783  1  0.50539200  0.30803100  0.00539600  1
  C  784  1  0.48771500  0.29743700  0.00372900  1
  C  785  1  0.48755600  0.27689200  0.00348900  1
  C  795  1  0.50537500  0.80830600  0.00652500  1
  C  796  1  0.51306900  0.79741800  0.99079500  1
  C  797  1  0.51300500  0.77689300  0.99109400  1
  C  798  1  0.50492800  0.76646000  0.00697200  1
  C  799  1  0.49702100  0.77718400  0.02287200  1
  C  800  1  0.49746100  0.79786900  0.02247400  1
  C  802  1  0.50503800  0.74561300  0.00660900  1
  C  803  1  0.52270000  0.73513600  0.00463200  1
  C  804  1  0.52284400  0.71458300  0.00451600  1
  C  805  1  0.50534200  0.70369700  0.00616500  1
  C  806  1  0.48767300  0.71429200  0.00789800  1
  C  807  1  0.48751400  0.73483900  0.00813100  1
  C  817  1  0.50515700  0.00529700  0.80829600  1
  C  818  1  0.51282400  0.02104300  0.79741100  1
  C  819  1  0.51275500  0.02074700  0.77688800  1
  C  820  1  0.50471200  0.00485100  0.76645900  1
  C  821  1  0.49683500  0.98893500  0.77717600  1
  C  822  1  0.49727100  0.98933300  0.79786200  1
  C  824  1  0.50483000  0.00520800  0.74561300  1
  C  825  1  0.52250400  0.00712000  0.73514800  1
  C  826  1  0.52265700  0.00723700  0.71459700  1
  C  827  1  0.50515600  0.00563300  0.70370600  1
  C  828  1  0.48747500  0.00395800  0.71429100  1
  C  829  1  0.48730500  0.00373000  0.73483700  1
  C  839  1  0.50523700  0.00659900  0.20343500  1
  C  840  1  0.51294400  0.99088100  0.21433300  1
  C  841  1  0.51287800  0.99119200  0.23485800  1
  C  842  1  0.50480000  0.00707600  0.24527900  1
  C  843  1  0.49688500  0.02296600  0.23454700  1
  C  844  1  0.49731700  0.02255100  0.21386200  1
  C  846  1  0.50491900  0.00673000  0.26612800  1
  C  847  1  0.52258700  0.00476300  0.27659600  1
  C  848  1  0.52274100  0.00464300  0.29714800  1
  C  849  1  0.50524300  0.00628900  0.30804100  1
  C  850  1  0.48757100  0.00802900  0.29745500  1
  C  851  1  0.48740000  0.00825300  0.27691000  1
  C  861  1  0.00532200  0.20343500  0.50641800  1
  C  862  1  0.02104600  0.21433300  0.49872200  1
  C  863  1  0.02073200  0.23485700  0.49878000  1
  C  864  1  0.00484200  0.24527900  0.50684700  1
  C  865  1  0.98894800  0.23454700  0.51475100  1
  C  866  1  0.98936400  0.21386200  0.51432400  1
  C  868  1  0.00519000  0.26612700  0.50673400  1
  C  869  1  0.00716600  0.27660200  0.48907200  1
  C  870  1  0.00727300  0.29715600  0.48892500  1
  C  871  1  0.00561900  0.30804100  0.50642600  1
  C  872  1  0.00388000  0.29744600  0.52409600  1
  C  873  1  0.00366300  0.27690100  0.52425800  1
  C  883  1  0.00659700  0.80829600  0.50632700  1
  C  884  1  0.99087700  0.79739300  0.49863100  1
  C  885  1  0.99120600  0.77687000  0.49867800  1
  C  886  1  0.00710600  0.76645900  0.50673700  1
  C  887  1  0.02299600  0.77719400  0.51464300  1
  C  888  1  0.02257100  0.79788100  0.51421600  1
  C  890  1  0.00676500  0.74561500  0.50662600  1
  C  891  1  0.00486700  0.73513800  0.48895700  1
  C  892  1  0.00475700  0.71458500  0.48881400  1
  C  893  1  0.00632500  0.70370600  0.50632700  1
  C  894  1  0.00798600  0.71430200  0.52400300  1
  C  895  1  0.00822200  0.73484800  0.52416000  1
  C  905  1  0.20343500  0.50523500  0.00660100  1
  C  906  1  0.21433200  0.51294500  0.99088400  1
  C  907  1  0.23485500  0.51287700  0.99119200  1
  C  908  1  0.24527900  0.50480000  0.00707500  1
  C  909  1  0.23454900  0.49688500  0.02296600  1
  C  910  1  0.21386200  0.49731400  0.02255200  1
  C  912  1  0.26612700  0.50491900  0.00672600  1
  C  913  1  0.27659500  0.52258700  0.00476000  1
  C  914  1  0.29714700  0.52274100  0.00463200  1
  C  915  1  0.30804100  0.50524500  0.00628300  1
  C  916  1  0.29745500  0.48756900  0.00801700  1
  C  917  1  0.27690800  0.48740000  0.00824800  1
  C  927  1  0.80829600  0.50515700  0.00529600  1
  C  928  1  0.79740900  0.51282100  0.02104200  1
  C  929  1  0.77688500  0.51275400  0.02074400  1
  C  930  1  0.76645700  0.50471200  0.00484600  1
  C  931  1  0.77717800  0.49683500  0.98893000  1
  C  932  1  0.79786300  0.49727400  0.98933000  1
  C  934  1  0.74561300  0.50483000  0.00520100  1
  C  935  1  0.73514800  0.52250400  0.00711600  1
  C  936  1  0.71459600  0.52265700  0.00722500  1
  C  937  1  0.70370600  0.50515600  0.00562400  1
  C  938  1  0.71429100  0.48747600  0.00394000  1
  C  939  1  0.73483600  0.48730400  0.00372000  1
  C  949  1  0.10799000  0.65853000  0.60088200  1
  C  950  1  0.10801200  0.64428500  0.58663900  1
  C  951  1  0.10793800  0.62606000  0.59578200  1
  C  953  1  0.10807400  0.64939000  0.61911000  1
  C  954  1  0.10810900  0.65928700  0.63739100  1
  C  955  1  0.10811300  0.64987600  0.65587400  1
  C  957  1  0.10816500  0.62672200  0.67903500  1
  C  958  1  0.10813900  0.64488600  0.68827800  1
  C  959  1  0.10820900  0.65912600  0.67403400  1
  C  960  1  0.10813300  0.60824100  0.68845100  1
  C  961  1  0.10805000  0.58996000  0.67855200  1
  C  963  1  0.10798600  0.56662600  0.65522200  1
  C  964  1  0.10794500  0.55748800  0.67345200  1
  C  965  1  0.10809500  0.57173200  0.68769400  1
  C  966  1  0.10790300  0.55672400  0.63694300  1
  C  967  1  0.10786600  0.56613900  0.61846100  1
  C  969  1  0.10792000  0.58929500  0.59530200  1
  C  970  1  0.10782700  0.57113400  0.58605700  1
  C  971  1  0.10790000  0.55689200  0.60029800  1
  C  972  1  0.10791400  0.60777700  0.58588800  1
  C  973  1  0.10788900  0.60793300  0.56503200  1
  C  974  1  0.12533100  0.60496900  0.55447500  1
  C  975  1  0.12524800  0.60492900  0.53392700  1
  C  976  1  0.10780200  0.60795800  0.52323700  1
  C  977  1  0.09040550  0.61101900  0.53400100  1
  C  978  1  0.09040550  0.61093700  0.55455100  1
  C  979  1  0.10774900  0.60787800  0.50231100  1
  C  980  1  0.09700650  0.62185300  0.49152900  1
  C  981  1  0.09699150  0.62178300  0.47097700  1
  C  982  1  0.10762800  0.60766500  0.46027300  1
  C  983  1  0.11832800  0.59366200  0.47105900  1
  C  984  1  0.11843200  0.59379900  0.49160800  1
  C  985  1  0.10787500  0.53586500  0.63710500  1
  C  986  1  0.12531200  0.52534600  0.64023900  1
  C  987  1  0.12525600  0.50479800  0.64039200  1
  C  988  1  0.10784900  0.49406700  0.63728300  1
  C  989  1  0.09045250  0.50479100  0.63409000  1
  C  990  1  0.09042450  0.52534000  0.63406000  1
  C  991  1  0.10784000  0.47314100  0.63737300  1
  C  992  1  0.11844800  0.46246300  0.65152700  1
  C  993  1  0.11839300  0.44191400  0.65166100  1
  C  994  1  0.10781600  0.43110000  0.63758300  1
  C  995  1  0.09725650  0.44178200  0.62339000  1
  C  996  1  0.09721950  0.46233500  0.62332300  1
  C  997  1  0.10816000  0.60808200  0.70931000  1
  C  998  1  0.09072250  0.60495300  0.71982800  1
  C  999  1  0.09077650  0.60480000  0.74037700  1
  C  1000  1  0.10818200  0.60791200  0.75110800  1
  C  1001  1  0.12557800  0.61111000  0.74038600  1
  C  1002  1  0.12561000  0.61112700  0.71983700  1
  C  1003  1  0.10818900  0.60782400  0.77203500  1
  C  1004  1  0.11880800  0.62187500  0.78283900  1
  C  1005  1  0.11877500  0.62180800  0.80339300  1
  C  1006  1  0.10821400  0.60761800  0.81407700  1
  C  1007  1  0.09763350  0.59354200  0.80326400  1
  C  1008  1  0.09757350  0.59367600  0.78271500  1
  C  1009  1  0.10812900  0.68014300  0.63723000  1
  C  1010  1  0.09068450  0.69069600  0.64019600  1
  C  1011  1  0.12560900  0.69062900  0.63422200  1
  C  1012  1  0.12560400  0.71118000  0.63414400  1
  C  1013  1  0.10820500  0.72193800  0.63720100  1
  C  1014  1  0.09076350  0.71124400  0.64023900  1
  C  1015  1  0.10825200  0.74286600  0.63728000  1
  C  1016  1  0.09756950  0.75356600  0.65136200  1
  C  1017  1  0.09766850  0.77411400  0.65150000  1
  C  1018  1  0.10835700  0.78490400  0.63749000  1
  C  1019  1  0.11899300  0.77420100  0.62337000  1
  C  1020  1  0.11899400  0.75364900  0.62330700  1
  C  1063  1  0.57169300  0.10781600  0.68771000  1
  C  1064  1  0.55744900  0.10789400  0.67346600  1
  C  1065  1  0.56659200  0.10787300  0.65524000  1
  C  1067  1  0.58992100  0.10792300  0.67857100  1
  C  1068  1  0.60820000  0.10791400  0.68846900  1
  C  1069  1  0.62668400  0.10794800  0.67905700  1
  C  1071  1  0.64984400  0.10809700  0.65590300  1
  C  1072  1  0.65908800  0.10800400  0.67406600  1
  C  1073  1  0.64484400  0.10801600  0.68830700  1
  C  1074  1  0.65926000  0.10814200  0.63742100  1
  C  1075  1  0.64936200  0.10813100  0.61913900  1
  C  1077  1  0.62603000  0.10815500  0.59580600  1
  C  1078  1  0.64426000  0.10814200  0.58666700  1
  C  1079  1  0.65850100  0.10823600  0.60091100  1
  C  1080  1  0.60775100  0.10810500  0.58590500  1
  C  1081  1  0.58926900  0.10803400  0.59532000  1
  C  1083  1  0.56611200  0.10799000  0.61847700  1
  C  1084  1  0.55686500  0.10795800  0.60031500  1
  C  1085  1  0.57110600  0.10808900  0.58607500  1
  C  1086  1  0.55669800  0.10791600  0.63695900  1
  C  1087  1  0.53584000  0.10788900  0.63711500  1
  C  1088  1  0.52528200  0.12533600  0.63417200  1
  C  1089  1  0.50473500  0.12525200  0.63413300  1
  C  1090  1  0.49404700  0.10780200  0.63714000  1
  C  1091  1  0.50481000  0.09040150  0.64017100  1
  C  1092  1  0.52535900  0.09040250  0.64009800  1
  C  1093  1  0.47312100  0.10774800  0.63705800  1
  C  1094  1  0.46234100  0.09700150  0.65102900  1
  C  1095  1  0.44178800  0.09698750  0.65095800  1
  C  1096  1  0.43108500  0.10763000  0.63684400  1
  C  1097  1  0.44187100  0.11832800  0.62283900  1
  C  1098  1  0.46241900  0.11843500  0.62297900  1
  C  1099  1  0.60790600  0.10811800  0.56504500  1
  C  1100  1  0.61099700  0.12557900  0.55455100  1
  C  1101  1  0.61104700  0.12557100  0.53400000  1
  C  1102  1  0.60788100  0.10818700  0.52324700  1
  C  1103  1  0.60475400  0.09076650  0.53394900  1
  C  1104  1  0.60482900  0.09069050  0.55449700  1
  C  1105  1  0.60777900  0.10823000  0.50232100  1
  C  1106  1  0.62181300  0.11887700  0.49152200  1
  C  1107  1  0.62172800  0.11887500  0.47096800  1
  C  1108  1  0.60753200  0.10832500  0.46028000  1
  C  1109  1  0.59346500  0.09772850  0.47108800  1
  C  1110  1  0.59361400  0.09764250  0.49163700  1
  C  1111  1  0.68011900  0.10817000  0.63726200  1
  C  1112  1  0.69063800  0.09073850  0.63410400  1
  C  1113  1  0.71118600  0.09079250  0.63395200  1
  C  1114  1  0.72191800  0.10819400  0.63709000  1
  C  1115  1  0.71119400  0.12558600  0.64030900  1
  C  1116  1  0.69064300  0.12561500  0.64033500  1
  C  1117  1  0.74284500  0.10820200  0.63700300  1
  C  1118  1  0.75365000  0.11881100  0.65106300  1
  C  1119  1  0.77420400  0.11878200  0.65099100  1
  C  1120  1  0.78488800  0.10822700  0.63679700  1
  C  1121  1  0.77407600  0.09766150  0.62270900  1
  C  1122  1  0.75352600  0.09759950  0.62284600  1
  C  1123  1  0.60803600  0.10788800  0.70932500  1
  C  1124  1  0.61097700  0.09042050  0.71984800  1
  C  1125  1  0.60497800  0.12534000  0.71984000  1
  C  1126  1  0.60481000  0.12528400  0.74038900  1
  C  1127  1  0.60780600  0.10785700  0.75112000  1
  C  1128  1  0.61091600  0.09044550  0.74039800  1
  C  1129  1  0.60769300  0.10784700  0.77204600  1
  C  1130  1  0.62167100  0.09714650  0.78286400  1
  C  1131  1  0.62158600  0.09718250  0.80341600  1
  C  1132  1  0.60744500  0.10782400  0.81408400  1
  C  1133  1  0.59343700  0.11848300  0.80326000  1
  C  1134  1  0.59359000  0.11853800  0.78271100  1
  C  1177  1  0.65852900  0.57169400  0.13699400  1
  C  1178  1  0.64428300  0.55745200  0.13707100  1
  C  1179  1  0.62605800  0.56659500  0.13705800  1
  C  1181  1  0.64939000  0.58992300  0.13710400  1
  C  1182  1  0.65928700  0.60820200  0.13709900  1
  C  1183  1  0.64987700  0.62668500  0.13713500  1
  C  1185  1  0.62672300  0.64984700  0.13728800  1
  C  1186  1  0.64488700  0.65908900  0.13719500  1
  C  1187  1  0.65912700  0.64484500  0.13721000  1
  C  1188  1  0.60824100  0.65926300  0.13732300  1
  C  1189  1  0.58996000  0.64936500  0.13730300  1
  C  1191  1  0.56662600  0.62603500  0.13733100  1
  C  1192  1  0.55748700  0.64426500  0.13731000  1
  C  1193  1  0.57173200  0.65850500  0.13740500  1
  C  1194  1  0.55672400  0.60775500  0.13728700  1
  C  1195  1  0.56613900  0.58927300  0.13722100  1
  C  1197  1  0.58929500  0.56611500  0.13717600  1
  C  1198  1  0.57113400  0.55687000  0.13715000  1
  C  1199  1  0.55689300  0.57111100  0.13727800  1
  C  1200  1  0.60777600  0.55670000  0.13710100  1
  C  1201  1  0.60793200  0.53584300  0.13707400  1
  C  1202  1  0.60499200  0.52528500  0.15452000  1
  C  1203  1  0.60494500  0.50473700  0.15443500  1
  C  1204  1  0.60795400  0.49405000  0.13698500  1
  C  1205  1  0.61098100  0.50481400  0.11958200  1
  C  1206  1  0.61091000  0.52536300  0.11958500  1
  C  1207  1  0.60787500  0.47312400  0.13693100  1
  C  1208  1  0.62184200  0.46234500  0.12617500  1
  C  1209  1  0.62177600  0.44179300  0.12616400  1
  C  1210  1  0.60766500  0.43108800  0.13680800  1
  C  1211  1  0.59366500  0.44187300  0.14751500  1
  C  1212  1  0.59380000  0.46242100  0.14762000  1
  C  1213  1  0.53586500  0.60791200  0.13729900  1
  C  1214  1  0.52536900  0.61100500  0.15475900  1
  C  1215  1  0.50481800  0.61106400  0.15474800  1
  C  1216  1  0.49406700  0.60788800  0.13736600  1
  C  1217  1  0.50476900  0.60476500  0.11994400  1
  C  1218  1  0.52531700  0.60483500  0.11987000  1
  C  1219  1  0.47314100  0.60778500  0.13740800  1
  C  1220  1  0.46233900  0.62182000  0.14805100  1
  C  1221  1  0.44178700  0.62173200  0.14804900  1
  C  1222  1  0.43110000  0.60753200  0.13750200  1
  C  1223  1  0.44190900  0.59346200  0.12691100  1
  C  1224  1  0.46245900  0.59362200  0.12681400  1
  C  1225  1  0.60808400  0.68012100  0.13735000  1
  C  1226  1  0.60492500  0.69063900  0.11991600  1
  C  1227  1  0.60477800  0.71118700  0.11996900  1
  C  1228  1  0.60791200  0.72192100  0.13737100  1
  C  1229  1  0.61112600  0.71119700  0.15476400  1
  C  1230  1  0.61115500  0.69064800  0.15479500  1
  C  1231  1  0.60782500  0.74284800  0.13737700  1
  C  1232  1  0.62188000  0.75365500  0.14799200  1
  C  1233  1  0.62181700  0.77420700  0.14795000  1
  C  1234  1  0.60762000  0.78489100  0.13740000  1
  C  1235  1  0.59353600  0.77407900  0.12682900  1
  C  1236  1  0.59367100  0.75352800  0.12677100  1
  C  1237  1  0.68014500  0.60803700  0.13706900  1
  C  1238  1  0.69066700  0.61098000  0.11960100  1
  C  1239  1  0.69066100  0.60497800  0.15452100  1
  C  1240  1  0.71120900  0.60479800  0.15446200  1
  C  1241  1  0.72193800  0.60780600  0.13703700  1
  C  1242  1  0.71121600  0.61092900  0.11962600  1
  C  1243  1  0.74286600  0.60769100  0.13702300  1
  C  1244  1  0.75368200  0.62167100  0.12632100  1
  C  1245  1  0.77423500  0.62158300  0.12635300  1
  C  1246  1  0.78490300  0.60744500  0.13699600  1
  C  1247  1  0.77408200  0.59343600  0.14765500  1
  C  1248  1  0.75353100  0.59358900  0.14771200  1
  C  1291  1  0.60792000  0.15845300  0.10076900  1
  C  1292  1  0.60813500  0.14418600  0.08656370  1
  C  1293  1  0.60803000  0.12597100  0.09572970  1
  C  1295  1  0.60804900  0.14936900  0.11902500  1
  C  1296  1  0.60800600  0.15934400  0.13727700  1
  C  1297  1  0.60799900  0.14992800  0.15577200  1
  C  1299  1  0.60805300  0.12680500  0.17900000  1
  C  1300  1  0.60790700  0.14499800  0.18818700  1
  C  1301  1  0.60809100  0.15919900  0.17392200  1
  C  1302  1  0.60805000  0.10835100  0.18849900  1
  C  1303  1  0.60803400  0.09005650  0.17860200  1
  C  1305  1  0.60805600  0.06665550  0.15530400  1
  C  1306  1  0.60793200  0.05757350  0.17356100  1
  C  1307  1  0.60816100  0.07184050  0.18776500  1
  C  1308  1  0.60801700  0.05667750  0.13705200  1
  C  1309  1  0.60801200  0.06609650  0.11855700  1
  C  1311  1  0.60805900  0.08922250  0.09533070  1
  C  1312  1  0.60794400  0.07103250  0.08614070  1
  C  1313  1  0.60813900  0.05682950  0.10040600  1
  C  1314  1  0.60804400  0.10767500  0.08583470  1
  C  1315  1  0.60801100  0.10779000  0.06493770  1
  C  1316  1  0.62498600  0.10282500  0.05433170  1
  C  1317  1  0.62485400  0.10266000  0.03378470  1
  C  1318  1  0.60789100  0.10783200  0.02318870  1
  C  1319  1  0.59099200  0.11299800  0.03389170  1
  C  1320  1  0.59097900  0.11278800  0.05444070  1
  C  1321  1  0.60780900  0.10777700  0.00233674  1
  C  1322  1  0.60070700  0.12395300  0.99164900  1
  C  1323  1  0.60075100  0.12393500  0.97109500  1
  C  1324  1  0.60753700  0.10758600  0.96046200  1
  C  1325  1  0.61449400  0.09134850  0.97116000  1
  C  1326  1  0.61478900  0.09151050  0.99170700  1
  C  1327  1  0.60797100  0.03578050  0.13725100  1
  C  1328  1  0.62494200  0.02523050  0.14235100  1
  C  1329  1  0.62484700  0.00468246  0.14262600  1
  C  1330  1  0.60793500  0.99402600  0.13740700  1
  C  1331  1  0.59103400  0.00467146  0.13213100  1
  C  1332  1  0.59097900  0.02521950  0.13224600  1
  C  1333  1  0.60791600  0.97317500  0.13746800  1
  C  1334  1  0.61483300  0.96256400  0.15377300  1
  C  1335  1  0.61458200  0.94201600  0.15393500  1
  C  1336  1  0.60773600  0.93129700  0.13766300  1
  C  1337  1  0.60102800  0.94191300  0.12127000  1
  C  1338  1  0.60094500  0.96246600  0.12124700  1
  C  1339  1  0.60803300  0.10824200  0.20939700  1
  C  1340  1  0.59103000  0.10317700  0.21991300  1
  C  1341  1  0.59105800  0.10298400  0.24046200  1
  C  1342  1  0.60793800  0.10824400  0.25115100  1
  C  1343  1  0.62486600  0.11349700  0.24053900  1
  C  1344  1  0.62499000  0.11329700  0.21999200  1
  C  1345  1  0.60786900  0.10831800  0.27200200  1
  C  1346  1  0.61476400  0.12463300  0.28261300  1
  C  1347  1  0.61446800  0.12481500  0.30316100  1
  C  1348  1  0.60761200  0.10854700  0.31388000  1
  C  1349  1  0.60092300  0.09214750  0.30326200  1
  C  1350  1  0.60087900  0.09210550  0.28270900  1
  C  1351  1  0.60796600  0.18023900  0.13707400  1
  C  1352  1  0.59095400  0.19080400  0.14200300  1
  C  1353  1  0.62495700  0.19077900  0.13202300  1
  C  1354  1  0.62486300  0.21132600  0.13171600  1
  C  1355  1  0.60793200  0.22198900  0.13686200  1
  C  1356  1  0.59101100  0.21135200  0.14209300  1
  C  1357  1  0.60791400  0.24283900  0.13677600  1
  C  1358  1  0.60086800  0.25356600  0.15295300  1
  C  1359  1  0.60096200  0.27411700  0.15291100  1
  C  1360  1  0.60775000  0.28471300  0.13653800  1
  C  1361  1  0.61466800  0.27397800  0.12030700  1
  C  1362  1  0.61491900  0.25343000  0.12049600  1
  C  1405  1  0.07159050  0.60789700  0.18763200  1
  C  1406  1  0.05738650  0.60811300  0.17336600  1
  C  1407  1  0.06655050  0.60801400  0.15515000  1
  C  1409  1  0.08984650  0.60803100  0.17854800  1
  C  1410  1  0.10809900  0.60800500  0.18852200  1
  C  1411  1  0.12659400  0.60800500  0.17910600  1
  C  1413  1  0.14982100  0.60805700  0.15598200  1
  C  1414  1  0.15900900  0.60792200  0.17417400  1
  C  1415  1  0.14474400  0.60810400  0.18837600  1
  C  1416  1  0.15931900  0.60805300  0.13752800  1
  C  1417  1  0.14942100  0.60803400  0.11923200  1
  C  1419  1  0.12612300  0.60804900  0.09583170  1
  C  1420  1  0.14437900  0.60792600  0.08674970  1
  C  1421  1  0.15858300  0.60814500  0.10101500  1
  C  1422  1  0.10787000  0.60801800  0.08585670  1
  C  1423  1  0.08937550  0.60801800  0.09527370  1
  C  1425  1  0.06615050  0.60807100  0.11840100  1
  C  1426  1  0.05696050  0.60796000  0.10021000  1
  C  1427  1  0.07122350  0.60815500  0.08600870  1
  C  1428  1  0.05665450  0.60804400  0.13685500  1
  C  1429  1  0.03575850  0.60801200  0.13697000  1
  C  1430  1  0.02515350  0.62498900  0.13200800  1
  C  1431  1  0.00460546  0.62486000  0.13184300  1
  C  1432  1  0.99400700  0.60789500  0.13701400  1
  C  1433  1  0.00471046  0.59099900  0.14218700  1
  C  1434  1  0.02525850  0.59098000  0.14196600  1
  C  1435  1  0.97315700  0.60781500  0.13695700  1
  C  1436  1  0.96246700  0.60071700  0.15313600  1
  C  1437  1  0.94191500  0.60074900  0.15311300  1
  C  1438  1  0.93128200  0.60754100  0.13676400  1
  C  1439  1  0.94198000  0.61450500  0.12053100  1
  C  1440  1  0.96252700  0.61480500  0.12069400  1
  C  1441  1  0.10806800  0.60797100  0.06495870  1
  C  1442  1  0.11317000  0.62494100  0.05440670  1
  C  1443  1  0.11345000  0.62484400  0.03386070  1
  C  1444  1  0.10822700  0.60793000  0.02320570  1
  C  1445  1  0.10295100  0.59103100  0.03385170  1
  C  1446  1  0.10305900  0.59097900  0.05439970  1
  C  1447  1  0.10829000  0.60790900  0.00235474  1
  C  1448  1  0.12459700  0.61482400  0.99174500  1
  C  1449  1  0.12476100  0.61457500  0.97119800  1
  C  1450  1  0.10848800  0.60773100  0.96047700  1
  C  1451  1  0.09209850  0.60101800  0.97109300  1
  C  1452  1  0.09207350  0.60093200  0.99164600  1
  C  1453  1  0.18021800  0.60803300  0.13741700  1
  C  1454  1  0.19073100  0.59102800  0.13235500  1
  C  1455  1  0.21128000  0.59105600  0.13215300  1
  C  1456  1  0.22197100  0.60793200  0.13741800  1
  C  1457  1  0.21136100  0.62486500  0.14266700  1
  C  1458  1  0.19081400  0.62499000  0.14246700  1
  C  1459  1  0.24282200  0.60785900  0.13749700  1
  C  1460  1  0.25343200  0.61475000  0.15381400  1
  C  1461  1  0.27397800  0.61446200  0.15399500  1
  C  1462  1  0.28470000  0.60760500  0.13772900  1
  C  1463  1  0.27408300  0.60090700  0.12133200  1
  C  1464  1  0.25353100  0.60086000  0.12128900  1
  C  1465  1  0.10789700  0.60796400  0.20941800  1
  C  1466  1  0.11282900  0.59095400  0.21998300  1
  C  1467  1  0.10284100  0.62495400  0.21995800  1
  C  1468  1  0.10253900  0.62486200  0.24050500  1
  C  1469  1  0.10768500  0.60793000  0.25116800  1
  C  1470  1  0.11291600  0.59100900  0.24053100  1
  C  1471  1  0.10759900  0.60791300  0.27201900  1
  C  1472  1  0.12377500  0.60086600  0.28274600  1
  C  1473  1  0.12373300  0.60096100  0.30329700  1
  C  1474  1  0.10736000  0.60775000  0.31389300  1
  C  1475  1  0.09112750  0.61466200  0.30315800  1
  C  1476  1  0.09131750  0.61491600  0.28261000  1
  C  1519  1  0.15852700  0.07169750  0.63707300  1
  C  1520  1  0.14429100  0.05746350  0.63730300  1
  C  1521  1  0.12605500  0.06658850  0.63718600  1
  C  1523  1  0.14940400  0.08993450  0.63718800  1
  C  1524  1  0.15934100  0.10820700  0.63714700  1
  C  1525  1  0.14988700  0.12668200  0.63713700  1
  C  1527  1  0.12671500  0.14986000  0.63721400  1
  C  1528  1  0.14488700  0.15908700  0.63707300  1
  C  1529  1  0.15911900  0.14485200  0.63724300  1
  C  1530  1  0.10824100  0.15931800  0.63723200  1
  C  1531  1  0.08996650  0.14938100  0.63720500  1
  C  1533  1  0.06661550  0.12603300  0.63719900  1
  C  1534  1  0.05749450  0.14427000  0.63709400  1
  C  1535  1  0.07173050  0.15850500  0.63732600  1
  C  1536  1  0.05667550  0.10776000  0.63716400  1
  C  1537  1  0.06613150  0.08928550  0.63716700  1
  C  1539  1  0.08930750  0.06610950  0.63723500  1
  C  1540  1  0.07113750  0.05688050  0.63713100  1
  C  1541  1  0.05690350  0.07111350  0.63730300  1
  C  1542  1  0.10778100  0.05665450  0.63722700  1
  C  1543  1  0.10794200  0.03575750  0.63724900  1
  C  1544  1  0.10300600  0.02518550  0.65425500  1
  C  1545  1  0.10291700  0.00463746  0.65418900  1
  C  1546  1  0.10813800  0.99400700  0.63726100  1
  C  1547  1  0.11327400  0.00467746  0.62033100  1
  C  1548  1  0.11298000  0.02522350  0.62025100  1
  C  1549  1  0.10824200  0.97315700  0.63727200  1
  C  1550  1  0.12453400  0.96258300  0.63027100  1
  C  1551  1  0.12473700  0.94203400  0.63050400  1
  C  1552  1  0.10851800  0.93128200  0.63742300  1
  C  1553  1  0.09213850  0.94186100  0.64421900  1
  C  1554  1  0.09207750  0.96241300  0.64432200  1
  C  1555  1  0.03577750  0.10791700  0.63713400  1
  C  1556  1  0.02523050  0.11300700  0.65410900  1
  C  1557  1  0.00468246  0.11327600  0.65402100  1
  C  1558  1  0.99402300  0.10806200  0.63710900  1
  C  1559  1  0.00466546  0.10277600  0.62020800  1
  C  1560  1  0.02521350  0.10290300  0.62014600  1
  C  1561  1  0.97317200  0.10814300  0.63708900  1
  C  1562  1  0.96257800  0.12445700  0.64401300  1
  C  1563  1  0.94203000  0.12464400  0.64375600  1
  C  1564  1  0.93129400  0.10838400  0.63690800  1
  C  1565  1  0.94189300  0.09198450  0.63019100  1
  C  1566  1  0.96244700  0.09193450  0.63011600  1
  C  1567  1  0.10808600  0.18021600  0.63726500  1
  C  1568  1  0.10299000  0.19076500  0.62029300  1
  C  1569  1  0.10271400  0.21131200  0.62038500  1
  C  1570  1  0.10794500  0.22196900  0.63729400  1
  C  1571  1  0.11323000  0.21132600  0.65419300  1
  C  1572  1  0.11310700  0.19077800  0.65425300  1
  C  1573  1  0.10786800  0.24282000  0.63731500  1
  C  1574  1  0.12407900  0.25354300  0.64428400  1
  C  1575  1  0.12403300  0.27409500  0.64421000  1
  C  1576  1  0.10763400  0.28469900  0.63749600  1
  C  1577  1  0.09137050  0.27396500  0.63065800  1
  C  1578  1  0.09155250  0.25341700  0.63039900  1
  C  1579  1  0.18023700  0.10804500  0.63712100  1
  C  1580  1  0.19080500  0.11298000  0.62011200  1
  C  1581  1  0.19077400  0.10300500  0.65411600  1
  C  1582  1  0.21132100  0.10271400  0.65403200  1
  C  1583  1  0.22198700  0.10784400  0.63709700  1
  C  1584  1  0.21135300  0.11306600  0.62017200  1
  C  1585  1  0.24283600  0.10773800  0.63708000  1
  C  1586  1  0.25357900  0.12390200  0.63003200  1
  C  1587  1  0.27413100  0.12383800  0.63012500  1
  C  1588  1  0.28471000  0.10745800  0.63691900  1
  C  1589  1  0.27395800  0.09123750  0.64383600  1
  C  1590  1  0.25341100  0.09144450  0.64407900  1
  C  1633  1  0.10717500  0.60752800  0.33475200  1
  C  1634  1  0.12290300  0.61522200  0.34564300  1
  C  1635  1  0.12259100  0.61517000  0.36616800  1
  C  1636  1  0.10670200  0.60710500  0.37659100  1
  C  1637  1  0.09080550  0.59919700  0.36586600  1
  C  1638  1  0.09121550  0.59962600  0.34518100  1
  C  1640  1  0.10705600  0.60721700  0.39743500  1
  C  1641  1  0.10895800  0.62488700  0.40790900  1
  C  1642  1  0.10908000  0.62503000  0.42846100  1
  C  1643  1  0.10752000  0.60751800  0.43934200  1
  C  1644  1  0.10585300  0.58984200  0.42874900  1
  C  1645  1  0.10561300  0.58968300  0.40820400  1
  C  1655  1  0.10865700  0.60750000  0.93961500  1
  C  1656  1  0.09293150  0.61520500  0.92872800  1
  C  1657  1  0.09322450  0.61513500  0.90820300  1
  C  1658  1  0.10910000  0.60705700  0.89777000  1
  C  1659  1  0.12500000  0.59914800  0.90849100  1
  C  1660  1  0.12460500  0.59958700  0.92917600  1
  C  1662  1  0.10873400  0.60716500  0.87692200  1
  C  1663  1  0.10675900  0.62482700  0.86644600  1
  C  1664  1  0.10664300  0.62497000  0.84589200  1
  C  1665  1  0.10828700  0.60746800  0.83500900  1
  C  1666  1  0.11001800  0.58979900  0.84560400  1
  C  1667  1  0.11025200  0.58963900  0.86614900  1
  C  1677  1  0.30556800  0.10725000  0.63670600  1
  C  1678  1  0.31647100  0.12296600  0.64441000  1
  C  1679  1  0.33699400  0.12264000  0.64435600  1
  C  1680  1  0.34740500  0.10674300  0.63629200  1
  C  1681  1  0.33666800  0.09085350  0.62838300  1
  C  1682  1  0.31598300  0.09128250  0.62880600  1
  C  1684  1  0.36824900  0.10708300  0.63640300  1
  C  1685  1  0.37872400  0.10897300  0.65407200  1
  C  1686  1  0.39927700  0.10909900  0.65421200  1
  C  1687  1  0.41015500  0.10752900  0.63669900  1
  C  1688  1  0.39956000  0.10587000  0.61902400  1
  C  1689  1  0.37901500  0.10563200  0.61886800  1
  C  1699  1  0.91043000  0.10857500  0.63667600  1
  C  1700  1  0.89952800  0.09285950  0.64437800  1
  C  1701  1  0.87900300  0.09317650  0.64431200  1
  C  1702  1  0.86858600  0.10906500  0.63623800  1
  C  1703  1  0.87932200  0.12495400  0.62833000  1
  C  1704  1  0.90000900  0.12453300  0.62876200  1
  C  1706  1  0.84773700  0.10872100  0.63634700  1
  C  1707  1  0.83725800  0.10675300  0.65400800  1
  C  1708  1  0.81670500  0.10664100  0.65415100  1
  C  1709  1  0.80582100  0.10829700  0.63664900  1
  C  1710  1  0.81641900  0.11003700  0.61898100  1
  C  1711  1  0.83696600  0.11025100  0.61882200  1
  C  1721  1  0.60752900  0.30557200  0.13635300  1
  C  1722  1  0.61522400  0.31646200  0.15208200  1
  C  1723  1  0.61517100  0.33698500  0.15177100  1
  C  1724  1  0.60710600  0.34740800  0.13588200  1
  C  1725  1  0.59919900  0.33668600  0.11998500  1
  C  1726  1  0.59962800  0.31599900  0.12039300  1
  C  1728  1  0.60721900  0.36825200  0.13623800  1
  C  1729  1  0.62488800  0.37872600  0.13813700  1
  C  1730  1  0.62503100  0.39927800  0.13825900  1
  C  1731  1  0.60751900  0.41015800  0.13670300  1
  C  1732  1  0.58984200  0.39956400  0.13503600  1
  C  1733  1  0.58968300  0.37901900  0.13479600  1
  C  1743  1  0.60750200  0.91043300  0.13783200  1
  C  1744  1  0.61519600  0.89954500  0.12210200  1
  C  1745  1  0.61513200  0.87902000  0.12240100  1
  C  1746  1  0.60705500  0.86858700  0.13827900  1
  C  1747  1  0.59914800  0.87931100  0.15417900  1
  C  1748  1  0.59958800  0.89999600  0.15378100  1
  C  1750  1  0.60716500  0.84774000  0.13791600  1
  C  1751  1  0.62482700  0.83726300  0.13593900  1
  C  1752  1  0.62497100  0.81671000  0.13582300  1
  C  1753  1  0.60746900  0.80582400  0.13747200  1
  C  1754  1  0.58980000  0.81641900  0.13920500  1
  C  1755  1  0.58964100  0.83696600  0.13943800  1
  C  1765  1  0.60728400  0.10742400  0.93960300  1
  C  1766  1  0.61495100  0.12317000  0.92871800  1
  C  1767  1  0.61488200  0.12287400  0.90819500  1
  C  1768  1  0.60683900  0.10697800  0.89776600  1
  C  1769  1  0.59896200  0.09106250  0.90848300  1
  C  1770  1  0.59939800  0.09146050  0.92916900  1
  C  1772  1  0.60695700  0.10733500  0.87692000  1
  C  1773  1  0.62463100  0.10924700  0.86645500  1
  C  1774  1  0.62478400  0.10936400  0.84590400  1
  C  1775  1  0.60728300  0.10776000  0.83501300  1
  C  1776  1  0.58960200  0.10608500  0.84559800  1
  C  1777  1  0.58943200  0.10585700  0.86614400  1
  C  1787  1  0.60736400  0.10872600  0.33474200  1
  C  1788  1  0.61507100  0.09300850  0.34564000  1
  C  1789  1  0.61500500  0.09331950  0.36616500  1
  C  1790  1  0.60692700  0.10920300  0.37658600  1
  C  1791  1  0.59901200  0.12509300  0.36585400  1
  C  1792  1  0.59944400  0.12467800  0.34516900  1
  C  1794  1  0.60704600  0.10885700  0.39743500  1
  C  1795  1  0.62471400  0.10689000  0.40790300  1
  C  1796  1  0.62486800  0.10677000  0.42845500  1
  C  1797  1  0.60737000  0.10841600  0.43934800  1
  C  1798  1  0.58969800  0.11015600  0.42876200  1
  C  1799  1  0.58952700  0.11038000  0.40821700  1
  C  1809  1  0.10744900  0.30556200  0.63772500  1
  C  1810  1  0.12317300  0.31646000  0.63002900  1
  C  1811  1  0.12285900  0.33698400  0.63008700  1
  C  1812  1  0.10696900  0.34740600  0.63815400  1
  C  1813  1  0.09107550  0.33667400  0.64605800  1
  C  1814  1  0.09149150  0.31598900  0.64563100  1
  C  1816  1  0.10731700  0.36825400  0.63804100  1
  C  1817  1  0.10929300  0.37872900  0.62037900  1
  C  1818  1  0.10940000  0.39928300  0.62023200  1
  C  1819  1  0.10774600  0.41016800  0.63773300  1
  C  1820  1  0.10600700  0.39957300  0.65540300  1
  C  1821  1  0.10579000  0.37902800  0.65556500  1
  C  1831  1  0.10872400  0.91042300  0.63763400  1
  C  1832  1  0.09300450  0.89952000  0.62993800  1
  C  1833  1  0.09333350  0.87899700  0.62998500  1
  C  1834  1  0.10923300  0.86858600  0.63804400  1
  C  1835  1  0.12512300  0.87932100  0.64595000  1
  C  1836  1  0.12469800  0.90000800  0.64552300  1
  C  1838  1  0.10889200  0.84774200  0.63793300  1
  C  1839  1  0.10699400  0.83726500  0.62026400  1
  C  1840  1  0.10688400  0.81671200  0.62012100  1
  C  1841  1  0.10845200  0.80583300  0.63763400  1
  C  1842  1  0.11011300  0.81642900  0.65531000  1
  C  1843  1  0.11034900  0.83697500  0.65546700  1
  C  1853  1  0.30556200  0.60736200  0.13790800  1
  C  1854  1  0.31645900  0.61507200  0.12219100  1
  C  1855  1  0.33698200  0.61500400  0.12249900  1
  C  1856  1  0.34740600  0.60692700  0.13838200  1
  C  1857  1  0.33667600  0.59901200  0.15427300  1
  C  1858  1  0.31598900  0.59944100  0.15385900  1
  C  1860  1  0.36825400  0.60704600  0.13803300  1
  C  1861  1  0.37872200  0.62471400  0.13606700  1
  C  1862  1  0.39927400  0.62486800  0.13593900  1
  C  1863  1  0.41016800  0.60737200  0.13759000  1
  C  1864  1  0.39958200  0.58969600  0.13932400  1
  C  1865  1  0.37903500  0.58952700  0.13955500  1
  C  1875  1  0.91042300  0.60728400  0.13660300  1
  C  1876  1  0.89953600  0.61494800  0.15234900  1
  C  1877  1  0.87901200  0.61488100  0.15205100  1
  C  1878  1  0.86858400  0.60683900  0.13615300  1
  C  1879  1  0.87930500  0.59896200  0.12023700  1
  C  1880  1  0.89999000  0.59940100  0.12063700  1
  C  1882  1  0.84774000  0.60695700  0.13650800  1
  C  1883  1  0.83727500  0.62463100  0.13842300  1
  C  1884  1  0.81672300  0.62478400  0.13853200  1
  C  1885  1  0.80583300  0.60728300  0.13693100  1
  C  1886  1  0.81641800  0.58960300  0.13524700  1
  C  1887  1  0.83696300  0.58943100  0.13502700  1
  C  1897  1  0.21011800  0.76065800  0.73218800  1
  C  1898  1  0.21014000  0.74641300  0.71794500  1
  C  1899  1  0.21006600  0.72818800  0.72708800  1
  C  1901  1  0.21020200  0.75151800  0.75041600  1
  C  1902  1  0.21023700  0.76141500  0.76869700  1
  C  1903  1  0.21024100  0.75200400  0.78718000  1
  C  1905  1  0.21029300  0.72885000  0.81034100  1
  C  1906  1  0.21026700  0.74701400  0.81958400  1
  C  1907  1  0.21033700  0.76125400  0.80534000  1
  C  1908  1  0.21026100  0.71036900  0.81975700  1
  C  1909  1  0.21017800  0.69208800  0.80985800  1
  C  1911  1  0.21011400  0.66875400  0.78652800  1
  C  1912  1  0.21007300  0.65961600  0.80475800  1
  C  1913  1  0.21022300  0.67386000  0.81900000  1
  C  1914  1  0.21003100  0.65885200  0.76824900  1
  C  1915  1  0.20999400  0.66826700  0.74976700  1
  C  1917  1  0.21004800  0.69142300  0.72660800  1
  C  1918  1  0.20995500  0.67326200  0.71736300  1
  C  1919  1  0.21002800  0.65902000  0.73160400  1
  C  1920  1  0.21004200  0.70990500  0.71719400  1
  C  1921  1  0.21001700  0.71006100  0.69633800  1
  C  1922  1  0.22745900  0.70709700  0.68578100  1
  C  1923  1  0.22737600  0.70705700  0.66523300  1
  C  1924  1  0.20993000  0.71008600  0.65454300  1
  C  1925  1  0.19253300  0.71314700  0.66530700  1
  C  1926  1  0.19253300  0.71306500  0.68585700  1
  C  1927  1  0.20987700  0.71000600  0.63361700  1
  C  1928  1  0.19913400  0.72398100  0.62283500  1
  C  1929  1  0.19911900  0.72391100  0.60228300  1
  C  1930  1  0.20975600  0.70979300  0.59157900  1
  C  1931  1  0.22045600  0.69579000  0.60236500  1
  C  1932  1  0.22056000  0.69592700  0.62291400  1
  C  1933  1  0.21000300  0.63799300  0.76841100  1
  C  1934  1  0.22744000  0.62747400  0.77154500  1
  C  1935  1  0.22738400  0.60692600  0.77169800  1
  C  1936  1  0.20997700  0.59619500  0.76858900  1
  C  1937  1  0.19258000  0.60691900  0.76539600  1
  C  1938  1  0.19255200  0.62746800  0.76536600  1
  C  1939  1  0.20996800  0.57526900  0.76867900  1
  C  1940  1  0.22057600  0.56459100  0.78283300  1
  C  1941  1  0.22052100  0.54404200  0.78296700  1
  C  1942  1  0.20994400  0.53322800  0.76888900  1
  C  1943  1  0.19938400  0.54391000  0.75469600  1
  C  1944  1  0.19934700  0.56446300  0.75462900  1
  C  1945  1  0.21028800  0.71021000  0.84061600  1
  C  1946  1  0.19285000  0.70708100  0.85113400  1
  C  1947  1  0.19290400  0.70692800  0.87168300  1
  C  1948  1  0.21031000  0.71004000  0.88241400  1
  C  1949  1  0.22770600  0.71323800  0.87169200  1
  C  1950  1  0.22773800  0.71325500  0.85114300  1
  C  1951  1  0.21031700  0.70995200  0.90334100  1
  C  1952  1  0.22093600  0.72400300  0.91414500  1
  C  1953  1  0.22090300  0.72393600  0.93469900  1
  C  1954  1  0.21034200  0.70974600  0.94538300  1
  C  1955  1  0.19976100  0.69567000  0.93457000  1
  C  1956  1  0.19970100  0.69580400  0.91402100  1
  C  1957  1  0.21025700  0.78227100  0.76853600  1
  C  1958  1  0.19281200  0.79282400  0.77150200  1
  C  1959  1  0.22773700  0.79275700  0.76552800  1
  C  1960  1  0.22773200  0.81330800  0.76545000  1
  C  1961  1  0.21033300  0.82406600  0.76850700  1
  C  1962  1  0.19289100  0.81337200  0.77154500  1
  C  1963  1  0.21038000  0.84499400  0.76858600  1
  C  1964  1  0.19969700  0.85569400  0.78266800  1
  C  1965  1  0.19979600  0.87624200  0.78280600  1
  C  1966  1  0.21048500  0.88703200  0.76879600  1
  C  1967  1  0.22112100  0.87632900  0.75467600  1
  C  1968  1  0.22112200  0.85577700  0.75461300  1
  C  2011  1  0.67382100  0.20994400  0.81901600  1
  C  2012  1  0.65957700  0.21002200  0.80477200  1
  C  2013  1  0.66872000  0.21000100  0.78654600  1
  C  2015  1  0.69204900  0.21005100  0.80987700  1
  C  2016  1  0.71032800  0.21004200  0.81977500  1
  C  2017  1  0.72881200  0.21007600  0.81036300  1
  C  2019  1  0.75197200  0.21022500  0.78720900  1
  C  2020  1  0.76121600  0.21013200  0.80537200  1
  C  2021  1  0.74697200  0.21014400  0.81961300  1
  C  2022  1  0.76138800  0.21027000  0.76872700  1
  C  2023  1  0.75149000  0.21025900  0.75044500  1
  C  2025  1  0.72815800  0.21028300  0.72711200  1
  C  2026  1  0.74638800  0.21027000  0.71797300  1
  C  2027  1  0.76062900  0.21036400  0.73221700  1
  C  2028  1  0.70987900  0.21023300  0.71721100  1
  C  2029  1  0.69139700  0.21016200  0.72662600  1
  C  2031  1  0.66824000  0.21011800  0.74978300  1
  C  2032  1  0.65899300  0.21008600  0.73162100  1
  C  2033  1  0.67323400  0.21021700  0.71738100  1
  C  2034  1  0.65882600  0.21004400  0.76826500  1
  C  2035  1  0.63796800  0.21001700  0.76842100  1
  C  2036  1  0.62741000  0.22746400  0.76547800  1
  C  2037  1  0.60686300  0.22738000  0.76543900  1
  C  2038  1  0.59617500  0.20993000  0.76844600  1
  C  2039  1  0.60693800  0.19252900  0.77147700  1
  C  2040  1  0.62748700  0.19253000  0.77140400  1
  C  2041  1  0.57524900  0.20987600  0.76836400  1
  C  2042  1  0.56446900  0.19912900  0.78233500  1
  C  2043  1  0.54391600  0.19911500  0.78226400  1
  C  2044  1  0.53321300  0.20975800  0.76815000  1
  C  2045  1  0.54399900  0.22045600  0.75414500  1
  C  2046  1  0.56454700  0.22056300  0.75428500  1
  C  2047  1  0.71003400  0.21024600  0.69635100  1
  C  2048  1  0.71312500  0.22770700  0.68585700  1
  C  2049  1  0.71317500  0.22769900  0.66530600  1
  C  2050  1  0.71000900  0.21031500  0.65455300  1
  C  2051  1  0.70688200  0.19289400  0.66525500  1
  C  2052  1  0.70695700  0.19281800  0.68580300  1
  C  2053  1  0.70990700  0.21035800  0.63362700  1
  C  2054  1  0.72394100  0.22100500  0.62282800  1
  C  2055  1  0.72385600  0.22100300  0.60227400  1
  C  2056  1  0.70966000  0.21045300  0.59158600  1
  C  2057  1  0.69559300  0.19985600  0.60239400  1
  C  2058  1  0.69574200  0.19977000  0.62294300  1
  C  2059  1  0.78224700  0.21029800  0.76856800  1
  C  2060  1  0.79276600  0.19286600  0.76541000  1
  C  2061  1  0.81331400  0.19292000  0.76525800  1
  C  2062  1  0.82404600  0.21032200  0.76839600  1
  C  2063  1  0.81332200  0.22771400  0.77161500  1
  C  2064  1  0.79277100  0.22774300  0.77164100  1
  C  2065  1  0.84497300  0.21033000  0.76830900  1
  C  2066  1  0.85577800  0.22093900  0.78236900  1
  C  2067  1  0.87633200  0.22091000  0.78229700  1
  C  2068  1  0.88701600  0.21035500  0.76810300  1
  C  2069  1  0.87620400  0.19978900  0.75401500  1
  C  2070  1  0.85565400  0.19972700  0.75415200  1
  C  2071  1  0.71016400  0.21001600  0.84063100  1
  C  2072  1  0.71310500  0.19254800  0.85115400  1
  C  2073  1  0.70710600  0.22746800  0.85114600  1
  C  2074  1  0.70693800  0.22741200  0.87169500  1
  C  2075  1  0.70993400  0.20998500  0.88242600  1
  C  2076  1  0.71304400  0.19257300  0.87170400  1
  C  2077  1  0.70982100  0.20997500  0.90335200  1
  C  2078  1  0.72379900  0.19927400  0.91417000  1
  C  2079  1  0.72371400  0.19931000  0.93472200  1
  C  2080  1  0.70957300  0.20995200  0.94539000  1
  C  2081  1  0.69556500  0.22061100  0.93456600  1
  C  2082  1  0.69571800  0.22066600  0.91401700  1
  C  2125  1  0.76065700  0.67382200  0.26830000  1
  C  2126  1  0.74641100  0.65958000  0.26837700  1
  C  2127  1  0.72818600  0.66872300  0.26836400  1
  C  2129  1  0.75151800  0.69205100  0.26841000  1
  C  2130  1  0.76141500  0.71033000  0.26840500  1
  C  2131  1  0.75200500  0.72881300  0.26844100  1
  C  2133  1  0.72885100  0.75197500  0.26859400  1
  C  2134  1  0.74701500  0.76121700  0.26850100  1
  C  2135  1  0.76125500  0.74697300  0.26851600  1
  C  2136  1  0.71036900  0.76139100  0.26862900  1
  C  2137  1  0.69208800  0.75149300  0.26860900  1
  C  2139  1  0.66875400  0.72816300  0.26863700  1
  C  2140  1  0.65961500  0.74639300  0.26861600  1
  C  2141  1  0.67386000  0.76063300  0.26871100  1
  C  2142  1  0.65885200  0.70988300  0.26859300  1
  C  2143  1  0.66826700  0.69140100  0.26852700  1
  C  2145  1  0.69142300  0.66824300  0.26848200  1
  C  2146  1  0.67326200  0.65899800  0.26845600  1
  C  2147  1  0.65902100  0.67323900  0.26858400  1
  C  2148  1  0.70990400  0.65882800  0.26840700  1
  C  2149  1  0.71006000  0.63797100  0.26838000  1
  C  2150  1  0.70712000  0.62741300  0.28582600  1
  C  2151  1  0.70707300  0.60686500  0.28574100  1
  C  2152  1  0.71008200  0.59617800  0.26829100  1
  C  2153  1  0.71310900  0.60694200  0.25088800  1
  C  2154  1  0.71303800  0.62749100  0.25089100  1
  C  2155  1  0.71000300  0.57525200  0.26823700  1
  C  2156  1  0.72397000  0.56447300  0.25748100  1
  C  2157  1  0.72390400  0.54392100  0.25747000  1
  C  2158  1  0.70979300  0.53321600  0.26811400  1
  C  2159  1  0.69579300  0.54400100  0.27882100  1
  C  2160  1  0.69592800  0.56454900  0.27892600  1
  C  2161  1  0.63799300  0.71004000  0.26860500  1
  C  2162  1  0.62749700  0.71313300  0.28606500  1
  C  2163  1  0.60694600  0.71319200  0.28605400  1
  C  2164  1  0.59619500  0.71001600  0.26867200  1
  C  2165  1  0.60689700  0.70689300  0.25125000  1
  C  2166  1  0.62744500  0.70696300  0.25117600  1
  C  2167  1  0.57526900  0.70991300  0.26871400  1
  C  2168  1  0.56446700  0.72394800  0.27935700  1
  C  2169  1  0.54391500  0.72386000  0.27935500  1
  C  2170  1  0.53322800  0.70966000  0.26880800  1
  C  2171  1  0.54403700  0.69559000  0.25821700  1
  C  2172  1  0.56458700  0.69575000  0.25812000  1
  C  2173  1  0.71021200  0.78224900  0.26865600  1
  C  2174  1  0.70705300  0.79276700  0.25122200  1
  C  2175  1  0.70690600  0.81331500  0.25127500  1
  C  2176  1  0.71004000  0.82404900  0.26867700  1
  C  2177  1  0.71325400  0.81332500  0.28607000  1
  C  2178  1  0.71328300  0.79277600  0.28610100  1
  C  2179  1  0.70995300  0.84497600  0.26868300  1
  C  2180  1  0.72400800  0.85578300  0.27929800  1
  C  2181  1  0.72394500  0.87633500  0.27925600  1
  C  2182  1  0.70974800  0.88701900  0.26870600  1
  C  2183  1  0.69566400  0.87620700  0.25813500  1
  C  2184  1  0.69579900  0.85565600  0.25807700  1
  C  2185  1  0.78227300  0.71016500  0.26837500  1
  C  2186  1  0.79279500  0.71310800  0.25090700  1
  C  2187  1  0.79278900  0.70710600  0.28582700  1
  C  2188  1  0.81333700  0.70692600  0.28576800  1
  C  2189  1  0.82406600  0.70993400  0.26834300  1
  C  2190  1  0.81334400  0.71305700  0.25093200  1
  C  2191  1  0.84499400  0.70981900  0.26832900  1
  C  2192  1  0.85581000  0.72379900  0.25762700  1
  C  2193  1  0.87636300  0.72371100  0.25765900  1
  C  2194  1  0.88703100  0.70957300  0.26830200  1
  C  2195  1  0.87621000  0.69556400  0.27896100  1
  C  2196  1  0.85565900  0.69571700  0.27901800  1
  C  2239  1  0.71004800  0.26058100  0.23207500  1
  C  2240  1  0.71026300  0.24631400  0.21787000  1
  C  2241  1  0.71015800  0.22809900  0.22703600  1
  C  2243  1  0.71017700  0.25149700  0.25033100  1
  C  2244  1  0.71013400  0.26147200  0.26858300  1
  C  2245  1  0.71012700  0.25205600  0.28707800  1
  C  2247  1  0.71018100  0.22893300  0.31030600  1
  C  2248  1  0.71003500  0.24712600  0.31949300  1
  C  2249  1  0.71021900  0.26132700  0.30522800  1
  C  2250  1  0.71017800  0.21047900  0.31980500  1
  C  2251  1  0.71016200  0.19218400  0.30990800  1
  C  2253  1  0.71018400  0.16878300  0.28661000  1
  C  2254  1  0.71006000  0.15970100  0.30486700  1
  C  2255  1  0.71028900  0.17396800  0.31907100  1
  C  2256  1  0.71014500  0.15880500  0.26835800  1
  C  2257  1  0.71014000  0.16822400  0.24986300  1
  C  2259  1  0.71018700  0.19135000  0.22663700  1
  C  2260  1  0.71007200  0.17316000  0.21744700  1
  C  2261  1  0.71026700  0.15895700  0.23171200  1
  C  2262  1  0.71017200  0.20980300  0.21714100  1
  C  2263  1  0.71013900  0.20991800  0.19624400  1
  C  2264  1  0.72711400  0.20495300  0.18563800  1
  C  2265  1  0.72698200  0.20478800  0.16509100  1
  C  2266  1  0.71001900  0.20996000  0.15449500  1
  C  2267  1  0.69312000  0.21512600  0.16519800  1
  C  2268  1  0.69310700  0.21491600  0.18574700  1
  C  2269  1  0.70993700  0.20990500  0.13364300  1
  C  2270  1  0.70283500  0.22608100  0.12295500  1
  C  2271  1  0.70287900  0.22606300  0.10240100  1
  C  2272  1  0.70966500  0.20971400  0.09176850  1
  C  2273  1  0.71662200  0.19347600  0.10246600  1
  C  2274  1  0.71691700  0.19363800  0.12301300  1
  C  2275  1  0.71009900  0.13790800  0.26855700  1
  C  2276  1  0.72707000  0.12735800  0.27365700  1
  C  2277  1  0.72697500  0.10681000  0.27393200  1
  C  2278  1  0.71006300  0.09615390  0.26871300  1
  C  2279  1  0.69316200  0.10679900  0.26343700  1
  C  2280  1  0.69310700  0.12734700  0.26355200  1
  C  2281  1  0.71004400  0.07530290  0.26877400  1
  C  2282  1  0.71696100  0.06469190  0.28507900  1
  C  2283  1  0.71671000  0.04414390  0.28524100  1
  C  2284  1  0.70986400  0.03342490  0.26896900  1
  C  2285  1  0.70315600  0.04404090  0.25257600  1
  C  2286  1  0.70307300  0.06459390  0.25255300  1
  C  2287  1  0.71016100  0.21037000  0.34070300  1
  C  2288  1  0.69315800  0.20530500  0.35121900  1
  C  2289  1  0.69318600  0.20511200  0.37176800  1
  C  2290  1  0.71006600  0.21037200  0.38245700  1
  C  2291  1  0.72699400  0.21562500  0.37184500  1
  C  2292  1  0.72711800  0.21542500  0.35129800  1
  C  2293  1  0.70999700  0.21044600  0.40330800  1
  C  2294  1  0.71689200  0.22676100  0.41391900  1
  C  2295  1  0.71659600  0.22694300  0.43446700  1
  C  2296  1  0.70974000  0.21067500  0.44518600  1
  C  2297  1  0.70305100  0.19427500  0.43456800  1
  C  2298  1  0.70300700  0.19423300  0.41401500  1
  C  2299  1  0.71009400  0.28236700  0.26838000  1
  C  2300  1  0.69308200  0.29293200  0.27330900  1
  C  2301  1  0.72708500  0.29290700  0.26332900  1
  C  2302  1  0.72699100  0.31345400  0.26302200  1
  C  2303  1  0.71006000  0.32411700  0.26816800  1
  C  2304  1  0.69313900  0.31348000  0.27339900  1
  C  2305  1  0.71004200  0.34496700  0.26808200  1
  C  2306  1  0.70299600  0.35569400  0.28425900  1
  C  2307  1  0.70309000  0.37624500  0.28421700  1
  C  2308  1  0.70987800  0.38684100  0.26784400  1
  C  2309  1  0.71679600  0.37610600  0.25161300  1
  C  2310  1  0.71704700  0.35555800  0.25180200  1
  C  2353  1  0.17371800  0.71002500  0.31893800  1
  C  2354  1  0.15951400  0.71024100  0.30467200  1
  C  2355  1  0.16867800  0.71014200  0.28645600  1
  C  2357  1  0.19197400  0.71015900  0.30985400  1
  C  2358  1  0.21022700  0.71013300  0.31982800  1
  C  2359  1  0.22872200  0.71013300  0.31041200  1
  C  2361  1  0.25194900  0.71018500  0.28728800  1
  C  2362  1  0.26113700  0.71005000  0.30548000  1
  C  2363  1  0.24687200  0.71023200  0.31968200  1
  C  2364  1  0.26144700  0.71018100  0.26883400  1
  C  2365  1  0.25154900  0.71016200  0.25053800  1
  C  2367  1  0.22825100  0.71017700  0.22713800  1
  C  2368  1  0.24650700  0.71005400  0.21805600  1
  C  2369  1  0.26071100  0.71027300  0.23232100  1
  C  2370  1  0.20999800  0.71014600  0.21716300  1
  C  2371  1  0.19150300  0.71014600  0.22658000  1
  C  2373  1  0.16827800  0.71019900  0.24970700  1
  C  2374  1  0.15908800  0.71008800  0.23151600  1
  C  2375  1  0.17335100  0.71028300  0.21731500  1
  C  2376  1  0.15878200  0.71017200  0.26816100  1
  C  2377  1  0.13788600  0.71014000  0.26827600  1
  C  2378  1  0.12728100  0.72711700  0.26331400  1
  C  2379  1  0.10673300  0.72698800  0.26314900  1
  C  2380  1  0.09613490  0.71002300  0.26832000  1
  C  2381  1  0.10683800  0.69312700  0.27349300  1
  C  2382  1  0.12738600  0.69310800  0.27327200  1
  C  2383  1  0.07528490  0.70994300  0.26826300  1
  C  2384  1  0.06459490  0.70284500  0.28444200  1
  C  2385  1  0.04404290  0.70287700  0.28441900  1
  C  2386  1  0.03340990  0.70966900  0.26807000  1
  C  2387  1  0.04410790  0.71663300  0.25183700  1
  C  2388  1  0.06465490  0.71693300  0.25200000  1
  C  2389  1  0.21019600  0.71009900  0.19626500  1
  C  2390  1  0.21529800  0.72706900  0.18571300  1
  C  2391  1  0.21557800  0.72697200  0.16516700  1
  C  2392  1  0.21035500  0.71005800  0.15451200  1
  C  2393  1  0.20507900  0.69315900  0.16515800  1
  C  2394  1  0.20518700  0.69310700  0.18570600  1
  C  2395  1  0.21041800  0.71003700  0.13366100  1
  C  2396  1  0.22672500  0.71695200  0.12305100  1
  C  2397  1  0.22688900  0.71670300  0.10250400  1
  C  2398  1  0.21061600  0.70985900  0.09178350  1
  C  2399  1  0.19422600  0.70314600  0.10239900  1
  C  2400  1  0.19420100  0.70306000  0.12295200  1
  C  2401  1  0.28234600  0.71016100  0.26872300  1
  C  2402  1  0.29285900  0.69315600  0.26366100  1
  C  2403  1  0.31340800  0.69318400  0.26345900  1
  C  2404  1  0.32409900  0.71006000  0.26872400  1
  C  2405  1  0.31348900  0.72699300  0.27397300  1
  C  2406  1  0.29294200  0.72711800  0.27377300  1
  C  2407  1  0.34495000  0.70998700  0.26880300  1
  C  2408  1  0.35556000  0.71687800  0.28512000  1
  C  2409  1  0.37610600  0.71659000  0.28530100  1
  C  2410  1  0.38682800  0.70973300  0.26903500  1
  C  2411  1  0.37621100  0.70303500  0.25263800  1
  C  2412  1  0.35565900  0.70298800  0.25259500  1
  C  2413  1  0.21002500  0.71009200  0.34072400  1
  C  2414  1  0.21495700  0.69308200  0.35128900  1
  C  2415  1  0.20496900  0.72708200  0.35126400  1
  C  2416  1  0.20466700  0.72699000  0.37181100  1
  C  2417  1  0.20981300  0.71005800  0.38247400  1
  C  2418  1  0.21504400  0.69313700  0.37183700  1
  C  2419  1  0.20972700  0.71004100  0.40332500  1
  C  2420  1  0.22590300  0.70299400  0.41405200  1
  C  2421  1  0.22586100  0.70308900  0.43460300  1
  C  2422  1  0.20948800  0.70987800  0.44519900  1
  C  2423  1  0.19325500  0.71679000  0.43446400  1
  C  2424  1  0.19344500  0.71704400  0.41391600  1
  C  2467  1  0.26065500  0.17382500  0.76837900  1
  C  2468  1  0.24641900  0.15959100  0.76860900  1
  C  2469  1  0.22818300  0.16871600  0.76849200  1
  C  2471  1  0.25153200  0.19206200  0.76849400  1
  C  2472  1  0.26146900  0.21033500  0.76845300  1
  C  2473  1  0.25201500  0.22881000  0.76844300  1
  C  2475  1  0.22884300  0.25198800  0.76852000  1
  C  2476  1  0.24701500  0.26121500  0.76837900  1
  C  2477  1  0.26124700  0.24698000  0.76854900  1
  C  2478  1  0.21036900  0.26144600  0.76853800  1
  C  2479  1  0.19209400  0.25150900  0.76851100  1
  C  2481  1  0.16874300  0.22816100  0.76850500  1
  C  2482  1  0.15962200  0.24639800  0.76840000  1
  C  2483  1  0.17385800  0.26063300  0.76863200  1
  C  2484  1  0.15880300  0.20988800  0.76847000  1
  C  2485  1  0.16825900  0.19141300  0.76847300  1
  C  2487  1  0.19143500  0.16823700  0.76854100  1
  C  2488  1  0.17326500  0.15900800  0.76843700  1
  C  2489  1  0.15903100  0.17324100  0.76860900  1
  C  2490  1  0.20990900  0.15878200  0.76853300  1
  C  2491  1  0.21007000  0.13788500  0.76855500  1
  C  2492  1  0.20513400  0.12731300  0.78556100  1
  C  2493  1  0.20504500  0.10676500  0.78549500  1
  C  2494  1  0.21026600  0.09613490  0.76856700  1
  C  2495  1  0.21540200  0.10680500  0.75163700  1
  C  2496  1  0.21510800  0.12735100  0.75155700  1
  C  2497  1  0.21037000  0.07528490  0.76857800  1
  C  2498  1  0.22666200  0.06471090  0.76157700  1
  C  2499  1  0.22686500  0.04416190  0.76181000  1
  C  2500  1  0.21064600  0.03340990  0.76872900  1
  C  2501  1  0.19426600  0.04398890  0.77552500  1
  C  2502  1  0.19420500  0.06454090  0.77562800  1
  C  2503  1  0.13790500  0.21004500  0.76844000  1
  C  2504  1  0.12735800  0.21513500  0.78541500  1
  C  2505  1  0.10681000  0.21540400  0.78532700  1
  C  2506  1  0.09615090  0.21019000  0.76841500  1
  C  2507  1  0.10679300  0.20490400  0.75151400  1
  C  2508  1  0.12734100  0.20503100  0.75145200  1
  C  2509  1  0.07529990  0.21027100  0.76839500  1
  C  2510  1  0.06470590  0.22658500  0.77531900  1
  C  2511  1  0.04415790  0.22677200  0.77506200  1
  C  2512  1  0.03342190  0.21051200  0.76821400  1
  C  2513  1  0.04402090  0.19411200  0.76149700  1
  C  2514  1  0.06457490  0.19406200  0.76142200  1
  C  2515  1  0.21021400  0.28234400  0.76857100  1
  C  2516  1  0.20511800  0.29289300  0.75159900  1
  C  2517  1  0.20484200  0.31344000  0.75169100  1
  C  2518  1  0.21007300  0.32409700  0.76860000  1
  C  2519  1  0.21535800  0.31345400  0.78549900  1
  C  2520  1  0.21523500  0.29290600  0.78555900  1
  C  2521  1  0.20999600  0.34494800  0.76862100  1
  C  2522  1  0.22620700  0.35567100  0.77559000  1
  C  2523  1  0.22616100  0.37622300  0.77551600  1
  C  2524  1  0.20976200  0.38682700  0.76880200  1
  C  2525  1  0.19349800  0.37609300  0.76196400  1
  C  2526  1  0.19368000  0.35554500  0.76170500  1
  C  2527  1  0.28236500  0.21017300  0.76842700  1
  C  2528  1  0.29293300  0.21510800  0.75141800  1
  C  2529  1  0.29290200  0.20513300  0.78542200  1
  C  2530  1  0.31344900  0.20484200  0.78533800  1
  C  2531  1  0.32411500  0.20997200  0.76840300  1
  C  2532  1  0.31348100  0.21519400  0.75147800  1
  C  2533  1  0.34496400  0.20986600  0.76838600  1
  C  2534  1  0.35570700  0.22603000  0.76133800  1
  C  2535  1  0.37625900  0.22596600  0.76143100  1
  C  2536  1  0.38683800  0.20958600  0.76822500  1
  C  2537  1  0.37608600  0.19336500  0.77514200  1
  C  2538  1  0.35553900  0.19357200  0.77538500  1
  C  2581  1  0.20930300  0.70965600  0.46605800  1
  C  2582  1  0.22503100  0.71735000  0.47694900  1
  C  2583  1  0.22471900  0.71729800  0.49747400  1
  C  2584  1  0.20883000  0.70923300  0.50789700  1
  C  2585  1  0.19293300  0.70132500  0.49717200  1
  C  2586  1  0.19334300  0.70175400  0.47648700  1
  C  2588  1  0.20918400  0.70934500  0.52874100  1
  C  2589  1  0.21108600  0.72701500  0.53921500  1
  C  2590  1  0.21120800  0.72715800  0.55976700  1
  C  2591  1  0.20964800  0.70964600  0.57064800  1
  C  2592  1  0.20798100  0.69197000  0.56005500  1
  C  2593  1  0.20774100  0.69181100  0.53951000  1
  C  2603  1  0.21078500  0.70962800  0.07092150  1
  C  2604  1  0.19505900  0.71733300  0.06003450  1
  C  2605  1  0.19535200  0.71726300  0.03950950  1
  C  2606  1  0.21122800  0.70918500  0.02907650  1
  C  2607  1  0.22712800  0.70127600  0.03979750  1
  C  2608  1  0.22673300  0.70171500  0.06048250  1
  C  2610  1  0.21086200  0.70929300  0.00822847  1
  C  2611  1  0.20888700  0.72695500  0.99775200  1
  C  2612  1  0.20877100  0.72709800  0.97719800  1
  C  2613  1  0.21041500  0.70959600  0.96631500  1
  C  2614  1  0.21214600  0.69192700  0.97691000  1
  C  2615  1  0.21238000  0.69176700  0.99745500  1
  C  2625  1  0.40769600  0.20937800  0.76801200  1
  C  2626  1  0.41859900  0.22509400  0.77571600  1
  C  2627  1  0.43912200  0.22476800  0.77566200  1
  C  2628  1  0.44953300  0.20887100  0.76759800  1
  C  2629  1  0.43879600  0.19298100  0.75968900  1
  C  2630  1  0.41811100  0.19341000  0.76011200  1
  C  2632  1  0.47037700  0.20921100  0.76770900  1
  C  2633  1  0.48085200  0.21110100  0.78537800  1
  C  2634  1  0.50140500  0.21122700  0.78551800  1
  C  2635  1  0.51228300  0.20965700  0.76800500  1
  C  2636  1  0.50168800  0.20799800  0.75033000  1
  C  2637  1  0.48114300  0.20776000  0.75017400  1
  C  2647  1  0.01255790  0.21070300  0.76798200  1
  C  2648  1  0.00165592  0.19498700  0.77568400  1
  C  2649  1  0.98113100  0.19530400  0.77561800  1
  C  2650  1  0.97071400  0.21119300  0.76754400  1
  C  2651  1  0.98145000  0.22708200  0.75963600  1
  C  2652  1  0.00213692  0.22666100  0.76006800  1
  C  2654  1  0.94986500  0.21084900  0.76765300  1
  C  2655  1  0.93938600  0.20888100  0.78531400  1
  C  2656  1  0.91883300  0.20876900  0.78545700  1
  C  2657  1  0.90794900  0.21042500  0.76795500  1
  C  2658  1  0.91854700  0.21216500  0.75028700  1
  C  2659  1  0.93909400  0.21237900  0.75012800  1
  C  2669  1  0.70965700  0.40770000  0.26765900  1
  C  2670  1  0.71735200  0.41859000  0.28338800  1
  C  2671  1  0.71729900  0.43911300  0.28307700  1
  C  2672  1  0.70923400  0.44953600  0.26718800  1
  C  2673  1  0.70132700  0.43881400  0.25129100  1
  C  2674  1  0.70175600  0.41812700  0.25169900  1
  C  2676  1  0.70934700  0.47038000  0.26754400  1
  C  2677  1  0.72701600  0.48085400  0.26944300  1
  C  2678  1  0.72715900  0.50140600  0.26956500  1
  C  2679  1  0.70964700  0.51228600  0.26800900  1
  C  2680  1  0.69197000  0.50169200  0.26634200  1
  C  2681  1  0.69181100  0.48114700  0.26610200  1
  C  2691  1  0.70963000  0.01256090  0.26913800  1
  C  2692  1  0.71732400  0.00167292  0.25340800  1
  C  2693  1  0.71726000  0.98114800  0.25370700  1
  C  2694  1  0.70918300  0.97071500  0.26958500  1
  C  2695  1  0.70127600  0.98143900  0.28548500  1
  C  2696  1  0.70171600  0.00212392  0.28508700  1
  C  2698  1  0.70929300  0.94986800  0.26922200  1
  C  2699  1  0.72695500  0.93939100  0.26724500  1
  C  2700  1  0.72709900  0.91883800  0.26712900  1
  C  2701  1  0.70959700  0.90795200  0.26877800  1
  C  2702  1  0.69192800  0.91854700  0.27051100  1
  C  2703  1  0.69176900  0.93909400  0.27074400  1
  C  2713  1  0.70941200  0.20955200  0.07090950  1
  C  2714  1  0.71707900  0.22529800  0.06002450  1
  C  2715  1  0.71701000  0.22500200  0.03950150  1
  C  2716  1  0.70896700  0.20910600  0.02907250  1
  C  2717  1  0.70109000  0.19319000  0.03978950  1
  C  2718  1  0.70152600  0.19358800  0.06047550  1
  C  2720  1  0.70908500  0.20946300  0.00822647  1
  C  2721  1  0.72675900  0.21137500  0.99776100  1
  C  2722  1  0.72691200  0.21149200  0.97721000  1
  C  2723  1  0.70941100  0.20988800  0.96631900  1
  C  2724  1  0.69173000  0.20821300  0.97690400  1
  C  2725  1  0.69156000  0.20798500  0.99745000  1
  C  2735  1  0.70949200  0.21085400  0.46604800  1
  C  2736  1  0.71719900  0.19513600  0.47694600  1
  C  2737  1  0.71713300  0.19544700  0.49747100  1
  C  2738  1  0.70905500  0.21133100  0.50789200  1
  C  2739  1  0.70114000  0.22722100  0.49716000  1
  C  2740  1  0.70157200  0.22680600  0.47647500  1
  C  2742  1  0.70917400  0.21098500  0.52874100  1
  C  2743  1  0.72684200  0.20901800  0.53920900  1
  C  2744  1  0.72699600  0.20889800  0.55976100  1
  C  2745  1  0.70949800  0.21054400  0.57065400  1
  C  2746  1  0.69182600  0.21228400  0.56006800  1
  C  2747  1  0.69165500  0.21250800  0.53952300  1
  C  2757  1  0.20957700  0.40769000  0.76903100  1
  C  2758  1  0.22530100  0.41858800  0.76133500  1
  C  2759  1  0.22498700  0.43911200  0.76139300  1
  C  2760  1  0.20909700  0.44953400  0.76946000  1
  C  2761  1  0.19320300  0.43880200  0.77736400  1
  C  2762  1  0.19361900  0.41811700  0.77693700  1
  C  2764  1  0.20944500  0.47038200  0.76934700  1
  C  2765  1  0.21142100  0.48085700  0.75168500  1
  C  2766  1  0.21152800  0.50141100  0.75153800  1
  C  2767  1  0.20987400  0.51229600  0.76903900  1
  C  2768  1  0.20813500  0.50170100  0.78670900  1
  C  2769  1  0.20791800  0.48115600  0.78687100  1
  C  2779  1  0.21085200  0.01255090  0.76894000  1
  C  2780  1  0.19513200  0.00164792  0.76124400  1
  C  2781  1  0.19546100  0.98112500  0.76129100  1
  C  2782  1  0.21136100  0.97071400  0.76935000  1
  C  2783  1  0.22725100  0.98144900  0.77725600  1
  C  2784  1  0.22682600  0.00213592  0.77682900  1
  C  2786  1  0.21102000  0.94987000  0.76923900  1
  C  2787  1  0.20912200  0.93939300  0.75157000  1
  C  2788  1  0.20901200  0.91884000  0.75142700  1
  C  2789  1  0.21058000  0.90796100  0.76894000  1
  C  2790  1  0.21224100  0.91855700  0.78661600  1
  C  2791  1  0.21247700  0.93910300  0.78677300  1
  C  2801  1  0.40769000  0.70949000  0.26921400  1
  C  2802  1  0.41858700  0.71720000  0.25349700  1
  C  2803  1  0.43911000  0.71713200  0.25380500  1
  C  2804  1  0.44953400  0.70905500  0.26968800  1
  C  2805  1  0.43880400  0.70114000  0.28557900  1
  C  2806  1  0.41811700  0.70156900  0.28516500  1
  C  2808  1  0.47038200  0.70917400  0.26933900  1
  C  2809  1  0.48085000  0.72684200  0.26737300  1
  C  2810  1  0.50140200  0.72699600  0.26724500  1
  C  2811  1  0.51229600  0.70950000  0.26889600  1
  C  2812  1  0.50171000  0.69182400  0.27063000  1
  C  2813  1  0.48116300  0.69165500  0.27086100  1
  C  2823  1  0.01255090  0.70941200  0.26790900  1
  C  2824  1  0.00166392  0.71707600  0.28365500  1
  C  2825  1  0.98114000  0.71700900  0.28335700  1
  C  2826  1  0.97071200  0.70896700  0.26745900  1
  C  2827  1  0.98143300  0.70109000  0.25154300  1
  C  2828  1  0.00211792  0.70152900  0.25194300  1
  C  2830  1  0.94986800  0.70908500  0.26781400  1
  C  2831  1  0.93940300  0.72675900  0.26972900  1
  C  2832  1  0.91885100  0.72691200  0.26983800  1
  C  2833  1  0.90796100  0.70941100  0.26823700  1
  C  2834  1  0.91854600  0.69173100  0.26655300  1
  C  2835  1  0.93909100  0.69155900  0.26633300  1
  C  2845  1  0.31224500  0.86278500  0.86349500  1
  C  2846  1  0.31226700  0.84854000  0.84925200  1
  C  2847  1  0.31219300  0.83031500  0.85839500  1
  C  2849  1  0.31232900  0.85364500  0.88172300  1
  C  2850  1  0.31236400  0.86354200  0.90000400  1
  C  2851  1  0.31236800  0.85413100  0.91848700  1
  C  2853  1  0.31242000  0.83097700  0.94164800  1
  C  2854  1  0.31239400  0.84914100  0.95089100  1
  C  2855  1  0.31246400  0.86338100  0.93664700  1
  C  2856  1  0.31238800  0.81249600  0.95106400  1
  C  2857  1  0.31230500  0.79421500  0.94116500  1
  C  2859  1  0.31224100  0.77088100  0.91783500  1
  C  2860  1  0.31220000  0.76174300  0.93606500  1
  C  2861  1  0.31235000  0.77598700  0.95030700  1
  C  2862  1  0.31215800  0.76097900  0.89955600  1
  C  2863  1  0.31212100  0.77039400  0.88107400  1
  C  2865  1  0.31217500  0.79355000  0.85791500  1
  C  2866  1  0.31208200  0.77538900  0.84867000  1
  C  2867  1  0.31215500  0.76114700  0.86291100  1
  C  2868  1  0.31216900  0.81203200  0.84850100  1
  C  2869  1  0.31214400  0.81218800  0.82764500  1
  C  2870  1  0.32958600  0.80922400  0.81708800  1
  C  2871  1  0.32950300  0.80918400  0.79654000  1
  C  2872  1  0.31205700  0.81221300  0.78585000  1
  C  2873  1  0.29466000  0.81527400  0.79661400  1
  C  2874  1  0.29466000  0.81519200  0.81716400  1
  C  2875  1  0.31200400  0.81213300  0.76492400  1
  C  2876  1  0.30126100  0.82610800  0.75414200  1
  C  2877  1  0.30124600  0.82603800  0.73359000  1
  C  2878  1  0.31188300  0.81192000  0.72288600  1
  C  2879  1  0.32258300  0.79791700  0.73367200  1
  C  2880  1  0.32268700  0.79805400  0.75422100  1
  C  2881  1  0.31213000  0.74012000  0.89971800  1
  C  2882  1  0.32956700  0.72960100  0.90285200  1
  C  2883  1  0.32951100  0.70905300  0.90300500  1
  C  2884  1  0.31210400  0.69832200  0.89989600  1
  C  2885  1  0.29470700  0.70904600  0.89670300  1
  C  2886  1  0.29467900  0.72959500  0.89667300  1
  C  2887  1  0.31209500  0.67739600  0.89998600  1
  C  2888  1  0.32270300  0.66666667  0.91414000  1
  C  2889  1  0.32264800  0.64616900  0.91427400  1
  C  2890  1  0.31207100  0.63535500  0.90019600  1
  C  2891  1  0.30151100  0.64603700  0.88600300  1
  C  2892  1  0.30147400  0.66659000  0.88593600  1
  C  2893  1  0.31241500  0.81233700  0.97192300  1
  C  2894  1  0.29497700  0.80920800  0.98244100  1
  C  2895  1  0.29503100  0.80905500  0.00299021  1
  C  2896  1  0.31243700  0.81216700  0.01372120  1
  C  2897  1  0.32983300  0.81536500  0.00299921  1
  C  2898  1  0.32986500  0.81538200  0.98245000  1
  C  2899  1  0.31244400  0.81207900  0.03464820  1
  C  2900  1  0.32306300  0.82613000  0.04545220  1
  C  2901  1  0.32303000  0.82606300  0.06600620  1
  C  2902  1  0.31246900  0.81187300  0.07669020  1
  C  2903  1  0.30188800  0.79779700  0.06587720  1
  C  2904  1  0.30182800  0.79793100  0.04532820  1
  C  2905  1  0.31238400  0.88439800  0.89984300  1
  C  2906  1  0.29493900  0.89495100  0.90280900  1
  C  2907  1  0.32986400  0.89488400  0.89683500  1
  C  2908  1  0.32985900  0.91543500  0.89675700  1
  C  2909  1  0.31246000  0.92619300  0.89981400  1
  C  2910  1  0.29501800  0.91549900  0.90285200  1
  C  2911  1  0.31250700  0.94712100  0.89989300  1
  C  2912  1  0.30182400  0.95782100  0.91397500  1
  C  2913  1  0.30192300  0.97836900  0.91411300  1
  C  2914  1  0.31261200  0.98915900  0.90010300  1
  C  2915  1  0.32324800  0.97845600  0.88598300  1
  C  2916  1  0.32324900  0.95790400  0.88592000  1
  C  2959  1  0.77594800  0.31207100  0.95032300  1
  C  2960  1  0.76170400  0.31214900  0.93607900  1
  C  2961  1  0.77084700  0.31212800  0.91785300  1
  C  2963  1  0.79417600  0.31217800  0.94118400  1
  C  2964  1  0.81245500  0.31216900  0.95108200  1
  C  2965  1  0.83093900  0.31220300  0.94167000  1
  C  2967  1  0.85409900  0.31235200  0.91851600  1
  C  2968  1  0.86334300  0.31225900  0.93667900  1
  C  2969  1  0.84909900  0.31227100  0.95092000  1
  C  2970  1  0.86351500  0.31239700  0.90003400  1
  C  2971  1  0.85361700  0.31238600  0.88175200  1
  C  2973  1  0.83028500  0.31241000  0.85841900  1
  C  2974  1  0.84851500  0.31239700  0.84928000  1
  C  2975  1  0.86275600  0.31249100  0.86352400  1
  C  2976  1  0.81200600  0.31236000  0.84851800  1
  C  2977  1  0.79352400  0.31228900  0.85793300  1
  C  2979  1  0.77036700  0.31224500  0.88109000  1
  C  2980  1  0.76112000  0.31221300  0.86292800  1
  C  2981  1  0.77536100  0.31234400  0.84868800  1
  C  2982  1  0.76095300  0.31217100  0.89957200  1
  C  2983  1  0.74009500  0.31214400  0.89972800  1
  C  2984  1  0.72953700  0.32959100  0.89678500  1
  C  2985  1  0.70899000  0.32950700  0.89674600  1
  C  2986  1  0.69830200  0.31205700  0.89975300  1
  C  2987  1  0.70906500  0.29465600  0.90278400  1
  C  2988  1  0.72961400  0.29465700  0.90271100  1
  C  2989  1  0.67737600  0.31200300  0.89967100  1
  C  2990  1  0.66659600  0.30125600  0.91364200  1
  C  2991  1  0.64604300  0.30124200  0.91357100  1
  C  2992  1  0.63534000  0.31188500  0.89945700  1
  C  2993  1  0.64612600  0.32258300  0.88545200  1
  C  2994  1  0.66666667  0.32269000  0.88559200  1
  C  2995  1  0.81216100  0.31237300  0.82765800  1
  C  2996  1  0.81525200  0.32983400  0.81716400  1
  C  2997  1  0.81530200  0.32982600  0.79661300  1
  C  2998  1  0.81213600  0.31244200  0.78586000  1
  C  2999  1  0.80900900  0.29502100  0.79656200  1
  C  3000  1  0.80908400  0.29494500  0.81711000  1
  C  3001  1  0.81203400  0.31248500  0.76493400  1
  C  3002  1  0.82606800  0.32313200  0.75413500  1
  C  3003  1  0.82598300  0.32313000  0.73358100  1
  C  3004  1  0.81178700  0.31258000  0.72289300  1
  C  3005  1  0.79772000  0.30198300  0.73370100  1
  C  3006  1  0.79786900  0.30189700  0.75425000  1
  C  3007  1  0.88437400  0.31242500  0.89987500  1
  C  3008  1  0.89489300  0.29499300  0.89671700  1
  C  3009  1  0.91544100  0.29504700  0.89656500  1
  C  3010  1  0.92617300  0.31244900  0.89970300  1
  C  3011  1  0.91544900  0.32984100  0.90292200  1
  C  3012  1  0.89489800  0.32987000  0.90294800  1
  C  3013  1  0.94710000  0.31245700  0.89961600  1
  C  3014  1  0.95790500  0.32306600  0.91367600  1
  C  3015  1  0.97845900  0.32303700  0.91360400  1
  C  3016  1  0.98914300  0.31248200  0.89941000  1
  C  3017  1  0.97833100  0.30191600  0.88532200  1
  C  3018  1  0.95778100  0.30185400  0.88545900  1
  C  3019  1  0.81229100  0.31214300  0.97193800  1
  C  3020  1  0.81523200  0.29467500  0.98246100  1
  C  3021  1  0.80923300  0.32959500  0.98245300  1
  C  3022  1  0.80906500  0.32953900  0.00300221  1
  C  3023  1  0.81206100  0.31211200  0.01373320  1
  C  3024  1  0.81517100  0.29470000  0.00301121  1
  C  3025  1  0.81194800  0.31210200  0.03465920  1
  C  3026  1  0.82592600  0.30140100  0.04547720  1
  C  3027  1  0.82584100  0.30143700  0.06602920  1
  C  3028  1  0.81170000  0.31207900  0.07669720  1
  C  3029  1  0.79769200  0.32273800  0.06587320  1
  C  3030  1  0.79784500  0.32279300  0.04532420  1
  C  3073  1  0.86278400  0.77594900  0.39960700  1
  C  3074  1  0.84853800  0.76170700  0.39968400  1
  C  3075  1  0.83031300  0.77085000  0.39967100  1
  C  3077  1  0.85364500  0.79417800  0.39971700  1
  C  3078  1  0.86354200  0.81245700  0.39971200  1
  C  3079  1  0.85413200  0.83094000  0.39974800  1
  C  3081  1  0.83097800  0.85410200  0.39990100  1
  C  3082  1  0.84914200  0.86334400  0.39980800  1
  C  3083  1  0.86338200  0.84910000  0.39982300  1
  C  3084  1  0.81249600  0.86351800  0.39993600  1
  C  3085  1  0.79421500  0.85362000  0.39991600  1
  C  3087  1  0.77088100  0.83029000  0.39994400  1
  C  3088  1  0.76174200  0.84852000  0.39992300  1
  C  3089  1  0.77598700  0.86276000  0.40001800  1
  C  3090  1  0.76097900  0.81201000  0.39990000  1
  C  3091  1  0.77039400  0.79352800  0.39983400  1
  C  3093  1  0.79355000  0.77037000  0.39978900  1
  C  3094  1  0.77538900  0.76112500  0.39976300  1
  C  3095  1  0.76114800  0.77536600  0.39989100  1
  C  3096  1  0.81203100  0.76095500  0.39971400  1
  C  3097  1  0.81218700  0.74009800  0.39968700  1
  C  3098  1  0.80924700  0.72954000  0.41713300  1
  C  3099  1  0.80920000  0.70899200  0.41704800  1
  C  3100  1  0.81220900  0.69830500  0.39959800  1
  C  3101  1  0.81523600  0.70906900  0.38219500  1
  C  3102  1  0.81516500  0.72961800  0.38219800  1
  C  3103  1  0.81213000  0.67737900  0.39954400  1
  C  3104  1  0.82609700  0.66666667  0.38878800  1
  C  3105  1  0.82603100  0.64604800  0.38877700  1
  C  3106  1  0.81192000  0.63534300  0.39942100  1
  C  3107  1  0.79792000  0.64612800  0.41012800  1
  C  3108  1  0.79805500  0.66666667  0.41023300  1
  C  3109  1  0.74012000  0.81216700  0.39991200  1
  C  3110  1  0.72962400  0.81526000  0.41737200  1
  C  3111  1  0.70907300  0.81531900  0.41736100  1
  C  3112  1  0.69832200  0.81214300  0.39997900  1
  C  3113  1  0.70902400  0.80902000  0.38255700  1
  C  3114  1  0.72957200  0.80909000  0.38248300  1
  C  3115  1  0.67739600  0.81204000  0.40002100  1
  C  3116  1  0.66659400  0.82607500  0.41066400  1
  C  3117  1  0.64604200  0.82598700  0.41066200  1
  C  3118  1  0.63535500  0.81178700  0.40011500  1
  C  3119  1  0.64616400  0.79771700  0.38952400  1
  C  3120  1  0.66666667  0.79787700  0.38942700  1
  C  3121  1  0.81233900  0.88437600  0.39996300  1
  C  3122  1  0.80918000  0.89489400  0.38252900  1
  C  3123  1  0.80903300  0.91544200  0.38258200  1
  C  3124  1  0.81216700  0.92617600  0.39998400  1
  C  3125  1  0.81538100  0.91545200  0.41737700  1
  C  3126  1  0.81541000  0.89490300  0.41740800  1
  C  3127  1  0.81208000  0.94710300  0.39999000  1
  C  3128  1  0.82613500  0.95791000  0.41060500  1
  C  3129  1  0.82607200  0.97846200  0.41056300  1
  C  3130  1  0.81187500  0.98914600  0.40001300  1
  C  3131  1  0.79779100  0.97833400  0.38944200  1
  C  3132  1  0.79792600  0.95778300  0.38938400  1
  C  3133  1  0.88440000  0.81229200  0.39968200  1
  C  3134  1  0.89492200  0.81523500  0.38221400  1
  C  3135  1  0.89491600  0.80923300  0.41713400  1
  C  3136  1  0.91546400  0.80905300  0.41707500  1
  C  3137  1  0.92619300  0.81206100  0.39965000  1
  C  3138  1  0.91547100  0.81518400  0.38223900  1
  C  3139  1  0.94712100  0.81194600  0.39963600  1
  C  3140  1  0.95793700  0.82592600  0.38893400  1
  C  3141  1  0.97849000  0.82583800  0.38896600  1
  C  3142  1  0.98915800  0.81170000  0.39960900  1
  C  3143  1  0.97833700  0.79769100  0.41026800  1
  C  3144  1  0.95778600  0.79784400  0.41032500  1
  C  3187  1  0.81217500  0.36270800  0.36338200  1
  C  3188  1  0.81239000  0.34844100  0.34917700  1
  C  3189  1  0.81228500  0.33022600  0.35834300  1
  C  3191  1  0.81230400  0.35362400  0.38163800  1
  C  3192  1  0.81226100  0.36359900  0.39989000  1
  C  3193  1  0.81225400  0.35418300  0.41838500  1
  C  3195  1  0.81230800  0.33106000  0.44161300  1
  C  3196  1  0.81216200  0.34925300  0.45080000  1
  C  3197  1  0.81234600  0.36345400  0.43653500  1
  C  3198  1  0.81230500  0.31260600  0.45111200  1
  C  3199  1  0.81228900  0.29431100  0.44121500  1
  C  3201  1  0.81231100  0.27091000  0.41791700  1
  C  3202  1  0.81218700  0.26182800  0.43617400  1
  C  3203  1  0.81241600  0.27609500  0.45037800  1
  C  3204  1  0.81227200  0.26093200  0.39966500  1
  C  3205  1  0.81226700  0.27035100  0.38117000  1
  C  3207  1  0.81231400  0.29347700  0.35794400  1
  C  3208  1  0.81219900  0.27528700  0.34875400  1
  C  3209  1  0.81239400  0.26108400  0.36301900  1
  C  3210  1  0.81229900  0.31193000  0.34844800  1
  C  3211  1  0.81226600  0.31204500  0.32755100  1
  C  3212  1  0.82924100  0.30708000  0.31694500  1
  C  3213  1  0.82910900  0.30691500  0.29639800  1
  C  3214  1  0.81214600  0.31208700  0.28580200  1
  C  3215  1  0.79524700  0.31725300  0.29650500  1
  C  3216  1  0.79523400  0.31704300  0.31705400  1
  C  3217  1  0.81206400  0.31203200  0.26495000  1
  C  3218  1  0.80496200  0.32820800  0.25426200  1
  C  3219  1  0.80500600  0.32819000  0.23370800  1
  C  3220  1  0.81179200  0.31184100  0.22307500  1
  C  3221  1  0.81874900  0.29560300  0.23377300  1
  C  3222  1  0.81904400  0.29576500  0.25432000  1
  C  3223  1  0.81222600  0.24003500  0.39986400  1
  C  3224  1  0.82919700  0.22948500  0.40496400  1
  C  3225  1  0.82910200  0.20893700  0.40523900  1
  C  3226  1  0.81219000  0.19828100  0.40002000  1
  C  3227  1  0.79528900  0.20892600  0.39474400  1
  C  3228  1  0.79523400  0.22947400  0.39485900  1
  C  3229  1  0.81217100  0.17743000  0.40008100  1
  C  3230  1  0.81908800  0.16681900  0.41638600  1
  C  3231  1  0.81883700  0.14627100  0.41654800  1
  C  3232  1  0.81199100  0.13555200  0.40027600  1
  C  3233  1  0.80528300  0.14616800  0.38388300  1
  C  3234  1  0.80520000  0.16672100  0.38386000  1
  C  3235  1  0.81228800  0.31249700  0.47201000  1
  C  3236  1  0.79528500  0.30743200  0.48252600  1
  C  3237  1  0.79531300  0.30723900  0.50307500  1
  C  3238  1  0.81219300  0.31249900  0.51376400  1
  C  3239  1  0.82912100  0.31775200  0.50315200  1
  C  3240  1  0.82924500  0.31755200  0.48260500  1
  C  3241  1  0.81212400  0.31257300  0.53461500  1
  C  3242  1  0.81901900  0.32888800  0.54522600  1
  C  3243  1  0.81872300  0.32907000  0.56577400  1
  C  3244  1  0.81186700  0.31280200  0.57649300  1
  C  3245  1  0.80517800  0.29640200  0.56587500  1
  C  3246  1  0.80513400  0.29636000  0.54532200  1
  C  3247  1  0.81222100  0.38449400  0.39968700  1
  C  3248  1  0.79520900  0.39505900  0.40461600  1
  C  3249  1  0.82921200  0.39503400  0.39463600  1
  C  3250  1  0.82911800  0.41558100  0.39432900  1
  C  3251  1  0.81218700  0.42624400  0.39947500  1
  C  3252  1  0.79526600  0.41560700  0.40470600  1
  C  3253  1  0.81216900  0.44709400  0.39938900  1
  C  3254  1  0.80512300  0.45782100  0.41556600  1
  C  3255  1  0.80521700  0.47837200  0.41552400  1
  C  3256  1  0.81200500  0.48896800  0.39915100  1
  C  3257  1  0.81892300  0.47823300  0.38292000  1
  C  3258  1  0.81917400  0.45768500  0.38310900  1
  C  3301  1  0.27584500  0.81215200  0.45024500  1
  C  3302  1  0.26164100  0.81236800  0.43597900  1
  C  3303  1  0.27080500  0.81226900  0.41776300  1
  C  3305  1  0.29410100  0.81228600  0.44116100  1
  C  3306  1  0.31235400  0.81226000  0.45113500  1
  C  3307  1  0.33084900  0.81226000  0.44171900  1
  C  3309  1  0.35407600  0.81231200  0.41859500  1
  C  3310  1  0.36326400  0.81217700  0.43678700  1
  C  3311  1  0.34899900  0.81235900  0.45098900  1
  C  3312  1  0.36357400  0.81230800  0.40014100  1
  C  3313  1  0.35367600  0.81228900  0.38184500  1
  C  3315  1  0.33037800  0.81230400  0.35844500  1
  C  3316  1  0.34863400  0.81218100  0.34936300  1
  C  3317  1  0.36283800  0.81240000  0.36362800  1
  C  3318  1  0.31212500  0.81227300  0.34847000  1
  C  3319  1  0.29363000  0.81227300  0.35788700  1
  C  3321  1  0.27040500  0.81232600  0.38101400  1
  C  3322  1  0.26121500  0.81221500  0.36282300  1
  C  3323  1  0.27547800  0.81241000  0.34862200  1
  C  3324  1  0.26090900  0.81229900  0.39946800  1
  C  3325  1  0.24001300  0.81226700  0.39958300  1
  C  3326  1  0.22940800  0.82924400  0.39462100  1
  C  3327  1  0.20886000  0.82911500  0.39445600  1
  C  3328  1  0.19826200  0.81215000  0.39962700  1
  C  3329  1  0.20896500  0.79525400  0.40480000  1
  C  3330  1  0.22951300  0.79523500  0.40457900  1
  C  3331  1  0.17741200  0.81207000  0.39957000  1
  C  3332  1  0.16672200  0.80497200  0.41574900  1
  C  3333  1  0.14617000  0.80500400  0.41572600  1
  C  3334  1  0.13553700  0.81179600  0.39937700  1
  C  3335  1  0.14623500  0.81876000  0.38314400  1
  C  3336  1  0.16678200  0.81906000  0.38330700  1
  C  3337  1  0.31232300  0.81222600  0.32757200  1
  C  3338  1  0.31742500  0.82919600  0.31702000  1
  C  3339  1  0.31770500  0.82909900  0.29647400  1
  C  3340  1  0.31248200  0.81218500  0.28581900  1
  C  3341  1  0.30720600  0.79528600  0.29646500  1
  C  3342  1  0.30731400  0.79523400  0.31701300  1
  C  3343  1  0.31254500  0.81216400  0.26496800  1
  C  3344  1  0.32885200  0.81907900  0.25435800  1
  C  3345  1  0.32901600  0.81883000  0.23381100  1
  C  3346  1  0.31274300  0.81198600  0.22309000  1
  C  3347  1  0.29635300  0.80527300  0.23370600  1
  C  3348  1  0.29632800  0.80518700  0.25425900  1
  C  3349  1  0.38447300  0.81228800  0.40003000  1
  C  3350  1  0.39498600  0.79528300  0.39496800  1
  C  3351  1  0.41553500  0.79531100  0.39476600  1
  C  3352  1  0.42622600  0.81218700  0.40003100  1
  C  3353  1  0.41561600  0.82912000  0.40528000  1
  C  3354  1  0.39506900  0.82924500  0.40508000  1
  C  3355  1  0.44707700  0.81211400  0.40011000  1
  C  3356  1  0.45768700  0.81900500  0.41642700  1
  C  3357  1  0.47823300  0.81871700  0.41660800  1
  C  3358  1  0.48895500  0.81186000  0.40034200  1
  C  3359  1  0.47833800  0.80516200  0.38394500  1
  C  3360  1  0.45778600  0.80511500  0.38390200  1
  C  3361  1  0.31215200  0.81221900  0.47203100  1
  C  3362  1  0.31708400  0.79520900  0.48259600  1
  C  3363  1  0.30709600  0.82920900  0.48257100  1
  C  3364  1  0.30679400  0.82911700  0.50311800  1
  C  3365  1  0.31194000  0.81218500  0.51378100  1
  C  3366  1  0.31717100  0.79526400  0.50314400  1
  C  3367  1  0.31185400  0.81216800  0.53463200  1
  C  3368  1  0.32803000  0.80512100  0.54535900  1
  C  3369  1  0.32798800  0.80521600  0.56591000  1
  C  3370  1  0.31161500  0.81200500  0.57650600  1
  C  3371  1  0.29538200  0.81891700  0.56577100  1
  C  3372  1  0.29557200  0.81917100  0.54522300  1
  C  3415  1  0.36278200  0.27595200  0.89968600  1
  C  3416  1  0.34854600  0.26171800  0.89991600  1
  C  3417  1  0.33031000  0.27084300  0.89979900  1
  C  3419  1  0.35365900  0.29418900  0.89980100  1
  C  3420  1  0.36359600  0.31246200  0.89976000  1
  C  3421  1  0.35414200  0.33093700  0.89975000  1
  C  3423  1  0.33097000  0.35411500  0.89982700  1
  C  3424  1  0.34914200  0.36334200  0.89968600  1
  C  3425  1  0.36337400  0.34910700  0.89985600  1
  C  3426  1  0.31249600  0.36357300  0.89984500  1
  C  3427  1  0.29422100  0.35363600  0.89981800  1
  C  3429  1  0.27087000  0.33028800  0.89981200  1
  C  3430  1  0.26174900  0.34852500  0.89970700  1
  C  3431  1  0.27598500  0.36276000  0.89993900  1
  C  3432  1  0.26093000  0.31201500  0.89977700  1
  C  3433  1  0.27038600  0.29354000  0.89978000  1
  C  3435  1  0.29356200  0.27036400  0.89984800  1
  C  3436  1  0.27539200  0.26113500  0.89974400  1
  C  3437  1  0.26115800  0.27536800  0.89991600  1
  C  3438  1  0.31203600  0.26090900  0.89984000  1
  C  3439  1  0.31219700  0.24001200  0.89986200  1
  C  3440  1  0.30726100  0.22944000  0.91686800  1
  C  3441  1  0.30717200  0.20889200  0.91680200  1
  C  3442  1  0.31239300  0.19826200  0.89987400  1
  C  3443  1  0.31752900  0.20893200  0.88294400  1
  C  3444  1  0.31723500  0.22947800  0.88286400  1
  C  3445  1  0.31249700  0.17741200  0.89988500  1
  C  3446  1  0.32878900  0.16683800  0.89288400  1
  C  3447  1  0.32899200  0.14628900  0.89311700  1
  C  3448  1  0.31277300  0.13553700  0.90003600  1
  C  3449  1  0.29639300  0.14611600  0.90683200  1
  C  3450  1  0.29633200  0.16666800  0.90693500  1
  C  3451  1  0.24003200  0.31217200  0.89974700  1
  C  3452  1  0.22948500  0.31726200  0.91672200  1
  C  3453  1  0.20893700  0.31753100  0.91663400  1
  C  3454  1  0.19827800  0.31231700  0.89972200  1
  C  3455  1  0.20892000  0.30703100  0.88282100  1
  C  3456  1  0.22946800  0.30715800  0.88275900  1
  C  3457  1  0.17742700  0.31239800  0.89970200  1
  C  3458  1  0.16683300  0.32871200  0.90662600  1
  C  3459  1  0.14628500  0.32889900  0.90636900  1
  C  3460  1  0.13554900  0.31263900  0.89952100  1
  C  3461  1  0.14614800  0.29623900  0.89280400  1
  C  3462  1  0.16670200  0.29618900  0.89272900  1
  C  3463  1  0.31234100  0.38447100  0.89987800  1
  C  3464  1  0.30724500  0.39502000  0.88290600  1
  C  3465  1  0.30696900  0.41556700  0.88299800  1
  C  3466  1  0.31220000  0.42622400  0.89990700  1
  C  3467  1  0.31748500  0.41558100  0.91680600  1
  C  3468  1  0.31736200  0.39503300  0.91686600  1
  C  3469  1  0.31212300  0.44707500  0.89992800  1
  C  3470  1  0.32833400  0.45779800  0.90689700  1
  C  3471  1  0.32828800  0.47835000  0.90682300  1
  C  3472  1  0.31188900  0.48895400  0.90010900  1
  C  3473  1  0.29562500  0.47822000  0.89327100  1
  C  3474  1  0.29580700  0.45767200  0.89301200  1
  C  3475  1  0.38449200  0.31230000  0.89973400  1
  C  3476  1  0.39506000  0.31723500  0.88272500  1
  C  3477  1  0.39502900  0.30726000  0.91672900  1
  C  3478  1  0.41557600  0.30696900  0.91664500  1
  C  3479  1  0.42624200  0.31209900  0.89971000  1
  C  3480  1  0.41560800  0.31732100  0.88278500  1
  C  3481  1  0.44709100  0.31199300  0.89969300  1
  C  3482  1  0.45783400  0.32815700  0.89264500  1
  C  3483  1  0.47838600  0.32809300  0.89273800  1
  C  3484  1  0.48896500  0.31171300  0.89953200  1
  C  3485  1  0.47821300  0.29549200  0.90644900  1
  C  3486  1  0.45766600  0.29569900  0.90669200  1
  C  3529  1  0.31143000  0.81178300  0.59736500  1
  C  3530  1  0.32715800  0.81947700  0.60825600  1
  C  3531  1  0.32684600  0.81942500  0.62878100  1
  C  3532  1  0.31095700  0.81136000  0.63920400  1
  C  3533  1  0.29506000  0.80345200  0.62847900  1
  C  3534  1  0.29547000  0.80388100  0.60779400  1
  C  3536  1  0.31131100  0.81147200  0.66004800  1
  C  3537  1  0.31321300  0.82914200  0.67052200  1
  C  3538  1  0.31333500  0.82928500  0.69107400  1
  C  3539  1  0.31177500  0.81177300  0.70195500  1
  C  3540  1  0.31010800  0.79409700  0.69136200  1
  C  3541  1  0.30986800  0.79393800  0.67081700  1
  C  3551  1  0.31291200  0.81175500  0.20222800  1
  C  3552  1  0.29718600  0.81946000  0.19134100  1
  C  3553  1  0.29747900  0.81939000  0.17081600  1
  C  3554  1  0.31335500  0.81131200  0.16038300  1
  C  3555  1  0.32925500  0.80340300  0.17110400  1
  C  3556  1  0.32886000  0.80384200  0.19178900  1
  C  3558  1  0.31298900  0.81142000  0.13953500  1
  C  3559  1  0.31101400  0.82908200  0.12905900  1
  C  3560  1  0.31089800  0.82922500  0.10850500  1
  C  3561  1  0.31254200  0.81172300  0.09762220  1
  C  3562  1  0.31427300  0.79405400  0.10821700  1
  C  3563  1  0.31450700  0.79389400  0.12876200  1
  C  3573  1  0.50982300  0.31150500  0.89931900  1
  C  3574  1  0.52072600  0.32722100  0.90702300  1
  C  3575  1  0.54124900  0.32689500  0.90696900  1
  C  3576  1  0.55166000  0.31099800  0.89890500  1
  C  3577  1  0.54092300  0.29510800  0.89099600  1
  C  3578  1  0.52023800  0.29553700  0.89141900  1
  C  3580  1  0.57250400  0.31133800  0.89901600  1
  C  3581  1  0.58297900  0.31322800  0.91668500  1
  C  3582  1  0.60353200  0.31335400  0.91682500  1
  C  3583  1  0.61441000  0.31178400  0.89931200  1
  C  3584  1  0.60381500  0.31012500  0.88163700  1
  C  3585  1  0.58327000  0.30988700  0.88148100  1
  C  3595  1  0.11468500  0.31283000  0.89928900  1
  C  3596  1  0.10378300  0.29711400  0.90699100  1
  C  3597  1  0.08325840  0.29743100  0.90692500  1
  C  3598  1  0.07284140  0.31332000  0.89885100  1
  C  3599  1  0.08357740  0.32920900  0.89094300  1
  C  3600  1  0.10426400  0.32878800  0.89137500  1
  C  3602  1  0.05199240  0.31297600  0.89896000  1
  C  3603  1  0.04151340  0.31100800  0.91662100  1
  C  3604  1  0.02096040  0.31089600  0.91676400  1
  C  3605  1  0.01007640  0.31255200  0.89926200  1
  C  3606  1  0.02067440  0.31429200  0.88159400  1
  C  3607  1  0.04122140  0.31450600  0.88143500  1
  C  3617  1  0.81178400  0.50982700  0.39896600  1
  C  3618  1  0.81947900  0.52071700  0.41469500  1
  C  3619  1  0.81942600  0.54124000  0.41438400  1
  C  3620  1  0.81136100  0.55166300  0.39849500  1
  C  3621  1  0.80345400  0.54094100  0.38259800  1
  C  3622  1  0.80388300  0.52025400  0.38300600  1
  C  3624  1  0.81147400  0.57250700  0.39885100  1
  C  3625  1  0.82914300  0.58298100  0.40075000  1
  C  3626  1  0.82928600  0.60353300  0.40087200  1
  C  3627  1  0.81177400  0.61441300  0.39931600  1
  C  3628  1  0.79409700  0.60381900  0.39764900  1
  C  3629  1  0.79393800  0.58327400  0.39740900  1
  C  3639  1  0.81175700  0.11468800  0.40044500  1
  C  3640  1  0.81945100  0.10380000  0.38471500  1
  C  3641  1  0.81938700  0.08327540  0.38501400  1
  C  3642  1  0.81131000  0.07284240  0.40089200  1
  C  3643  1  0.80340300  0.08356640  0.41679200  1
  C  3644  1  0.80384300  0.10425100  0.41639400  1
  C  3646  1  0.81142000  0.05199540  0.40052900  1
  C  3647  1  0.82908200  0.04151840  0.39855200  1
  C  3648  1  0.82922600  0.02096540  0.39843600  1
  C  3649  1  0.81172400  0.01007940  0.40008500  1
  C  3650  1  0.79405500  0.02067440  0.40181800  1
  C  3651  1  0.79389600  0.04122140  0.40205100  1
  C  3661  1  0.81153900  0.31167900  0.20221600  1
  C  3662  1  0.81920600  0.32742500  0.19133100  1
  C  3663  1  0.81913700  0.32712900  0.17080800  1
  C  3664  1  0.81109400  0.31123300  0.16037900  1
  C  3665  1  0.80321700  0.29531700  0.17109600  1
  C  3666  1  0.80365300  0.29571500  0.19178200  1
  C  3668  1  0.81121200  0.31159000  0.13953300  1
  C  3669  1  0.82888600  0.31350200  0.12906800  1
  C  3670  1  0.82903900  0.31361900  0.10851700  1
  C  3671  1  0.81153800  0.31201500  0.09762620  1
  C  3672  1  0.79385700  0.31034000  0.10821100  1
  C  3673  1  0.79368700  0.31011200  0.12875700  1
  C  3683  1  0.81161900  0.31298100  0.59735500  1
  C  3684  1  0.81932600  0.29726300  0.60825300  1
  C  3685  1  0.81926000  0.29757400  0.62877800  1
  C  3686  1  0.81118200  0.31345800  0.63919900  1
  C  3687  1  0.80326700  0.32934800  0.62846700  1
  C  3688  1  0.80369900  0.32893300  0.60778200  1
  C  3690  1  0.81130100  0.31311200  0.66004800  1
  C  3691  1  0.82896900  0.31114500  0.67051600  1
  C  3692  1  0.82912300  0.31102500  0.69106800  1
  C  3693  1  0.81162500  0.31267100  0.70196100  1
  C  3694  1  0.79395300  0.31441100  0.69137500  1
  C  3695  1  0.79378200  0.31463500  0.67083000  1
  C  3705  1  0.31170400  0.50981700  0.90033800  1
  C  3706  1  0.32742800  0.52071500  0.89264200  1
  C  3707  1  0.32711400  0.54123900  0.89270000  1
  C  3708  1  0.31122400  0.55166100  0.90076700  1
  C  3709  1  0.29533000  0.54092900  0.90867100  1
  C  3710  1  0.29574600  0.52024400  0.90824400  1
  C  3712  1  0.31157200  0.57250900  0.90065400  1
  C  3713  1  0.31354800  0.58298400  0.88299200  1
  C  3714  1  0.31365500  0.60353800  0.88284500  1
  C  3715  1  0.31200100  0.61442300  0.90034600  1
  C  3716  1  0.31026200  0.60382800  0.91801600  1
  C  3717  1  0.31004500  0.58328300  0.91817800  1
  C  3727  1  0.31297900  0.11467800  0.90024700  1
  C  3728  1  0.29725900  0.10377500  0.89255100  1
  C  3729  1  0.29758800  0.08325240  0.89259800  1
  C  3730  1  0.31348800  0.07284140  0.90065700  1
  C  3731  1  0.32937800  0.08357640  0.90856300  1
  C  3732  1  0.32895300  0.10426300  0.90813600  1
  C  3734  1  0.31314700  0.05199740  0.90054600  1
  C  3735  1  0.31124900  0.04152040  0.88287700  1
  C  3736  1  0.31113900  0.02096740  0.88273400  1
  C  3737  1  0.31270700  0.01008840  0.90024700  1
  C  3738  1  0.31436800  0.02068440  0.91792300  1
  C  3739  1  0.31460400  0.04123040  0.91808000  1
  C  3749  1  0.50981700  0.81161700  0.40052100  1
  C  3750  1  0.52071400  0.81932700  0.38480400  1
  C  3751  1  0.54123700  0.81925900  0.38511200  1
  C  3752  1  0.55166100  0.81118200  0.40099500  1
  C  3753  1  0.54093100  0.80326700  0.41688600  1
  C  3754  1  0.52024400  0.80369600  0.41647200  1
  C  3756  1  0.57250900  0.81130100  0.40064600  1
  C  3757  1  0.58297700  0.82896900  0.39868000  1
  C  3758  1  0.60352900  0.82912300  0.39855200  1
  C  3759  1  0.61442300  0.81162700  0.40020300  1
  C  3760  1  0.60383700  0.79395100  0.40193700  1
  C  3761  1  0.58329000  0.79378200  0.40216800  1
  C  3771  1  0.11467800  0.81153900  0.39921600  1
  C  3772  1  0.10379100  0.81920300  0.41496200  1
  C  3773  1  0.08326740  0.81913600  0.41466400  1
  C  3774  1  0.07283940  0.81109400  0.39876600  1
  C  3775  1  0.08356040  0.80321700  0.38285000  1
  C  3776  1  0.10424500  0.80365600  0.38325000  1
  C  3778  1  0.05199540  0.81121200  0.39912100  1
  C  3779  1  0.04153040  0.82888600  0.40103600  1
  C  3780  1  0.02097840  0.82903900  0.40114500  1
  C  3781  1  0.01008840  0.81153800  0.39954400  1
  C  3782  1  0.02067340  0.79385800  0.39786000  1
  C  3783  1  0.04121840  0.79368600  0.39764000  1
  N  4  1  0.00588300  0.52785000  0.48388800  1
  N  8  1  0.00599200  0.52837900  0.52835800  1
  N  14  1  0.00589000  0.48391300  0.52783200  1
  N  20  1  0.00578400  0.48338100  0.48336600  1
  N  118  1  0.48387800  0.00579300  0.52785100  1
  N  122  1  0.52834700  0.00590200  0.52838100  1
  N  128  1  0.52782100  0.00599300  0.48391200  1
  N  134  1  0.48335400  0.00588000  0.48338200  1
  N  232  1  0.52785000  0.48388000  0.00579900  1
  N  236  1  0.52838100  0.52834900  0.00590900  1
  N  242  1  0.48391200  0.52782500  0.00599100  1
  N  248  1  0.48338100  0.48335900  0.00588500  1
  N  346  1  0.50592600  0.02781500  0.98383300  1
  N  350  1  0.50591400  0.02843400  0.02830900  1
  N  356  1  0.50592500  0.98395500  0.02788400  1
  N  362  1  0.50591000  0.98333700  0.98340800  1
  N  460  1  0.98383300  0.50591300  0.02781400  1
  N  464  1  0.02831000  0.50591600  0.02843100  1
  N  470  1  0.02788300  0.50592500  0.98395400  1
  N  476  1  0.98340700  0.50591300  0.98333500  1
  N  574  1  0.02785800  0.98387900  0.50587800  1
  N  578  1  0.02838500  0.02835700  0.50587900  1
  N  584  1  0.98390900  0.02783500  0.50589200  1
  N  590  1  0.98338000  0.98335900  0.50588700  1
  N  704  1  0.97237000  0.48934500  0.24463600  1
  N  726  1  0.03918000  0.48929400  0.76710500  1
  N  748  1  0.24460700  0.97240800  0.48935700  1
  N  770  1  0.76713400  0.03914600  0.48929800  1
  N  792  1  0.48934800  0.24463600  0.97236800  1
  N  814  1  0.48929500  0.76710700  0.03918000  1
  N  836  1  0.48914100  0.97261500  0.76709400  1
  N  858  1  0.48915800  0.03928000  0.24461400  1
  N  880  1  0.97262800  0.24461400  0.52246600  1
  N  902  1  0.03931600  0.76713000  0.52236000  1
  N  924  1  0.24461700  0.48916100  0.03928100  1
  N  946  1  0.76709600  0.48913900  0.97261000  1
  N  952  1  0.10801000  0.62997700  0.61519500  1
  N  956  1  0.10811900  0.63050600  0.65966500  1
  N  962  1  0.10801700  0.58604000  0.65913900  1
  N  968  1  0.10791100  0.58550800  0.61467300  1
  N  1066  1  0.58600500  0.10792000  0.65915800  1
  N  1070  1  0.63047400  0.10802900  0.65968800  1
  N  1076  1  0.62994800  0.10812000  0.61521900  1
  N  1082  1  0.58548100  0.10800700  0.61468900  1
  N  1180  1  0.62997700  0.58600700  0.13710600  1
  N  1184  1  0.63050800  0.63047600  0.13721600  1
  N  1190  1  0.58603900  0.62995200  0.13729800  1
  N  1196  1  0.58550800  0.58548600  0.13719200  1
  N  1294  1  0.60805300  0.12994200  0.11514000  1
  N  1298  1  0.60804100  0.13056100  0.15961600  1
  N  1304  1  0.60805200  0.08608250  0.15919100  1
  N  1310  1  0.60803700  0.08546450  0.11471500  1
  N  1408  1  0.08596050  0.60804000  0.15912100  1
  N  1412  1  0.13043700  0.60804300  0.15973800  1
  N  1418  1  0.13001000  0.60805200  0.11526100  1
  N  1424  1  0.08553450  0.60804000  0.11464200  1
  N  1522  1  0.12998500  0.08600650  0.63718500  1
  N  1526  1  0.13051200  0.13048400  0.63718600  1
  N  1532  1  0.08603650  0.12996200  0.63719900  1
  N  1538  1  0.08550750  0.08548650  0.63719400  1
  N  1652  1  0.07449750  0.59147200  0.37594300  1
  N  1674  1  0.14130700  0.59142100  0.89841200  1
  N  1696  1  0.34673400  0.07453550  0.62066400  1
  N  1718  1  0.86926100  0.14127300  0.62060500  1
  N  1740  1  0.59147500  0.34676300  0.10367500  1
  N  1762  1  0.59142200  0.86923400  0.17048700  1
  N  1784  1  0.59126800  0.07474250  0.89840100  1
  N  1806  1  0.59128500  0.14140700  0.37592100  1
  N  1828  1  0.07475550  0.34674100  0.65377300  1
  N  1850  1  0.14144300  0.86925700  0.65366700  1
  N  1872  1  0.34674400  0.59128800  0.17058800  1
  N  1894  1  0.86922300  0.59126600  0.10391700  1
  N  1900  1  0.21013800  0.73210500  0.74650100  1
  N  1904  1  0.21024700  0.73263400  0.79097100  1
  N  1910  1  0.21014500  0.68816800  0.79044500  1
  N  1916  1  0.21003900  0.68763600  0.74597900  1
  N  2014  1  0.68813300  0.21004800  0.79046400  1
  N  2018  1  0.73260200  0.21015700  0.79099400  1
  N  2024  1  0.73207600  0.21024800  0.74652500  1
  N  2030  1  0.68760900  0.21013500  0.74599500  1
  N  2128  1  0.73210500  0.68813500  0.26841200  1
  N  2132  1  0.73263600  0.73260400  0.26852200  1
  N  2138  1  0.68816700  0.73208000  0.26860400  1
  N  2144  1  0.68763600  0.68761400  0.26849800  1
  N  2242  1  0.71018100  0.23207000  0.24644600  1
  N  2246  1  0.71016900  0.23268900  0.29092200  1
  N  2252  1  0.71018000  0.18821000  0.29049700  1
  N  2258  1  0.71016500  0.18759200  0.24602100  1
  N  2356  1  0.18808800  0.71016800  0.29042700  1
  N  2360  1  0.23256500  0.71017100  0.29104400  1
  N  2366  1  0.23213800  0.71018000  0.24656700  1
  N  2372  1  0.18766200  0.71016800  0.24594800  1
  N  2470  1  0.23211300  0.18813400  0.76849100  1
  N  2474  1  0.23264000  0.23261200  0.76849200  1
  N  2480  1  0.18816400  0.23209000  0.76850500  1
  N  2486  1  0.18763500  0.18761400  0.76850000  1
  N  2600  1  0.17662500  0.69360000  0.50724900  1
  N  2622  1  0.24343500  0.69354900  0.02971850  1
  N  2644  1  0.44886200  0.17666300  0.75197000  1
  N  2666  1  0.97138900  0.24340100  0.75191100  1
  N  2688  1  0.69360300  0.44889100  0.23498100  1
  N  2710  1  0.69355000  0.97136200  0.30179300  1
  N  2732  1  0.69339600  0.17687000  0.02970750  1
  N  2754  1  0.69341300  0.24353500  0.50722700  1
  N  2776  1  0.17688300  0.44886900  0.78507900  1
  N  2798  1  0.24357100  0.97138500  0.78497300  1
  N  2820  1  0.44887200  0.69341600  0.30189400  1
  N  2842  1  0.97135100  0.69339400  0.23522300  1
  N  2848  1  0.31226500  0.83423200  0.87780800  1
  N  2852  1  0.31237400  0.83476100  0.92227800  1
  N  2858  1  0.31227200  0.79029500  0.92175200  1
  N  2864  1  0.31216600  0.78976300  0.87728600  1
  N  2962  1  0.79026000  0.31217500  0.92177100  1
  N  2966  1  0.83472900  0.31228400  0.92230100  1
  N  2972  1  0.83420300  0.31237500  0.87783200  1
  N  2978  1  0.78973600  0.31226200  0.87730200  1
  N  3076  1  0.83423200  0.79026200  0.39971900  1
  N  3080  1  0.83476300  0.83473100  0.39982900  1
  N  3086  1  0.79029400  0.83420700  0.39991100  1
  N  3092  1  0.78976300  0.78974100  0.39980500  1
  N  3190  1  0.81230800  0.33419700  0.37775300  1
  N  3194  1  0.81229600  0.33481600  0.42222900  1
  N  3200  1  0.81230700  0.29033700  0.42180400  1
  N  3206  1  0.81229200  0.28971900  0.37732800  1
  N  3304  1  0.29021500  0.81229500  0.42173400  1
  N  3308  1  0.33469200  0.81229800  0.42235100  1
  N  3314  1  0.33426500  0.81230700  0.37787400  1
  N  3320  1  0.28978900  0.81229500  0.37725500  1
  N  3418  1  0.33424000  0.29026100  0.89979800  1
  N  3422  1  0.33476700  0.33473900  0.89979900  1
  N  3428  1  0.29029100  0.33421700  0.89981200  1
  N  3434  1  0.28976200  0.28974100  0.89980700  1
  N  3548  1  0.27875200  0.79572700  0.63855600  1
  N  3570  1  0.34556200  0.79567600  0.16102500  1
  N  3592  1  0.55098900  0.27879000  0.88327700  1
  N  3614  1  0.07351640  0.34552800  0.88321800  1
  N  3636  1  0.79573000  0.55101800  0.36628800  1
  N  3658  1  0.79567700  0.07348940  0.43310000  1
  N  3680  1  0.79552300  0.27899700  0.16101400  1
  N  3702  1  0.79554000  0.34566200  0.63853400  1
  N  3724  1  0.27901000  0.55099600  0.91638600  1
  N  3746  1  0.34569800  0.07351240  0.91628000  1
  N  3768  1  0.55099900  0.79554300  0.43320100  1
  N  3790  1  0.07347840  0.79552100  0.36653000  1
  O  705  1  0.96977100  0.47164600  0.24060600  1
  O  706  1  0.95702700  0.49858500  0.24072000  1
  O  727  1  0.04178300  0.47159700  0.77114200  1
  O  728  1  0.05452200  0.49853600  0.77100900  1
  O  749  1  0.24058000  0.96981100  0.47165600  1
  O  750  1  0.24067300  0.95707100  0.49859800  1
  O  771  1  0.77117100  0.04174500  0.47160100  1
  O  772  1  0.77105900  0.05448300  0.49854200  1
  O  793  1  0.47164800  0.24060600  0.96977000  1
  O  794  1  0.49858700  0.24072000  0.95702700  1
  O  815  1  0.47159800  0.77114500  0.04178400  1
  O  816  1  0.49853900  0.77101200  0.05452100  1
  O  837  1  0.47144800  0.96998000  0.77112800  1
  O  838  1  0.49841200  0.95729000  0.77099900  1
  O  859  1  0.47146000  0.04187600  0.24057900  1
  O  860  1  0.49839800  0.05462000  0.24069500  1
  O  881  1  0.97002100  0.24058300  0.54016500  1
  O  882  1  0.95729400  0.24069200  0.51321800  1
  O  903  1  0.04191700  0.77115800  0.54005800  1
  O  904  1  0.05465100  0.77105900  0.51311600  1
  O  925  1  0.24058400  0.47146200  0.04187900  1
  O  926  1  0.24069700  0.49840200  0.05462000  1
  O  947  1  0.77113200  0.47144600  0.96997700  1
  O  948  1  0.77100100  0.49840900  0.95728500  1
  O  1653  1  0.07189850  0.57377300  0.37191300  1
  O  1654  1  0.05915450  0.60071200  0.37202700  1
  O  1675  1  0.14391000  0.57372400  0.90244900  1
  O  1676  1  0.15664900  0.60066300  0.90231600  1
  O  1697  1  0.34270700  0.07193850  0.60296300  1
  O  1698  1  0.34280000  0.05919850  0.62990500  1
  O  1719  1  0.87329800  0.14387200  0.60290800  1
  O  1720  1  0.87318600  0.15661000  0.62984900  1
  O  1741  1  0.57377500  0.34273300  0.10107700  1
  O  1742  1  0.60071400  0.34284700  0.08833370  1
  O  1763  1  0.57372500  0.87327200  0.17309100  1
  O  1764  1  0.60066600  0.87313900  0.18582800  1
  O  1785  1  0.57357500  0.07210750  0.90243500  1
  O  1786  1  0.60053900  0.05941750  0.90230600  1
  O  1807  1  0.57358700  0.14400300  0.37188600  1
  O  1808  1  0.60052500  0.15674700  0.37200200  1
  O  1829  1  0.07214850  0.34271000  0.67147200  1
  O  1830  1  0.05942150  0.34281900  0.64452500  1
  O  1851  1  0.14404400  0.87328500  0.67136500  1
  O  1852  1  0.15677800  0.87318600  0.64442300  1
  O  1873  1  0.34271100  0.57358900  0.17318600  1
  O  1874  1  0.34282400  0.60052900  0.18592700  1
  O  1895  1  0.87325900  0.57357300  0.10128400  1
  O  1896  1  0.87312800  0.60053600  0.08859170  1
  O  2601  1  0.17402600  0.67590100  0.50321900  1
  O  2602  1  0.16128200  0.70284000  0.50333300  1
  O  2623  1  0.24603800  0.67585200  0.03375550  1
  O  2624  1  0.25877700  0.70279100  0.03362250  1
  O  2645  1  0.44483500  0.17406600  0.73426900  1
  O  2646  1  0.44492800  0.16132600  0.76121100  1
  O  2667  1  0.97542600  0.24600000  0.73421400  1
  O  2668  1  0.97531400  0.25873800  0.76115500  1
  O  2689  1  0.67590300  0.44486100  0.23238300  1
  O  2690  1  0.70284200  0.44497500  0.21964000  1
  O  2711  1  0.67585300  0.97540000  0.30439700  1
  O  2712  1  0.70279400  0.97526700  0.31713400  1
  O  2733  1  0.67570300  0.17423500  0.03374150  1
  O  2734  1  0.70266700  0.16154500  0.03361250  1
  O  2755  1  0.67571500  0.24613100  0.50319200  1
  O  2756  1  0.70265300  0.25887500  0.50330800  1
  O  2777  1  0.17427600  0.44483800  0.80277800  1
  O  2778  1  0.16154900  0.44494700  0.77583100  1
  O  2799  1  0.24617200  0.97541300  0.80267100  1
  O  2800  1  0.25890600  0.97531400  0.77572900  1
  O  2821  1  0.44483900  0.67571700  0.30449200  1
  O  2822  1  0.44495200  0.70265700  0.31723300  1
  O  2843  1  0.97538700  0.67570100  0.23259000  1
  O  2844  1  0.97525600  0.70266400  0.21989800  1
  O  3549  1  0.27615300  0.77802800  0.63452600  1
  O  3550  1  0.26340900  0.80496700  0.63464000  1
  O  3571  1  0.34816500  0.77797900  0.16506200  1
  O  3572  1  0.36090400  0.80491800  0.16492900  1
  O  3593  1  0.54696200  0.27619300  0.86557600  1
  O  3594  1  0.54705500  0.26345300  0.89251800  1
  O  3615  1  0.07755340  0.34812700  0.86552100  1
  O  3616  1  0.07744140  0.36086500  0.89246200  1
  O  3637  1  0.77803000  0.54698800  0.36369000  1
  O  3638  1  0.80496900  0.54710200  0.35094700  1
  O  3659  1  0.77798000  0.07752740  0.43570400  1
  O  3660  1  0.80492100  0.07739440  0.44844100  1
  O  3681  1  0.77783000  0.27636200  0.16504800  1
  O  3682  1  0.80479400  0.26367200  0.16491900  1
  O  3703  1  0.77784200  0.34825800  0.63449900  1
  O  3704  1  0.80478000  0.36100200  0.63461500  1
  O  3725  1  0.27640300  0.54696500  0.93408500  1
  O  3726  1  0.26367600  0.54707400  0.90713800  1
  O  3747  1  0.34829900  0.07754040  0.93397800  1
  O  3748  1  0.36103300  0.07744140  0.90703600  1
  O  3769  1  0.54696600  0.77784400  0.43579900  1
  O  3770  1  0.54707900  0.80478400  0.44854000  1
  O  3791  1  0.07751440  0.77782800  0.36389700  1
  O  3792  1  0.07738340  0.80479100  0.35120500  1
