# generated using pymatgen
data_H27C42N
_symmetry_space_group_name_H-M   'P 1'
_cell_length_a   36.32190000
_cell_length_b   66.91370000
_cell_length_c   66.91370000
_cell_angle_alpha   90.00000000
_cell_angle_beta   90.00000000
_cell_angle_gamma   90.00000000
_symmetry_Int_Tables_number   1
_chemical_formula_structural   H27C42N
_chemical_formula_sum   'H864 C1344 N32'
_cell_volume   162629.24589827
_cell_formula_units_Z   32
loop_
 _symmetry_equiv_pos_site_id
 _symmetry_equiv_pos_as_xyz
  1  'x, y, z'
loop_
 _atom_site_type_symbol
 _atom_site_label
 _atom_site_symmetry_multiplicity
 _atom_site_fract_x
 _atom_site_fract_y
 _atom_site_fract_z
 _atom_site_occupancy
  H  20  1  0.12388600  0.11430900  0.29778500  1
  H  21  1  0.07005500  0.09344200  0.29785700  1
  H  22  1  0.03588700  0.11939800  0.35206400  1
  H  23  1  0.08893600  0.14070700  0.35184600  1
  H  24  1  0.96019500  0.09484100  0.35126300  1
  H  25  1  0.90626000  0.11538400  0.35082100  1
  H  26  1  0.03898800  0.06853300  0.35282500  1
  H  27  1  0.04002400  0.03282800  0.35284100  1
  H  28  1  0.98945800  0.03262300  0.29601300  1
  H  29  1  0.99029000  0.06832600  0.29583900  1
  H  30  1  0.99195000  0.11784700  0.29537900  1
  H  31  1  0.93927100  0.13913100  0.29513700  1
  H  51  1  0.11802700  0.91938600  0.70964800  1
  H  52  1  0.06309100  0.93875100  0.70896700  1
  H  53  1  0.04809800  0.92466000  0.64833500  1
  H  54  1  0.10074100  0.90370000  0.64916600  1
  H  55  1  0.00966600  0.90196900  0.67793400  1
  H  56  1  0.95767600  0.88153700  0.67770000  1
  H  57  1  0.00190200  0.96731200  0.70981700  1
  H  58  1  0.00056200  0.00304400  0.70999700  1
  H  59  1  0.02621200  0.00336000  0.64845200  1
  H  60  1  0.02608900  0.96765200  0.64840700  1
  H  61  1  0.94231600  0.95311400  0.68212200  1
  H  62  1  0.88962300  0.93226500  0.68385800  1
  H  82  1  0.12317600  0.71989400  0.09831500  1
  H  83  1  0.06953700  0.72028300  0.07732100  1
  H  84  1  0.03357400  0.66637500  0.10319400  1
  H  85  1  0.08648000  0.66611200  0.12460000  1
  H  86  1  0.95846300  0.66781400  0.07905200  1
  H  87  1  0.90453400  0.66886000  0.09958100  1
  H  88  1  0.03388400  0.66493000  0.05238500  1
  H  89  1  0.03434800  0.66477700  0.01663300  1
  H  90  1  0.99117300  0.72337500  0.01651000  1
  H  91  1  0.99229700  0.72355400  0.05220800  1
  H  92  1  0.99120400  0.72390000  0.10117900  1
  H  93  1  0.93831300  0.72481000  0.12236800  1
  H  113  1  0.10803500  0.30764900  0.89665300  1
  H  114  1  0.05369300  0.30816400  0.91610700  1
  H  115  1  0.05310200  0.37089400  0.91476300  1
  H  116  1  0.10442200  0.37077900  0.89303400  1
  H  117  1  0.00328400  0.35482700  0.88981000  1
  H  118  1  0.95074900  0.35376900  0.86927200  1
  H  119  1  0.03703800  0.31141600  0.95258500  1
  H  120  1  0.03745300  0.31183000  0.98812800  1
  H  121  1  0.98580700  0.36835700  0.98739400  1
  H  122  1  0.98770400  0.36823300  0.95168700  1
  H  123  1  0.94578800  0.32467000  0.93544800  1
  H  124  1  0.89222200  0.32383500  0.91473800  1
  H  144  1  0.91096800  0.91769000  0.29464500  1
  H  145  1  0.96531000  0.93751700  0.29501900  1
  H  146  1  0.97938700  0.92558600  0.35617400  1
  H  147  1  0.92751800  0.90409000  0.35570700  1
  H  148  1  0.01833800  0.90199900  0.32808400  1
  H  149  1  0.07035300  0.88164000  0.32832100  1
  H  150  1  0.02516200  0.96704700  0.29402800  1
  H  151  1  0.02666400  0.00278300  0.29372800  1
  H  152  1  0.00217500  0.00331500  0.35542500  1
  H  153  1  0.00223600  0.96761500  0.35559100  1
  H  154  1  0.08518200  0.95293600  0.32034100  1
  H  155  1  0.13782500  0.93204700  0.31859200  1
  H  175  1  0.90252700  0.11382200  0.70447900  1
  H  176  1  0.95658000  0.09313300  0.70495300  1
  H  177  1  0.99376700  0.12037100  0.65198200  1
  H  178  1  0.94056800  0.14156100  0.65173700  1
  H  179  1  0.06840700  0.09509400  0.65274400  1
  H  180  1  0.12275500  0.11528500  0.65357800  1
  H  181  1  0.98981100  0.06876400  0.65073400  1
  H  182  1  0.98868200  0.03305200  0.65072600  1
  H  183  1  0.03789200  0.03283900  0.70788800  1
  H  184  1  0.03719400  0.06853500  0.70803300  1
  H  185  1  0.03625100  0.11790800  0.70862600  1
  H  186  1  0.08949700  0.13880700  0.70929900  1
  H  206  1  0.88806500  0.33404200  0.08803300  1
  H  207  1  0.94106000  0.33572000  0.06739600  1
  H  208  1  0.00699600  0.34414200  0.11856300  1
  H  209  1  0.95455600  0.34423700  0.13871300  1
  H  210  1  0.04701200  0.37178200  0.09511000  1
  H  211  1  0.09974900  0.37129000  0.11604300  1
  H  212  1  0.02157400  0.37153500  0.05300300  1
  H  213  1  0.02164800  0.37138400  0.01730900  1
  H  214  1  0.00155600  0.30921900  0.01785700  1
  H  215  1  0.00309200  0.30954500  0.05355600  1
  H  216  1  0.06053700  0.31062100  0.08303700  1
  H  217  1  0.11552000  0.31020300  0.10235500  1
  H  237  1  0.89058400  0.70378000  0.91532800  1
  H  238  1  0.94369200  0.70317000  0.93612700  1
  H  239  1  0.00755700  0.68467600  0.88688300  1
  H  240  1  0.95507100  0.68443400  0.86660000  1
  H  241  1  0.05201800  0.66286900  0.91232400  1
  H  242  1  0.10425900  0.66318000  0.89109400  1
  H  243  1  0.99724100  0.66404600  0.95101900  1
  H  244  1  0.99590100  0.66390000  0.98678700  1
  H  245  1  0.02979200  0.72426100  0.98712400  1
  H  246  1  0.02934300  0.72440300  0.95151700  1
  H  247  1  0.05784500  0.72530700  0.91791200  1
  H  248  1  0.11280500  0.72574200  0.89889500  1
  H  268  1  0.62312000  0.61492000  0.79866500  1
  H  269  1  0.56975000  0.59371700  0.79837900  1
  H  270  1  0.53511000  0.61848200  0.85305600  1
  H  271  1  0.58776700  0.64006300  0.85325600  1
  H  272  1  0.45950800  0.59461100  0.85149700  1
  H  273  1  0.40586000  0.61538400  0.85079600  1
  H  274  1  0.53840200  0.56813000  0.85335700  1
  H  275  1  0.53969600  0.53243400  0.85333100  1
  H  276  1  0.48990600  0.53219400  0.79630000  1
  H  277  1  0.49050600  0.56790200  0.79617000  1
  H  278  1  0.49225700  0.61731800  0.79565300  1
  H  279  1  0.43988300  0.63881100  0.79515100  1
  H  299  1  0.58816600  0.39638700  0.20982800  1
  H  300  1  0.53511000  0.41739000  0.20900700  1
  H  301  1  0.56777600  0.44003700  0.15313300  1
  H  302  1  0.62203500  0.41977700  0.15414600  1
  H  303  1  0.49240800  0.41565000  0.15172100  1
  H  304  1  0.43985000  0.39398700  0.15157300  1
  H  305  1  0.53823200  0.46676500  0.20783300  1
  H  306  1  0.53929400  0.50243200  0.20749000  1
  H  307  1  0.48606800  0.50209000  0.15139100  1
  H  308  1  0.48713300  0.46640500  0.15148200  1
  H  309  1  0.45694500  0.44100700  0.20596200  1
  H  310  1  0.40361300  0.41976000  0.20568300  1
  H  330  1  0.58792400  0.22362200  0.62378100  1
  H  331  1  0.53502400  0.22339100  0.60267800  1
  H  332  1  0.56672400  0.16762900  0.57938200  1
  H  333  1  0.62091200  0.16808500  0.59970800  1
  H  334  1  0.49078100  0.16687000  0.60412100  1
  H  335  1  0.43768100  0.16710500  0.62539400  1
  H  336  1  0.53749700  0.22277400  0.55290500  1
  H  337  1  0.53833600  0.22254900  0.51720900  1
  H  338  1  0.48580300  0.16626900  0.51747300  1
  H  339  1  0.48688000  0.16629900  0.55316600  1
  H  340  1  0.45677400  0.22109400  0.57816300  1
  H  341  1  0.40288600  0.22117700  0.59898900  1
  H  361  1  0.61288600  0.80890200  0.39972500  1
  H  362  1  0.55832700  0.80936600  0.41932400  1
  H  363  1  0.54913700  0.87136900  0.41094900  1
  H  364  1  0.60107000  0.87096500  0.38955900  1
  H  365  1  0.50637500  0.84761100  0.38630700  1
  H  366  1  0.45387200  0.84747200  0.36611900  1
  H  367  1  0.50669700  0.80876100  0.45076100  1
  H  368  1  0.50495200  0.80850300  0.48640100  1
  H  369  1  0.51825800  0.87122800  0.48676600  1
  H  370  1  0.51801800  0.87125400  0.45109900  1
  H  371  1  0.44208600  0.83184200  0.43635600  1
  H  372  1  0.38911800  0.83039500  0.41559800  1
  H  392  1  0.41101400  0.41780400  0.79504500  1
  H  393  1  0.46556500  0.43747400  0.79540800  1
  H  394  1  0.48030500  0.42488600  0.85639000  1
  H  395  1  0.42814400  0.40357500  0.85591300  1
  H  396  1  0.51892400  0.40152600  0.82776300  1
  H  397  1  0.57092800  0.38115200  0.82811900  1
  H  398  1  0.52610700  0.46668800  0.79438600  1
  H  399  1  0.52731500  0.50242800  0.79412600  1
  H  400  1  0.50208300  0.50283700  0.85573400  1
  H  401  1  0.50243200  0.46714200  0.85586700  1
  H  402  1  0.58596600  0.45254300  0.82121900  1
  H  403  1  0.63864500  0.43166900  0.81958100  1
  H  423  1  0.39002900  0.60317400  0.18495000  1
  H  424  1  0.44281500  0.58233400  0.18413300  1
  H  425  1  0.50917200  0.63292000  0.17350900  1
  H  426  1  0.45698600  0.65317900  0.17253000  1
  H  427  1  0.55028200  0.60911700  0.14780500  1
  H  428  1  0.60295300  0.62998900  0.14868900  1
  H  429  1  0.52262700  0.56744400  0.14786800  1
  H  430  1  0.52248900  0.53174900  0.14807600  1
  H  431  1  0.50356700  0.53240800  0.21034300  1
  H  432  1  0.50521600  0.56811500  0.20994500  1
  H  433  1  0.56126500  0.59774300  0.20924100  1
  H  434  1  0.61642700  0.61682100  0.21006800  1
  H  454  1  0.39054700  0.82858400  0.58855700  1
  H  455  1  0.44366100  0.82930600  0.56769100  1
  H  456  1  0.50703600  0.84922100  0.61657500  1
  H  457  1  0.45463500  0.84896100  0.63700400  1
  H  458  1  0.55245200  0.87073800  0.59092500  1
  H  459  1  0.60487700  0.87029900  0.61199000  1
  H  460  1  0.48764200  0.86771500  0.55262800  1
  H  461  1  0.48524700  0.86776100  0.51697600  1
  H  462  1  0.53846600  0.81165100  0.51617400  1
  H  463  1  0.53787400  0.81113300  0.55160600  1
  H  464  1  0.55635600  0.80819200  0.58635800  1
  H  465  1  0.61161400  0.80755700  0.60493400  1
  H  485  1  0.38866600  0.19956900  0.41657800  1
  H  486  1  0.44142000  0.19806300  0.43741400  1
  H  487  1  0.50826400  0.19097400  0.38640500  1
  H  488  1  0.45615200  0.19062300  0.36605400  1
  H  489  1  0.54749900  0.16267100  0.40988600  1
  H  490  1  0.60015000  0.16313800  0.38889000  1
  H  491  1  0.52268500  0.16303500  0.45211400  1
  H  492  1  0.52277300  0.16320700  0.48781000  1
  H  493  1  0.50180200  0.22526900  0.48726800  1
  H  494  1  0.50313400  0.22492300  0.45153700  1
  H  495  1  0.56144100  0.22377000  0.42213600  1
  H  496  1  0.61630900  0.22415600  0.40272200  1
  H  521  1  0.18449500  0.12125200  0.32212500  1
  H  522  1  0.23502200  0.14426000  0.32078500  1
  H  523  1  0.11021100  0.16959900  0.32566600  1
  H  524  1  0.16049200  0.19251500  0.32415300  1
  H  525  1  0.20242800  0.23316900  0.28699800  1
  H  526  1  0.20341500  0.25723600  0.26122800  1
  H  527  1  0.31861500  0.23325900  0.28820300  1
  H  528  1  0.31944400  0.25890200  0.26413600  1
  H  529  1  0.36166300  0.20955600  0.32877400  1
  H  530  1  0.41158600  0.20980000  0.35098200  1
  H  531  1  0.34527400  0.18324600  0.39544800  1
  H  532  1  0.29379000  0.18513200  0.37375200  1
  H  533  1  0.26330000  0.17245300  0.34505200  1
  H  534  1  0.21213700  0.20000800  0.29624400  1
  H  535  1  0.30666100  0.22556800  0.32144200  1
  H  560  1  0.16214700  0.89629300  0.64986200  1
  H  561  1  0.20825500  0.87169300  0.65097300  1
  H  562  1  0.14227000  0.88793500  0.71144000  1
  H  563  1  0.19165700  0.86539100  0.71306200  1
  H  564  1  0.20238800  0.80012000  0.71475800  1
  H  565  1  0.20275500  0.77539600  0.74037000  1
  H  566  1  0.31860100  0.80217200  0.71660200  1
  H  567  1  0.31878300  0.77659100  0.74121300  1
  H  568  1  0.36350000  0.82613700  0.67582300  1
  H  569  1  0.41378600  0.82610600  0.65349100  1
  H  570  1  0.34551100  0.84899200  0.60789000  1
  H  571  1  0.29420000  0.84764300  0.62998900  1
  H  572  1  0.26773500  0.86290300  0.66000400  1
  H  573  1  0.21238100  0.83388800  0.70677900  1
  H  574  1  0.30764900  0.80873100  0.68243600  1
  H  599  1  0.18288000  0.69573600  0.10536300  1
  H  600  1  0.23327300  0.69688300  0.12840800  1
  H  601  1  0.10845400  0.69150700  0.15359600  1
  H  602  1  0.15866400  0.69272200  0.17657500  1
  H  603  1  0.20814900  0.71978800  0.22632700  1
  H  604  1  0.20931900  0.74465900  0.25169700  1
  H  605  1  0.31062800  0.74019400  0.20487300  1
  H  606  1  0.31096700  0.76581600  0.22940000  1
  H  607  1  0.36296000  0.69126200  0.19077700  1
  H  608  1  0.41309500  0.66918900  0.19144500  1
  H  609  1  0.34606900  0.62334800  0.16791000  1
  H  610  1  0.29448600  0.64497700  0.16946000  1
  H  611  1  0.26290100  0.67308900  0.15601600  1
  H  612  1  0.20861500  0.72024900  0.18515200  1
  H  613  1  0.30925400  0.69942500  0.20732700  1
  H  638  1  0.16098000  0.36907800  0.88086600  1
  H  639  1  0.20658900  0.36899300  0.85625800  1
  H  640  1  0.13755500  0.30859300  0.86798800  1
  H  641  1  0.18699600  0.30770500  0.84588800  1
  H  642  1  0.23465900  0.28352200  0.80608000  1
  H  643  1  0.23401000  0.25858200  0.78076500  1
  H  644  1  0.29439800  0.32180300  0.76775200  1
  H  645  1  0.29560400  0.29630000  0.74297800  1
  H  646  1  0.33887500  0.36346700  0.79231500  1
  H  647  1  0.38793900  0.38617400  0.79379300  1
  H  648  1  0.36724100  0.39529100  0.85519100  1
  H  649  1  0.32165200  0.37043800  0.85429900  1
  H  650  1  0.26360900  0.36136200  0.84592400  1
  H  651  1  0.21074500  0.31498800  0.81542600  1
  H  652  1  0.31740600  0.33182100  0.79927700  1
  H  677  1  0.86697800  0.89542800  0.35492000  1
  H  678  1  0.82159500  0.87050000  0.35410200  1
  H  679  1  0.88777000  0.88615600  0.29355300  1
  H  680  1  0.83879700  0.86340500  0.29213000  1
  H  681  1  0.79324300  0.82225600  0.26748300  1
  H  682  1  0.79403300  0.79700300  0.24245600  1
  H  683  1  0.73427900  0.78356900  0.30576100  1
  H  684  1  0.73319100  0.75887500  0.28019200  1
  H  685  1  0.68753800  0.80768500  0.34651200  1
  H  686  1  0.63818800  0.80881500  0.36894700  1
  H  687  1  0.66074200  0.86964100  0.38038100  1
  H  688  1  0.70633400  0.86925500  0.35564500  1
  H  689  1  0.76371600  0.86130900  0.34589600  1
  H  690  1  0.81692000  0.83188800  0.29897500  1
  H  691  1  0.71049100  0.81495900  0.31557200  1
  H  716  1  0.84347700  0.12100100  0.67906000  1
  H  717  1  0.79244200  0.14363400  0.68008200  1
  H  718  1  0.91686000  0.16985000  0.67817400  1
  H  719  1  0.86601700  0.19242100  0.67930600  1
  H  720  1  0.81543100  0.24081900  0.70498700  1
  H  721  1  0.81524600  0.26627000  0.72972500  1
  H  722  1  0.71282900  0.22009800  0.72591300  1
  H  723  1  0.71345100  0.24476600  0.75143500  1
  H  724  1  0.70395500  0.22721100  0.64808000  1
  H  725  1  0.65381200  0.22694900  0.62535900  1
  H  726  1  0.64180300  0.16480800  0.63397000  1
  H  727  1  0.69272000  0.16504800  0.65635300  1
  H  728  1  0.76327500  0.17231000  0.65680600  1
  H  729  1  0.81491100  0.20010300  0.70570900  1
  H  730  1  0.71284500  0.22122100  0.68529900  1
  H  755  1  0.84417700  0.35067100  0.10892600  1
  H  756  1  0.79250800  0.34870600  0.13053200  1
  H  757  1  0.91039000  0.32435500  0.15358000  1
  H  758  1  0.86025500  0.32444300  0.17566500  1
  H  759  1  0.81752100  0.30196100  0.21715000  1
  H  760  1  0.81791100  0.27633200  0.24174000  1
  H  761  1  0.70122200  0.30090100  0.21665700  1
  H  762  1  0.70184700  0.27609600  0.24217900  1
  H  763  1  0.70428900  0.37203300  0.21401000  1
  H  764  1  0.65448700  0.39506300  0.21336900  1
  H  765  1  0.64178600  0.38514800  0.15145800  1
  H  766  1  0.69214200  0.36247300  0.15207100  1
  H  767  1  0.76280400  0.36185100  0.15948500  1
  H  768  1  0.80511500  0.30847800  0.18306900  1
  H  769  1  0.71203600  0.33491800  0.20884100  1
  H  794  1  0.84520900  0.68478100  0.89616600  1
  H  795  1  0.79372800  0.68656300  0.87436200  1
  H  796  1  0.91378200  0.70592400  0.84986000  1
  H  797  1  0.86335200  0.70595900  0.82773800  1
  H  798  1  0.80959100  0.72185800  0.77876600  1
  H  799  1  0.80901100  0.74675700  0.75351800  1
  H  800  1  0.70795000  0.74304500  0.80058900  1
  H  801  1  0.70828900  0.76881700  0.77616100  1
  H  802  1  0.65877600  0.69274600  0.82732700  1
  H  803  1  0.60877000  0.66961200  0.82846400  1
  H  804  1  0.68340600  0.62168400  0.82223500  1
  H  805  1  0.73357400  0.64487800  0.82119800  1
  H  806  1  0.76302400  0.67222100  0.84595200  1
  H  807  1  0.80955300  0.72359300  0.81983200  1
  H  808  1  0.70833600  0.70183500  0.79922600  1
  H  833  1  0.84722400  0.91053400  0.66767200  1
  H  834  1  0.79574600  0.88883400  0.66948900  1
  H  835  1  0.91224600  0.86710000  0.69678300  1
  H  836  1  0.86236700  0.84481400  0.69654300  1
  H  837  1  0.81732000  0.80464200  0.71999000  1
  H  838  1  0.81689000  0.78034100  0.74540500  1
  H  839  1  0.70111100  0.80431100  0.71906700  1
  H  840  1  0.70084400  0.77825600  0.74278100  1
  H  841  1  0.69070200  0.80636900  0.65566800  1
  H  842  1  0.64086100  0.80767300  0.63381800  1
  H  843  1  0.66327800  0.86855200  0.62237900  1
  H  844  1  0.70957500  0.86794600  0.64678100  1
  H  845  1  0.76835700  0.85898300  0.65664400  1
  H  846  1  0.80620200  0.83804100  0.71188000  1
  H  847  1  0.71197300  0.81316100  0.68638400  1
  H  872  1  0.88682900  0.15010700  0.35395700  1
  H  873  1  0.83634100  0.17278200  0.35377100  1
  H  874  1  0.87301000  0.14062400  0.29204900  1
  H  875  1  0.82319800  0.16354900  0.29183700  1
  H  876  1  0.78943600  0.21145100  0.26722300  1
  H  877  1  0.78944400  0.23690800  0.24242400  1
  H  878  1  0.73358500  0.25022700  0.30678000  1
  H  879  1  0.73160800  0.27511900  0.28144900  1
  H  880  1  0.68951200  0.22656800  0.34874300  1
  H  881  1  0.63989500  0.22510900  0.37110000  1
  H  882  1  0.66182100  0.16404300  0.38142600  1
  H  883  1  0.70839100  0.16490300  0.35699900  1
  H  884  1  0.76726200  0.17371000  0.34771100  1
  H  885  1  0.81464900  0.20096300  0.29773900  1
  H  886  1  0.71025200  0.21897300  0.31722200  1
  H  911  1  0.84343300  0.34560800  0.89750400  1
  H  912  1  0.79242000  0.34391300  0.87510600  1
  H  913  1  0.91475100  0.32869700  0.85071100  1
  H  914  1  0.86456400  0.32810600  0.82825300  1
  H  915  1  0.82268300  0.30035400  0.78763800  1
  H  916  1  0.82238000  0.27463700  0.76354000  1
  H  917  1  0.70661500  0.30270000  0.78547300  1
  H  918  1  0.70660700  0.27859600  0.75978000  1
  H  919  1  0.66480600  0.34375500  0.80930100  1
  H  920  1  0.61528200  0.36615200  0.80893300  1
  H  921  1  0.68204000  0.41034900  0.83561200  1
  H  922  1  0.73326000  0.38846500  0.83375800  1
  H  923  1  0.76350100  0.35989000  0.84632700  1
  H  924  1  0.81031300  0.30871300  0.82084100  1
  H  925  1  0.71969500  0.33592500  0.79355900  1
  H  950  1  0.88683400  0.66648800  0.13489700  1
  H  951  1  0.83670700  0.66701000  0.15773800  1
  H  952  1  0.87110800  0.72790300  0.12334200  1
  H  953  1  0.82126800  0.72844000  0.14634000  1
  H  954  1  0.82158700  0.73151700  0.21736100  1
  H  955  1  0.82147400  0.75702900  0.24208200  1
  H  956  1  0.70550300  0.73428600  0.21447800  1
  H  957  1  0.70552700  0.75887300  0.24017700  1
  H  958  1  0.69280800  0.66944400  0.21290400  1
  H  959  1  0.64298400  0.64730700  0.21133200  1
  H  960  1  0.66310100  0.63841900  0.14984400  1
  H  961  1  0.70934600  0.66281800  0.15084800  1
  H  962  1  0.76799700  0.67214900  0.15889900  1
  H  963  1  0.81214600  0.72445300  0.18325700  1
  H  964  1  0.71500400  0.70049600  0.20691900  1
  H  989  1  0.14282300  0.14992900  0.65079400  1
  H  990  1  0.19366200  0.17231300  0.65125700  1
  H  991  1  0.15601900  0.13987600  0.71263700  1
  H  992  1  0.20635600  0.16252400  0.71312200  1
  H  993  1  0.20669700  0.23326800  0.71559300  1
  H  994  1  0.20684300  0.25805800  0.74104400  1
  H  995  1  0.32282700  0.23073300  0.71805000  1
  H  996  1  0.32281400  0.25646300  0.74257300  1
  H  997  1  0.36539700  0.19469900  0.67711500  1
  H  998  1  0.41596400  0.19319800  0.65435200  1
  H  999  1  0.34223700  0.19684500  0.60577600  1
  H  1000  1  0.29145000  0.19809800  0.62861900  1
  H  1001  1  0.26387800  0.17291100  0.65769200  1
  H  1002  1  0.21589600  0.19932700  0.70826600  1
  H  1003  1  0.31344200  0.22293200  0.68412400  1
  H  1028  1  0.18153500  0.91086600  0.33467100  1
  H  1029  1  0.23266500  0.88892100  0.33263300  1
  H  1030  1  0.11405800  0.86652800  0.30873900  1
  H  1031  1  0.16349800  0.84408700  0.30896800  1
  H  1032  1  0.20392400  0.80288300  0.28538600  1
  H  1033  1  0.20312000  0.77864000  0.25981800  1
  H  1034  1  0.31998000  0.79983200  0.28720000  1
  H  1035  1  0.31886800  0.77397900  0.26323500  1
  H  1036  1  0.36240900  0.82568100  0.32789800  1
  H  1037  1  0.41247300  0.82585600  0.35015000  1
  H  1038  1  0.34380900  0.84842700  0.39575800  1
  H  1039  1  0.29247900  0.84641300  0.37382200  1
  H  1040  1  0.26287800  0.86041400  0.34523400  1
  H  1041  1  0.21804500  0.83614400  0.29291200  1
  H  1042  1  0.30760200  0.80829500  0.32050200  1
  H  1067  1  0.16390200  0.66501500  0.88165200  1
  H  1068  1  0.21027300  0.66552600  0.85722800  1
  H  1069  1  0.13896400  0.72526300  0.86867100  1
  H  1070  1  0.18871700  0.72658200  0.84664400  1
  H  1071  1  0.23407300  0.75015900  0.80559300  1
  H  1072  1  0.23202300  0.77494700  0.78015400  1
  H  1073  1  0.29076700  0.71142200  0.76635100  1
  H  1074  1  0.29069800  0.73678600  0.74144800  1
  H  1075  1  0.32409900  0.66355800  0.79138700  1
  H  1076  1  0.37357400  0.64042200  0.79185900  1
  H  1077  1  0.38719900  0.65031500  0.85372200  1
  H  1078  1  0.33705300  0.67321900  0.85327500  1
  H  1079  1  0.26816900  0.67414400  0.84708200  1
  H  1080  1  0.21085400  0.71880200  0.81587000  1
  H  1081  1  0.31573800  0.70108700  0.79701300  1
  H  1106  1  0.16126100  0.37038000  0.12343300  1
  H  1107  1  0.20796100  0.36959200  0.14774700  1
  H  1108  1  0.13969400  0.30927700  0.13381200  1
  H  1109  1  0.18953300  0.30788500  0.15601900  1
  H  1110  1  0.21296200  0.31567800  0.22726700  1
  H  1111  1  0.21228200  0.29090300  0.25269300  1
  H  1112  1  0.31387400  0.29307900  0.20588600  1
  H  1113  1  0.31233800  0.26756100  0.23051300  1
  H  1114  1  0.36783900  0.34162700  0.17837200  1
  H  1115  1  0.41819400  0.36462500  0.17721300  1
  H  1116  1  0.34380900  0.41289500  0.18120100  1
  H  1117  1  0.29337900  0.38987800  0.18211700  1
  H  1118  1  0.26710100  0.36082300  0.15647200  1
  H  1119  1  0.21203700  0.31472300  0.18719200  1
  H  1120  1  0.31588700  0.33393800  0.20644800  1
  H  1140  1  0.34413900  0.56264800  0.29778500  1
  H  1141  1  0.29030800  0.54178100  0.29785700  1
  H  1142  1  0.25614000  0.56773700  0.35206400  1
  H  1143  1  0.30918900  0.58904600  0.35184600  1
  H  1144  1  0.18044800  0.54318000  0.35126300  1
  H  1145  1  0.12651300  0.56372300  0.35082100  1
  H  1146  1  0.25924100  0.51687200  0.35282500  1
  H  1147  1  0.26027700  0.48116700  0.35284100  1
  H  1148  1  0.20971100  0.48096200  0.29601300  1
  H  1149  1  0.21054300  0.51666500  0.29583900  1
  H  1150  1  0.21220300  0.56618600  0.29537900  1
  H  1151  1  0.15952400  0.58747000  0.29513700  1
  H  1171  1  0.33828000  0.36772500  0.70964800  1
  H  1172  1  0.28334400  0.38709000  0.70896700  1
  H  1173  1  0.26835100  0.37299900  0.64833500  1
  H  1174  1  0.32099400  0.35203900  0.64916600  1
  H  1175  1  0.22991900  0.35030800  0.67793400  1
  H  1176  1  0.17792900  0.32987600  0.67770000  1
  H  1177  1  0.22215500  0.41565100  0.70981700  1
  H  1178  1  0.22081500  0.45138300  0.70999700  1
  H  1179  1  0.24646500  0.45169900  0.64845200  1
  H  1180  1  0.24634200  0.41599100  0.64840700  1
  H  1181  1  0.16256900  0.40145300  0.68212200  1
  H  1182  1  0.10987600  0.38060400  0.68385800  1
  H  1202  1  0.34342900  0.16823300  0.09831500  1
  H  1203  1  0.28979000  0.16862200  0.07732100  1
  H  1204  1  0.25382700  0.11471400  0.10319400  1
  H  1205  1  0.30673300  0.11445100  0.12460000  1
  H  1206  1  0.17871600  0.11615300  0.07905200  1
  H  1207  1  0.12478700  0.11719900  0.09958100  1
  H  1208  1  0.25413700  0.11326900  0.05238500  1
  H  1209  1  0.25460100  0.11311600  0.01663300  1
  H  1210  1  0.21142600  0.17171400  0.01651000  1
  H  1211  1  0.21255000  0.17189300  0.05220800  1
  H  1212  1  0.21145700  0.17223900  0.10117900  1
  H  1213  1  0.15856600  0.17314900  0.12236800  1
  H  1233  1  0.32828800  0.75598800  0.89665300  1
  H  1234  1  0.27394600  0.75650300  0.91610700  1
  H  1235  1  0.27335500  0.81923300  0.91476300  1
  H  1236  1  0.32467500  0.81911800  0.89303400  1
  H  1237  1  0.22353700  0.80316600  0.88981000  1
  H  1238  1  0.17100200  0.80210800  0.86927200  1
  H  1239  1  0.25729100  0.75975500  0.95258500  1
  H  1240  1  0.25770600  0.76016900  0.98812800  1
  H  1241  1  0.20606000  0.81669600  0.98739400  1
  H  1242  1  0.20795700  0.81657200  0.95168700  1
  H  1243  1  0.16604100  0.77300900  0.93544800  1
  H  1244  1  0.11247500  0.77217400  0.91473800  1
  H  1264  1  0.13122100  0.36602900  0.29464500  1
  H  1265  1  0.18556300  0.38585600  0.29501900  1
  H  1266  1  0.19964000  0.37392500  0.35617400  1
  H  1267  1  0.14777100  0.35242900  0.35570700  1
  H  1268  1  0.23859100  0.35033800  0.32808400  1
  H  1269  1  0.29060600  0.32997900  0.32832100  1
  H  1270  1  0.24541500  0.41538600  0.29402800  1
  H  1271  1  0.24691700  0.45112200  0.29372800  1
  H  1272  1  0.22242800  0.45165400  0.35542500  1
  H  1273  1  0.22248900  0.41595400  0.35559100  1
  H  1274  1  0.30543500  0.40127500  0.32034100  1
  H  1275  1  0.35807800  0.38038600  0.31859200  1
  H  1295  1  0.12278000  0.56216100  0.70447900  1
  H  1296  1  0.17683300  0.54147200  0.70495300  1
  H  1297  1  0.21402000  0.56871000  0.65198200  1
  H  1298  1  0.16082100  0.58990000  0.65173700  1
  H  1299  1  0.28866000  0.54343300  0.65274400  1
  H  1300  1  0.34300800  0.56362400  0.65357800  1
  H  1301  1  0.21006400  0.51710300  0.65073400  1
  H  1302  1  0.20893500  0.48139100  0.65072600  1
  H  1303  1  0.25814500  0.48117800  0.70788800  1
  H  1304  1  0.25744700  0.51687400  0.70803300  1
  H  1305  1  0.25650400  0.56624700  0.70862600  1
  H  1306  1  0.30975000  0.58714600  0.70929900  1
  H  1326  1  0.10831800  0.78238100  0.08803300  1
  H  1327  1  0.16131300  0.78405900  0.06739600  1
  H  1328  1  0.22724900  0.79248100  0.11856300  1
  H  1329  1  0.17480900  0.79257600  0.13871300  1
  H  1330  1  0.26726500  0.82012100  0.09511000  1
  H  1331  1  0.32000200  0.81962900  0.11604300  1
  H  1332  1  0.24182700  0.81987400  0.05300300  1
  H  1333  1  0.24190100  0.81972300  0.01730900  1
  H  1334  1  0.22180900  0.75755800  0.01785700  1
  H  1335  1  0.22334500  0.75788400  0.05355600  1
  H  1336  1  0.28079000  0.75896000  0.08303700  1
  H  1337  1  0.33577300  0.75854200  0.10235500  1
  H  1357  1  0.11083700  0.15211900  0.91532800  1
  H  1358  1  0.16394500  0.15150900  0.93612700  1
  H  1359  1  0.22781000  0.13301500  0.88688300  1
  H  1360  1  0.17532400  0.13277300  0.86660000  1
  H  1361  1  0.27227100  0.11120800  0.91232400  1
  H  1362  1  0.32451200  0.11151900  0.89109400  1
  H  1363  1  0.21749400  0.11238500  0.95101900  1
  H  1364  1  0.21615400  0.11223900  0.98678700  1
  H  1365  1  0.25004500  0.17260000  0.98712400  1
  H  1366  1  0.24959600  0.17274200  0.95151700  1
  H  1367  1  0.27809800  0.17364600  0.91791200  1
  H  1368  1  0.33305800  0.17408100  0.89889500  1
  H  1388  1  0.84337300  0.06325870  0.79866500  1
  H  1389  1  0.79000300  0.04205570  0.79837900  1
  H  1390  1  0.75536300  0.06682070  0.85305600  1
  H  1391  1  0.80802000  0.08840170  0.85325600  1
  H  1392  1  0.67976100  0.04294970  0.85149700  1
  H  1393  1  0.62611300  0.06372270  0.85079600  1
  H  1394  1  0.75865500  0.01646870  0.85335700  1
  H  1395  1  0.75994900  0.98077300  0.85333100  1
  H  1396  1  0.71015900  0.98053300  0.79630000  1
  H  1397  1  0.71075900  0.01624070  0.79617000  1
  H  1398  1  0.71251000  0.06565670  0.79565300  1
  H  1399  1  0.66013600  0.08714970  0.79515100  1
  H  1419  1  0.80841900  0.84472600  0.20982800  1
  H  1420  1  0.75536300  0.86572900  0.20900700  1
  H  1421  1  0.78802900  0.88837600  0.15313300  1
  H  1422  1  0.84228800  0.86811600  0.15414600  1
  H  1423  1  0.71266100  0.86398900  0.15172100  1
  H  1424  1  0.66010300  0.84232600  0.15157300  1
  H  1425  1  0.75848500  0.91510400  0.20783300  1
  H  1426  1  0.75954700  0.95077100  0.20749000  1
  H  1427  1  0.70632100  0.95042900  0.15139100  1
  H  1428  1  0.70738600  0.91474400  0.15148200  1
  H  1429  1  0.67719800  0.88934600  0.20596200  1
  H  1430  1  0.62386600  0.86809900  0.20568300  1
  H  1450  1  0.80817700  0.67196100  0.62378100  1
  H  1451  1  0.75527700  0.67173000  0.60267800  1
  H  1452  1  0.78697700  0.61596800  0.57938200  1
  H  1453  1  0.84116500  0.61642400  0.59970800  1
  H  1454  1  0.71103400  0.61520900  0.60412100  1
  H  1455  1  0.65793400  0.61544400  0.62539400  1
  H  1456  1  0.75775000  0.67111300  0.55290500  1
  H  1457  1  0.75858900  0.67088800  0.51720900  1
  H  1458  1  0.70605600  0.61460800  0.51747300  1
  H  1459  1  0.70713300  0.61463800  0.55316600  1
  H  1460  1  0.67702700  0.66943300  0.57816300  1
  H  1461  1  0.62313900  0.66951600  0.59898900  1
  H  1481  1  0.83313900  0.25724100  0.39972500  1
  H  1482  1  0.77858000  0.25770500  0.41932400  1
  H  1483  1  0.76939000  0.31970800  0.41094900  1
  H  1484  1  0.82132300  0.31930400  0.38955900  1
  H  1485  1  0.72662800  0.29595000  0.38630700  1
  H  1486  1  0.67412500  0.29581100  0.36611900  1
  H  1487  1  0.72695000  0.25710000  0.45076100  1
  H  1488  1  0.72520500  0.25684200  0.48640100  1
  H  1489  1  0.73851100  0.31956700  0.48676600  1
  H  1490  1  0.73827100  0.31959300  0.45109900  1
  H  1491  1  0.66233900  0.28018100  0.43635600  1
  H  1492  1  0.60937100  0.27873400  0.41559800  1
  H  1512  1  0.63126700  0.86614300  0.79504500  1
  H  1513  1  0.68581800  0.88581300  0.79540800  1
  H  1514  1  0.70055800  0.87322500  0.85639000  1
  H  1515  1  0.64839700  0.85191400  0.85591300  1
  H  1516  1  0.73917700  0.84986500  0.82776300  1
  H  1517  1  0.79118100  0.82949100  0.82811900  1
  H  1518  1  0.74636000  0.91502700  0.79438600  1
  H  1519  1  0.74756800  0.95076700  0.79412600  1
  H  1520  1  0.72233600  0.95117600  0.85573400  1
  H  1521  1  0.72268500  0.91548100  0.85586700  1
  H  1522  1  0.80621900  0.90088200  0.82121900  1
  H  1523  1  0.85889800  0.88000800  0.81958100  1
  H  1543  1  0.61028200  0.05151270  0.18495000  1
  H  1544  1  0.66306800  0.03067270  0.18413300  1
  H  1545  1  0.72942500  0.08125870  0.17350900  1
  H  1546  1  0.67723900  0.10151800  0.17253000  1
  H  1547  1  0.77053500  0.05745570  0.14780500  1
  H  1548  1  0.82320600  0.07832770  0.14868900  1
  H  1549  1  0.74288000  0.01578270  0.14786800  1
  H  1550  1  0.74274200  0.98008800  0.14807600  1
  H  1551  1  0.72382000  0.98074700  0.21034300  1
  H  1552  1  0.72546900  0.01645370  0.20994500  1
  H  1553  1  0.78151800  0.04608170  0.20924100  1
  H  1554  1  0.83668000  0.06515970  0.21006800  1
  H  1574  1  0.61080000  0.27692300  0.58855700  1
  H  1575  1  0.66391400  0.27764500  0.56769100  1
  H  1576  1  0.72728900  0.29756000  0.61657500  1
  H  1577  1  0.67488800  0.29730000  0.63700400  1
  H  1578  1  0.77270500  0.31907700  0.59092500  1
  H  1579  1  0.82513000  0.31863800  0.61199000  1
  H  1580  1  0.70789500  0.31605400  0.55262800  1
  H  1581  1  0.70550000  0.31610000  0.51697600  1
  H  1582  1  0.75871900  0.25999000  0.51617400  1
  H  1583  1  0.75812700  0.25947200  0.55160600  1
  H  1584  1  0.77660900  0.25653100  0.58635800  1
  H  1585  1  0.83186700  0.25589600  0.60493400  1
  H  1605  1  0.60891900  0.64790800  0.41657800  1
  H  1606  1  0.66167300  0.64640200  0.43741400  1
  H  1607  1  0.72851700  0.63931300  0.38640500  1
  H  1608  1  0.67640500  0.63896200  0.36605400  1
  H  1609  1  0.76775200  0.61101000  0.40988600  1
  H  1610  1  0.82040300  0.61147700  0.38889000  1
  H  1611  1  0.74293800  0.61137400  0.45211400  1
  H  1612  1  0.74302600  0.61154600  0.48781000  1
  H  1613  1  0.72205500  0.67360800  0.48726800  1
  H  1614  1  0.72338700  0.67326200  0.45153700  1
  H  1615  1  0.78169400  0.67210900  0.42213600  1
  H  1616  1  0.83656200  0.67249500  0.40272200  1
  H  1641  1  0.40474800  0.56959100  0.32212500  1
  H  1642  1  0.45527500  0.59259900  0.32078500  1
  H  1643  1  0.33046400  0.61793800  0.32566600  1
  H  1644  1  0.38074500  0.64085400  0.32415300  1
  H  1645  1  0.42268100  0.68150800  0.28699800  1
  H  1646  1  0.42366800  0.70557500  0.26122800  1
  H  1647  1  0.53886800  0.68159800  0.28820300  1
  H  1648  1  0.53969700  0.70724100  0.26413600  1
  H  1649  1  0.58191600  0.65789500  0.32877400  1
  H  1650  1  0.63183900  0.65813900  0.35098200  1
  H  1651  1  0.56552700  0.63158500  0.39544800  1
  H  1652  1  0.51404300  0.63347100  0.37375200  1
  H  1653  1  0.48355300  0.62079200  0.34505200  1
  H  1654  1  0.43239000  0.64834700  0.29624400  1
  H  1655  1  0.52691400  0.67390700  0.32144200  1
  H  1680  1  0.38240000  0.34463200  0.64986200  1
  H  1681  1  0.42850800  0.32003200  0.65097300  1
  H  1682  1  0.36252300  0.33627400  0.71144000  1
  H  1683  1  0.41191000  0.31373000  0.71306200  1
  H  1684  1  0.42264100  0.24845900  0.71475800  1
  H  1685  1  0.42300800  0.22373500  0.74037000  1
  H  1686  1  0.53885400  0.25051100  0.71660200  1
  H  1687  1  0.53903600  0.22493000  0.74121300  1
  H  1688  1  0.58375300  0.27447600  0.67582300  1
  H  1689  1  0.63403900  0.27444500  0.65349100  1
  H  1690  1  0.56576400  0.29733100  0.60789000  1
  H  1691  1  0.51445300  0.29598200  0.62998900  1
  H  1692  1  0.48798800  0.31124200  0.66000400  1
  H  1693  1  0.43263400  0.28222700  0.70677900  1
  H  1694  1  0.52790200  0.25707000  0.68243600  1
  H  1719  1  0.40313300  0.14407500  0.10536300  1
  H  1720  1  0.45352600  0.14522200  0.12840800  1
  H  1721  1  0.32870700  0.13984600  0.15359600  1
  H  1722  1  0.37891700  0.14106100  0.17657500  1
  H  1723  1  0.42840200  0.16812700  0.22632700  1
  H  1724  1  0.42957200  0.19299800  0.25169700  1
  H  1725  1  0.53088100  0.18853300  0.20487300  1
  H  1726  1  0.53122000  0.21415500  0.22940000  1
  H  1727  1  0.58321300  0.13960100  0.19077700  1
  H  1728  1  0.63334800  0.11752800  0.19144500  1
  H  1729  1  0.56632200  0.07168670  0.16791000  1
  H  1730  1  0.51473900  0.09331570  0.16946000  1
  H  1731  1  0.48315400  0.12142800  0.15601600  1
  H  1732  1  0.42886800  0.16858800  0.18515200  1
  H  1733  1  0.52950700  0.14776400  0.20732700  1
  H  1758  1  0.38123300  0.81741700  0.88086600  1
  H  1759  1  0.42684200  0.81733200  0.85625800  1
  H  1760  1  0.35780800  0.75693200  0.86798800  1
  H  1761  1  0.40724900  0.75604400  0.84588800  1
  H  1762  1  0.45491200  0.73186100  0.80608000  1
  H  1763  1  0.45426300  0.70692100  0.78076500  1
  H  1764  1  0.51465100  0.77014200  0.76775200  1
  H  1765  1  0.51585700  0.74463900  0.74297800  1
  H  1766  1  0.55912800  0.81180600  0.79231500  1
  H  1767  1  0.60819200  0.83451300  0.79379300  1
  H  1768  1  0.58749400  0.84363000  0.85519100  1
  H  1769  1  0.54190500  0.81877700  0.85429900  1
  H  1770  1  0.48386200  0.80970100  0.84592400  1
  H  1771  1  0.43099800  0.76332700  0.81542600  1
  H  1772  1  0.53765900  0.78016000  0.79927700  1
  H  1797  1  0.08723080  0.34376700  0.35492000  1
  H  1798  1  0.04184780  0.31883900  0.35410200  1
  H  1799  1  0.10802300  0.33449500  0.29355300  1
  H  1800  1  0.05904980  0.31174400  0.29213000  1
  H  1801  1  0.01349580  0.27059500  0.26748300  1
  H  1802  1  0.01428580  0.24534200  0.24245600  1
  H  1803  1  0.95453200  0.23190800  0.30576100  1
  H  1804  1  0.95344400  0.20721400  0.28019200  1
  H  1805  1  0.90779100  0.25602400  0.34651200  1
  H  1806  1  0.85844100  0.25715400  0.36894700  1
  H  1807  1  0.88099500  0.31798000  0.38038100  1
  H  1808  1  0.92658700  0.31759400  0.35564500  1
  H  1809  1  0.98396900  0.30964800  0.34589600  1
  H  1810  1  0.03717280  0.28022700  0.29897500  1
  H  1811  1  0.93074400  0.26329800  0.31557200  1
  H  1836  1  0.06372980  0.56934000  0.67906000  1
  H  1837  1  0.01269480  0.59197300  0.68008200  1
  H  1838  1  0.13711300  0.61818900  0.67817400  1
  H  1839  1  0.08626980  0.64076000  0.67930600  1
  H  1840  1  0.03568380  0.68915800  0.70498700  1
  H  1841  1  0.03549880  0.71460900  0.72972500  1
  H  1842  1  0.93308200  0.66843700  0.72591300  1
  H  1843  1  0.93370400  0.69310500  0.75143500  1
  H  1844  1  0.92420800  0.67555000  0.64808000  1
  H  1845  1  0.87406500  0.67528800  0.62535900  1
  H  1846  1  0.86205600  0.61314700  0.63397000  1
  H  1847  1  0.91297300  0.61338700  0.65635300  1
  H  1848  1  0.98352800  0.62064900  0.65680600  1
  H  1849  1  0.03516380  0.64844200  0.70570900  1
  H  1850  1  0.93309800  0.66956000  0.68529900  1
  H  1875  1  0.06442980  0.79901000  0.10892600  1
  H  1876  1  0.01276080  0.79704500  0.13053200  1
  H  1877  1  0.13064300  0.77269400  0.15358000  1
  H  1878  1  0.08050780  0.77278200  0.17566500  1
  H  1879  1  0.03777380  0.75030000  0.21715000  1
  H  1880  1  0.03816380  0.72467100  0.24174000  1
  H  1881  1  0.92147500  0.74924000  0.21665700  1
  H  1882  1  0.92210000  0.72443500  0.24217900  1
  H  1883  1  0.92454200  0.82037200  0.21401000  1
  H  1884  1  0.87474000  0.84340200  0.21336900  1
  H  1885  1  0.86203900  0.83348700  0.15145800  1
  H  1886  1  0.91239500  0.81081200  0.15207100  1
  H  1887  1  0.98305700  0.81019000  0.15948500  1
  H  1888  1  0.02536780  0.75681700  0.18306900  1
  H  1889  1  0.93228900  0.78325700  0.20884100  1
  H  1914  1  0.06546180  0.13312000  0.89616600  1
  H  1915  1  0.01398080  0.13490200  0.87436200  1
  H  1916  1  0.13403500  0.15426300  0.84986000  1
  H  1917  1  0.08360480  0.15429800  0.82773800  1
  H  1918  1  0.02984380  0.17019700  0.77876600  1
  H  1919  1  0.02926380  0.19509600  0.75351800  1
  H  1920  1  0.92820300  0.19138400  0.80058900  1
  H  1921  1  0.92854200  0.21715600  0.77616100  1
  H  1922  1  0.87902900  0.14108500  0.82732700  1
  H  1923  1  0.82902300  0.11795100  0.82846400  1
  H  1924  1  0.90365900  0.07002270  0.82223500  1
  H  1925  1  0.95382700  0.09321670  0.82119800  1
  H  1926  1  0.98327700  0.12056000  0.84595200  1
  H  1927  1  0.02980580  0.17193200  0.81983200  1
  H  1928  1  0.92858900  0.15017400  0.79922600  1
  H  1953  1  0.06747680  0.35887300  0.66767200  1
  H  1954  1  0.01599880  0.33717300  0.66948900  1
  H  1955  1  0.13249900  0.31543900  0.69678300  1
  H  1956  1  0.08261980  0.29315300  0.69654300  1
  H  1957  1  0.03757280  0.25298100  0.71999000  1
  H  1958  1  0.03714280  0.22868000  0.74540500  1
  H  1959  1  0.92136400  0.25265000  0.71906700  1
  H  1960  1  0.92109700  0.22659500  0.74278100  1
  H  1961  1  0.91095500  0.25470800  0.65566800  1
  H  1962  1  0.86111400  0.25601200  0.63381800  1
  H  1963  1  0.88353100  0.31689100  0.62237900  1
  H  1964  1  0.92982800  0.31628500  0.64678100  1
  H  1965  1  0.98861000  0.30732200  0.65664400  1
  H  1966  1  0.02645480  0.28638000  0.71188000  1
  H  1967  1  0.93222600  0.26150000  0.68638400  1
  H  1992  1  0.10708200  0.59844600  0.35395700  1
  H  1993  1  0.05659380  0.62112100  0.35377100  1
  H  1994  1  0.09326280  0.58896300  0.29204900  1
  H  1995  1  0.04345080  0.61188800  0.29183700  1
  H  1996  1  0.00968880  0.65979000  0.26722300  1
  H  1997  1  0.00969680  0.68524700  0.24242400  1
  H  1998  1  0.95383800  0.69856600  0.30678000  1
  H  1999  1  0.95186100  0.72345800  0.28144900  1
  H  2000  1  0.90976500  0.67490700  0.34874300  1
  H  2001  1  0.86014800  0.67344800  0.37110000  1
  H  2002  1  0.88207400  0.61238200  0.38142600  1
  H  2003  1  0.92864400  0.61324200  0.35699900  1
  H  2004  1  0.98751500  0.62204900  0.34771100  1
  H  2005  1  0.03490180  0.64930200  0.29773900  1
  H  2006  1  0.93050500  0.66731200  0.31722200  1
  H  2031  1  0.06368580  0.79394700  0.89750400  1
  H  2032  1  0.01267280  0.79225200  0.87510600  1
  H  2033  1  0.13500400  0.77703600  0.85071100  1
  H  2034  1  0.08481680  0.77644500  0.82825300  1
  H  2035  1  0.04293580  0.74869300  0.78763800  1
  H  2036  1  0.04263280  0.72297600  0.76354000  1
  H  2037  1  0.92686800  0.75103900  0.78547300  1
  H  2038  1  0.92686000  0.72693500  0.75978000  1
  H  2039  1  0.88505900  0.79209400  0.80930100  1
  H  2040  1  0.83553500  0.81449100  0.80893300  1
  H  2041  1  0.90229300  0.85868800  0.83561200  1
  H  2042  1  0.95351300  0.83680400  0.83375800  1
  H  2043  1  0.98375400  0.80822900  0.84632700  1
  H  2044  1  0.03056580  0.75705200  0.82084100  1
  H  2045  1  0.93994800  0.78426400  0.79355900  1
  H  2070  1  0.10708700  0.11482700  0.13489700  1
  H  2071  1  0.05695980  0.11534900  0.15773800  1
  H  2072  1  0.09136080  0.17624200  0.12334200  1
  H  2073  1  0.04152080  0.17677900  0.14634000  1
  H  2074  1  0.04183980  0.17985600  0.21736100  1
  H  2075  1  0.04172680  0.20536800  0.24208200  1
  H  2076  1  0.92575600  0.18262500  0.21447800  1
  H  2077  1  0.92578000  0.20721200  0.24017700  1
  H  2078  1  0.91306100  0.11778300  0.21290400  1
  H  2079  1  0.86323700  0.09564570  0.21133200  1
  H  2080  1  0.88335400  0.08675770  0.14984400  1
  H  2081  1  0.92959900  0.11115700  0.15084800  1
  H  2082  1  0.98825000  0.12048800  0.15889900  1
  H  2083  1  0.03239880  0.17279200  0.18325700  1
  H  2084  1  0.93525700  0.14883500  0.20691900  1
  H  2109  1  0.36307600  0.59826800  0.65079400  1
  H  2110  1  0.41391500  0.62065200  0.65125700  1
  H  2111  1  0.37627200  0.58821500  0.71263700  1
  H  2112  1  0.42660900  0.61086300  0.71312200  1
  H  2113  1  0.42695000  0.68160700  0.71559300  1
  H  2114  1  0.42709600  0.70639700  0.74104400  1
  H  2115  1  0.54308000  0.67907200  0.71805000  1
  H  2116  1  0.54306700  0.70480200  0.74257300  1
  H  2117  1  0.58565000  0.64303800  0.67711500  1
  H  2118  1  0.63621700  0.64153700  0.65435200  1
  H  2119  1  0.56249000  0.64518400  0.60577600  1
  H  2120  1  0.51170300  0.64643700  0.62861900  1
  H  2121  1  0.48413100  0.62125000  0.65769200  1
  H  2122  1  0.43614900  0.64766600  0.70826600  1
  H  2123  1  0.53369500  0.67127100  0.68412400  1
  H  2148  1  0.40178800  0.35920500  0.33467100  1
  H  2149  1  0.45291800  0.33726000  0.33263300  1
  H  2150  1  0.33431100  0.31486700  0.30873900  1
  H  2151  1  0.38375100  0.29242600  0.30896800  1
  H  2152  1  0.42417700  0.25122200  0.28538600  1
  H  2153  1  0.42337300  0.22697900  0.25981800  1
  H  2154  1  0.54023300  0.24817100  0.28720000  1
  H  2155  1  0.53912100  0.22231800  0.26323500  1
  H  2156  1  0.58266200  0.27402000  0.32789800  1
  H  2157  1  0.63272600  0.27419500  0.35015000  1
  H  2158  1  0.56406200  0.29676600  0.39575800  1
  H  2159  1  0.51273200  0.29475200  0.37382200  1
  H  2160  1  0.48313100  0.30875300  0.34523400  1
  H  2161  1  0.43829800  0.28448300  0.29291200  1
  H  2162  1  0.52785500  0.25663400  0.32050200  1
  H  2187  1  0.38415500  0.11335400  0.88165200  1
  H  2188  1  0.43052600  0.11386500  0.85722800  1
  H  2189  1  0.35921700  0.17360200  0.86867100  1
  H  2190  1  0.40897000  0.17492100  0.84664400  1
  H  2191  1  0.45432600  0.19849800  0.80559300  1
  H  2192  1  0.45227600  0.22328600  0.78015400  1
  H  2193  1  0.51102000  0.15976100  0.76635100  1
  H  2194  1  0.51095100  0.18512500  0.74144800  1
  H  2195  1  0.54435200  0.11189700  0.79138700  1
  H  2196  1  0.59382700  0.08876070  0.79185900  1
  H  2197  1  0.60745200  0.09865370  0.85372200  1
  H  2198  1  0.55730600  0.12155800  0.85327500  1
  H  2199  1  0.48842200  0.12248300  0.84708200  1
  H  2200  1  0.43110700  0.16714100  0.81587000  1
  H  2201  1  0.53599100  0.14942600  0.79701300  1
  H  2226  1  0.38151400  0.81871900  0.12343300  1
  H  2227  1  0.42821400  0.81793100  0.14774700  1
  H  2228  1  0.35994700  0.75761600  0.13381200  1
  H  2229  1  0.40978600  0.75622400  0.15601900  1
  H  2230  1  0.43321500  0.76401700  0.22726700  1
  H  2231  1  0.43253500  0.73924200  0.25269300  1
  H  2232  1  0.53412700  0.74141800  0.20588600  1
  H  2233  1  0.53259100  0.71590000  0.23051300  1
  H  2234  1  0.58809200  0.78996600  0.17837200  1
  H  2235  1  0.63844700  0.81296400  0.17721300  1
  H  2236  1  0.56406200  0.86123400  0.18120100  1
  H  2237  1  0.51363200  0.83821700  0.18211700  1
  H  2238  1  0.48735400  0.80916200  0.15647200  1
  H  2239  1  0.43229000  0.76306200  0.18719200  1
  H  2240  1  0.53614000  0.78227700  0.20644800  1
  C  2  1  0.04813400  0.10426700  0.32507800  1
  C  3  1  0.01456900  0.07185400  0.32433900  1
  C  4  1  0.98086300  0.10416700  0.32323300  1
  C  5  1  0.95541500  0.10381800  0.33916500  1
  C  6  1  0.92395500  0.11619500  0.33895800  1
  C  7  1  0.91679400  0.12952000  0.32291300  1
  C  8  1  0.94235700  0.12946800  0.30686200  1
  C  9  1  0.97362700  0.11699600  0.30696000  1
  C  10  1  0.07436700  0.10300600  0.30954600  1
  C  11  1  0.10601700  0.11524400  0.30957600  1
  C  12  1  0.11188900  0.12953400  0.32486200  1
  C  13  1  0.08568700  0.13060600  0.34049200  1
  C  14  1  0.05463300  0.11798100  0.34074500  1
  C  15  1  0.02856000  0.06102900  0.34076900  1
  C  16  1  0.02877900  0.03993200  0.34076300  1
  C  17  1  0.01473700  0.02869800  0.32444200  1
  C  18  1  0.00067400  0.03981200  0.30804900  1
  C  19  1  0.00074100  0.06090900  0.30794300  1
  C  33  1  0.05092200  0.93399700  0.67845600  1
  C  34  1  0.01395600  0.96406400  0.67909000  1
  C  35  1  0.98232700  0.93009700  0.67985000  1
  C  36  1  0.98476400  0.90894100  0.67895500  1
  C  37  1  0.95349400  0.89657700  0.67920300  1
  C  38  1  0.91745700  0.90444400  0.68110000  1
  C  39  1  0.91474300  0.92557900  0.68215000  1
  C  40  1  0.94620000  0.93801100  0.68136900  1
  C  41  1  0.07193100  0.93209500  0.69606700  1
  C  42  1  0.10395400  0.92017000  0.69645200  1
  C  43  1  0.11580400  0.90904100  0.67951700  1
  C  44  1  0.09486500  0.91172500  0.66175700  1
  C  45  1  0.06356800  0.92417300  0.66110800  1
  C  46  1  0.00689100  0.97485700  0.69680200  1
  C  47  1  0.00651900  0.99596500  0.69684200  1
  C  48  1  0.01328900  0.00724800  0.67923300  1
  C  49  1  0.02033700  0.99614900  0.66154600  1
  C  50  1  0.02067000  0.97505000  0.66145800  1
  C  64  1  0.04675100  0.69324800  0.08809500  1
  C  65  1  0.01312200  0.69425700  0.05569600  1
  C  66  1  0.97959600  0.69588400  0.08795300  1
  C  67  1  0.95387600  0.68008500  0.08782300  1
  C  68  1  0.92241300  0.68065700  0.10016800  1
  C  69  1  0.91553600  0.69696900  0.11320000  1
  C  70  1  0.94129400  0.71291400  0.11290300  1
  C  71  1  0.97264200  0.71242200  0.10049200  1
  C  72  1  0.07344000  0.70855100  0.08688600  1
  C  73  1  0.10494300  0.70826600  0.09922600  1
  C  74  1  0.11026600  0.69292400  0.11352100  1
  C  75  1  0.08363100  0.67750600  0.11450800  1
  C  76  1  0.05267000  0.67752500  0.10181700  1
  C  77  1  0.02490300  0.67732000  0.04487500  1
  C  78  1  0.02474800  0.67724700  0.02377200  1
  C  79  1  0.01273100  0.69405400  0.01257300  1
  C  80  1  0.00085900  0.71094700  0.02369200  1
  C  81  1  0.00112100  0.71108200  0.04477900  1
  C  95  1  0.04884500  0.33957900  0.91782000  1
  C  96  1  0.01271400  0.33988900  0.94861000  1
  C  97  1  0.98055400  0.33982000  0.91500200  1
  C  98  1  0.98029800  0.34822200  0.89553900  1
  C  99  1  0.94900900  0.34747400  0.88318500  1
  C  100  1  0.91579500  0.33856100  0.88971500  1
  C  101  1  0.91538200  0.33070200  0.90938300  1
  C  102  1  0.94715900  0.33107400  0.92159500  1
  C  103  1  0.06538600  0.32146300  0.91199700  1
  C  104  1  0.09718400  0.32134400  0.89992900  1
  C  105  1  0.11284300  0.33917300  0.89198500  1
  C  106  1  0.09597500  0.35726500  0.89844800  1
  C  107  1  0.06538000  0.35752800  0.91141600  1
  C  108  1  0.02636900  0.32357600  0.95978400  1
  C  109  1  0.02608800  0.32377800  0.98086500  1
  C  110  1  0.01156600  0.34013100  0.99184900  1
  C  111  1  0.99742600  0.35630800  0.98042100  1
  C  112  1  0.99814700  0.35625300  0.95930900  1
  C  126  1  0.97686500  0.93389400  0.32575800  1
  C  127  1  0.01374800  0.96394000  0.32484500  1
  C  128  1  0.04542500  0.93002200  0.32435400  1
  C  129  1  0.04311800  0.90893800  0.32629800  1
  C  130  1  0.07439600  0.89659800  0.32606500  1
  C  131  1  0.11024000  0.90438300  0.32308200  1
  C  132  1  0.11284900  0.92544700  0.32108700  1
  C  133  1  0.08141000  0.93788700  0.32188500  1
  C  134  1  0.95628800  0.93128300  0.30809400  1
  C  135  1  0.92467100  0.91905100  0.30790700  1
  C  136  1  0.91293100  0.90828200  0.32510200  1
  C  137  1  0.93330200  0.91180000  0.34291000  1
  C  138  1  0.96409100  0.92461000  0.34336600  1
  C  139  1  0.02045200  0.97464800  0.30704200  1
  C  140  1  0.02094400  0.99574800  0.30693600  1
  C  141  1  0.01457100  0.00707200  0.32455800  1
  C  142  1  0.00780500  0.99605600  0.34232600  1
  C  143  1  0.00741100  0.97496800  0.34248600  1
  C  157  1  0.98012200  0.10461700  0.67840700  1
  C  158  1  0.01357200  0.07210200  0.67937700  1
  C  159  1  0.04746800  0.10434500  0.68073700  1
  C  160  1  0.07316200  0.10396700  0.66492100  1
  C  161  1  0.10489600  0.11613500  0.66536600  1
  C  162  1  0.11216700  0.12927400  0.68155300  1
  C  163  1  0.08632700  0.12927500  0.69747300  1
  C  164  1  0.05474600  0.11701700  0.69713200  1
  C  165  1  0.95294000  0.10296800  0.69342200  1
  C  166  1  0.92115200  0.11510800  0.69307200  1
  C  167  1  0.91605100  0.12973200  0.67801800  1
  C  168  1  0.94323300  0.13122900  0.66292700  1
  C  169  1  0.97439000  0.11866500  0.66294000  1
  C  170  1  0.99993900  0.06126000  0.66286400  1
  C  171  1  0.99965300  0.04015200  0.66288100  1
  C  172  1  0.01325100  0.02889600  0.67930200  1
  C  173  1  0.02698300  0.04002600  0.69576900  1
  C  174  1  0.02698700  0.06112900  0.69586100  1
  C  188  1  0.98039200  0.34006500  0.09046700  1
  C  189  1  0.01237500  0.34056700  0.05667500  1
  C  190  1  0.04910200  0.34135500  0.08679400  1
  C  191  1  0.06220400  0.35893200  0.09601200  1
  C  192  1  0.09354200  0.35848400  0.10843900  1
  C  193  1  0.11404000  0.34067600  0.11170700  1
  C  194  1  0.10175700  0.32346300  0.10115300  1
  C  195  1  0.06971400  0.32367500  0.08924400  1
  C  196  1  0.94456500  0.33740500  0.08245000  1
  C  197  1  0.91291500  0.33663500  0.09473500  1
  C  198  1  0.91513900  0.33880200  0.11579500  1
  C  199  1  0.95083400  0.34189700  0.12374300  1
  C  200  1  0.98233300  0.34217800  0.11154600  1
  C  201  1  0.01737500  0.35833000  0.04564400  1
  C  202  1  0.01698000  0.35816700  0.02454900  1
  C  203  1  0.01150000  0.34028200  0.01350400  1
  C  204  1  0.00638200  0.32254500  0.02486100  1
  C  205  1  0.00689400  0.32265000  0.04596100  1
  C  219  1  0.98177700  0.69370700  0.91402500  1
  C  220  1  0.01361800  0.69418100  0.94780300  1
  C  221  1  0.05037000  0.69398300  0.91755200  1
  C  222  1  0.06560400  0.67608300  0.91009500  1
  C  223  1  0.09665500  0.67643700  0.89743700  1
  C  224  1  0.11503700  0.69451500  0.89235200  1
  C  225  1  0.10071100  0.71217400  0.90129700  1
  C  226  1  0.06861400  0.71202500  0.91311800  1
  C  227  1  0.94658000  0.69899700  0.92151500  1
  C  228  1  0.91498000  0.69926000  0.90917000  1
  C  229  1  0.91685500  0.69429100  0.88858500  1
  C  230  1  0.95187700  0.68869800  0.88118400  1
  C  231  1  0.98328300  0.68858500  0.89346000  1
  C  232  1  0.00399200  0.67682000  0.95857800  1
  C  233  1  0.00362000  0.67677300  0.97969000  1
  C  234  1  0.01283000  0.69405700  0.99095900  1
  C  235  1  0.02223200  0.71142700  0.97990300  1
  C  236  1  0.02249000  0.71151900  0.95882500  1
  C  250  1  0.54768300  0.60391500  0.82580700  1
  C  251  1  0.51436500  0.57143800  0.82477300  1
  C  252  1  0.48060300  0.60375500  0.82350000  1
  C  253  1  0.45496200  0.60354600  0.83934100  1
  C  254  1  0.42369800  0.61606100  0.83898700  1
  C  255  1  0.41695500  0.62936700  0.82287500  1
  C  256  1  0.44268300  0.62916000  0.80690800  1
  C  257  1  0.47375800  0.61655800  0.80715600  1
  C  258  1  0.57391300  0.60307500  0.81025300  1
  C  259  1  0.60527400  0.61552300  0.81048700  1
  C  260  1  0.61086600  0.62957100  0.82603100  1
  C  261  1  0.58469400  0.63017600  0.84170200  1
  C  262  1  0.55388900  0.61737900  0.84171900  1
  C  263  1  0.52818800  0.56062200  0.84124900  1
  C  264  1  0.52856000  0.53952800  0.84121600  1
  C  265  1  0.51482200  0.52828500  0.82482500  1
  C  266  1  0.50090400  0.53939200  0.80838900  1
  C  267  1  0.50083600  0.56048900  0.80830700  1
  C  281  1  0.54660100  0.43086200  0.18109900  1
  C  282  1  0.51268500  0.46312500  0.17967600  1
  C  283  1  0.47947400  0.43051400  0.17876000  1
  C  284  1  0.47349700  0.41685200  0.16298300  1
  C  285  1  0.44274900  0.40400400  0.16302800  1
  C  286  1  0.41635200  0.40476200  0.17857500  1
  C  287  1  0.42169600  0.41899800  0.19397500  1
  C  288  1  0.45300800  0.43149200  0.19419300  1
  C  289  1  0.55366600  0.41821000  0.19753700  1
  C  290  1  0.58515900  0.40590600  0.19798000  1
  C  291  1  0.61113300  0.40586300  0.18212900  1
  C  292  1  0.60407100  0.41897400  0.16589100  1
  C  293  1  0.57239300  0.43117500  0.16533200  1
  C  294  1  0.52720300  0.47413800  0.19585400  1
  C  295  1  0.52742000  0.49523800  0.19564800  1
  C  296  1  0.51266900  0.50634300  0.17941900  1
  C  297  1  0.49784800  0.49503600  0.16334500  1
  C  298  1  0.49806900  0.47393100  0.16339100  1
  C  312  1  0.54599800  0.19559100  0.58886400  1
  C  313  1  0.51223400  0.19453900  0.55650200  1
  C  314  1  0.47867000  0.19386900  0.58898900  1
  C  315  1  0.47208400  0.17821200  0.60270800  1
  C  316  1  0.44099000  0.17847500  0.61531800  1
  C  317  1  0.41478800  0.19410800  0.61424600  1
  C  318  1  0.42076500  0.20939400  0.59996400  1
  C  319  1  0.45244100  0.20940900  0.58773000  1
  C  320  1  0.55334700  0.21181800  0.60174100  1
  C  321  1  0.58477100  0.21190700  0.61411300  1
  C  322  1  0.61048300  0.19592100  0.61401000  1
  C  323  1  0.60314800  0.17990600  0.60066800  1
  C  324  1  0.57150400  0.17968500  0.58841600  1
  C  325  1  0.52660000  0.21077100  0.54550900  1
  C  326  1  0.52667400  0.21064100  0.52440100  1
  C  327  1  0.51205700  0.19439500  0.51326900  1
  C  328  1  0.49747400  0.17824200  0.52455200  1
  C  329  1  0.49771300  0.17824800  0.54566000  1
  C  343  1  0.54916500  0.84049200  0.41744700  1
  C  344  1  0.51242900  0.84002400  0.44755900  1
  C  345  1  0.48053100  0.83981300  0.41382100  1
  C  346  1  0.48207300  0.84408000  0.39306300  1
  C  347  1  0.45062300  0.84373500  0.38084300  1
  C  348  1  0.41552300  0.83860000  0.38847100  1
  C  349  1  0.41358500  0.83450200  0.40923800  1
  C  350  1  0.44518300  0.83518200  0.42155500  1
  C  351  1  0.56834300  0.82255200  0.41381200  1
  C  352  1  0.60015600  0.82236500  0.40172800  1
  C  353  1  0.61341200  0.83986400  0.39200500  1
  C  354  1  0.59426400  0.85786600  0.39647200  1
  C  355  1  0.56338700  0.85828600  0.40921700  1
  C  356  1  0.50901200  0.82199300  0.45831400  1
  C  357  1  0.50840400  0.82195300  0.47940400  1
  C  358  1  0.51155900  0.83985200  0.49073400  1
  C  359  1  0.51499500  0.85784700  0.47960600  1
  C  360  1  0.51531200  0.85796200  0.45851000  1
  C  374  1  0.47752200  0.43347800  0.82605700  1
  C  375  1  0.51438400  0.46351800  0.82516300  1
  C  376  1  0.54610900  0.42959100  0.82464400  1
  C  377  1  0.54375700  0.40848000  0.82626300  1
  C  378  1  0.57504400  0.39613600  0.82609200  1
  C  379  1  0.61098700  0.40394000  0.82350400  1
  C  380  1  0.61361600  0.42503400  0.82179600  1
  C  381  1  0.58215600  0.43747200  0.82252500  1
  C  382  1  0.45666400  0.43112700  0.80845200  1
  C  383  1  0.42490900  0.41899800  0.80826500  1
  C  384  1  0.41327100  0.40810800  0.82540100  1
  C  385  1  0.43389500  0.41138100  0.84316700  1
  C  386  1  0.46486000  0.42406700  0.84362200  1
  C  387  1  0.52121200  0.47426300  0.80739700  1
  C  388  1  0.52151200  0.49536500  0.80730900  1
  C  389  1  0.51482700  0.50665900  0.82491800  1
  C  390  1  0.50794700  0.49560700  0.84265000  1
  C  391  1  0.50773500  0.47451700  0.84279000  1
  C  405  1  0.48233400  0.60507900  0.17873800  1
  C  406  1  0.51395700  0.57118100  0.17887100  1
  C  407  1  0.55103900  0.60120000  0.17835100  1
  C  408  1  0.56496800  0.61013400  0.16082100  1
  C  409  1  0.59628500  0.62256300  0.16152400  1
  C  410  1  0.61622900  0.62598100  0.17950700  1
  C  411  1  0.60316500  0.61559100  0.19666200  1
  C  412  1  0.57098900  0.60379000  0.19622600  1
  C  413  1  0.44643600  0.59728600  0.18174600  1
  C  414  1  0.41491500  0.60969100  0.18201800  1
  C  415  1  0.41732700  0.63064100  0.17895900  1
  C  416  1  0.45309300  0.63833600  0.17550700  1
  C  417  1  0.48446300  0.62604500  0.17574300  1
  C  418  1  0.51860200  0.56011400  0.16110500  1
  C  419  1  0.51810900  0.53901700  0.16130800  1
  C  420  1  0.51290800  0.52800100  0.17924100  1
  C  421  1  0.50817500  0.53939200  0.19698200  1
  C  422  1  0.50875400  0.56049500  0.19683300  1
  C  436  1  0.48151100  0.83940200  0.58963300  1
  C  437  1  0.51311200  0.83948700  0.55569600  1
  C  438  1  0.54994100  0.83958700  0.58609700  1
  C  439  1  0.56565600  0.85744000  0.59335700  1
  C  440  1  0.59688000  0.85699600  0.60589700  1
  C  441  1  0.61500100  0.83885800  0.61111100  1
  C  442  1  0.59991100  0.82121800  0.60249400  1
  C  443  1  0.56761900  0.82146700  0.59085400  1
  C  444  1  0.44647200  0.83364800  0.58225600  1
  C  445  1  0.41489000  0.83332100  0.59461500  1
  C  446  1  0.41674600  0.83855900  0.61512400  1
  C  447  1  0.45159500  0.84451800  0.62246000  1
  C  448  1  0.48291000  0.84485500  0.61012000  1
  C  449  1  0.49824500  0.85578000  0.54499900  1
  C  450  1  0.49726200  0.85579600  0.52389000  1
  C  451  1  0.51174400  0.83973800  0.51241100  1
  C  452  1  0.52674300  0.82351300  0.52340600  1
  C  453  1  0.52697400  0.82326200  0.54447700  1
  C  467  1  0.48118400  0.19437600  0.41445900  1
  C  468  1  0.51288100  0.19394400  0.44840600  1
  C  469  1  0.54982500  0.19306400  0.41833400  1
  C  470  1  0.56280400  0.17548400  0.40906000  1
  C  471  1  0.59405500  0.17592400  0.39655700  1
  C  472  1  0.61461300  0.19371200  0.39329200  1
  C  473  1  0.60250400  0.21090700  0.40393100  1
  C  474  1  0.57050700  0.21071900  0.41587900  1
  C  475  1  0.44516900  0.19662600  0.42235000  1
  C  476  1  0.41366800  0.19729000  0.40993400  1
  C  477  1  0.41620300  0.19540700  0.38885000  1
  C  478  1  0.45211600  0.19275400  0.38102800  1
  C  479  1  0.48345200  0.19259400  0.39335600  1
  C  480  1  0.51825200  0.17622400  0.45946000  1
  C  481  1  0.51790200  0.17640000  0.48056100  1
  C  482  1  0.51217600  0.19426400  0.49160800  1
  C  483  1  0.50676600  0.21196600  0.48024700  1
  C  484  1  0.50714300  0.21183700  0.45913500  1
  C  497  1  0.23267400  0.18471900  0.32131500  1
  C  498  1  0.26250400  0.18390400  0.33493400  1
  C  499  1  0.29085500  0.19850900  0.33505800  1
  C  500  1  0.28802500  0.21415200  0.32078500  1
  C  501  1  0.26014900  0.21506800  0.30595700  1
  C  502  1  0.23252600  0.20011300  0.30679200  1
  C  503  1  0.32167600  0.19761400  0.34876000  1
  C  504  1  0.31863700  0.19003100  0.36849300  1
  C  505  1  0.34916700  0.18930200  0.38157700  1
  C  506  1  0.38447600  0.19627200  0.37577100  1
  C  507  1  0.38728700  0.20402700  0.35610000  1
  C  508  1  0.35708500  0.20438300  0.34294300  1
  C  509  1  0.20287800  0.17070900  0.32229300  1
  C  510  1  0.20884600  0.14980500  0.32194300  1
  C  511  1  0.17905800  0.13625700  0.32251500  1
  C  512  1  0.14230000  0.14310700  0.32410400  1
  C  513  1  0.13639000  0.16399900  0.32475600  1
  C  514  1  0.16605500  0.17752400  0.32365100  1
  C  515  1  0.26039100  0.23039400  0.29066500  1
  C  516  1  0.22755400  0.23804700  0.28212900  1
  C  517  1  0.22812200  0.25276900  0.26703900  1
  C  518  1  0.26152800  0.26101700  0.25977600  1
  C  519  1  0.29434900  0.25341600  0.26836700  1
  C  520  1  0.29380100  0.23842700  0.28315600  1
  C  536  1  0.23442200  0.85053400  0.68277900  1
  C  537  1  0.26482100  0.85096300  0.66939700  1
  C  538  1  0.29237200  0.83595600  0.66902000  1
  C  539  1  0.28904000  0.82018300  0.68302800  1
  C  540  1  0.26072000  0.81933300  0.69755700  1
  C  541  1  0.23350600  0.83452400  0.69675100  1
  C  542  1  0.32310800  0.83672300  0.65535600  1
  C  543  1  0.31937500  0.84332800  0.63531800  1
  C  544  1  0.34967600  0.84377300  0.62208300  1
  C  545  1  0.38529900  0.83770900  0.62823800  1
  C  546  1  0.38892500  0.83102400  0.64823900  1
  C  547  1  0.35878100  0.83067300  0.66144600  1
  C  548  1  0.20576300  0.86565800  0.68217900  1
  C  549  1  0.19558800  0.87532500  0.66413000  1
  C  550  1  0.16723200  0.88971200  0.66336900  1
  C  551  1  0.14635900  0.89505900  0.68048700  1
  C  552  1  0.15650400  0.88533700  0.69852400  1
  C  553  1  0.18551900  0.87135400  0.69939600  1
  C  554  1  0.26045500  0.80388200  0.71268200  1
  C  555  1  0.22728700  0.79569200  0.72034700  1
  C  556  1  0.22739000  0.78095500  0.73542800  1
  C  557  1  0.26079500  0.77343400  0.74322300  1
  C  558  1  0.29402400  0.78136600  0.73566300  1
  C  559  1  0.29376500  0.79643200  0.72095400  1
  C  575  1  0.23097700  0.69608200  0.16876500  1
  C  576  1  0.26200100  0.68326700  0.16741400  1
  C  577  1  0.29151300  0.68403300  0.18134700  1
  C  578  1  0.28918100  0.69871500  0.19662200  1
  C  579  1  0.25933300  0.71217700  0.19818800  1
  C  580  1  0.23016300  0.71039700  0.18434000  1
  C  581  1  0.32271700  0.67063500  0.18027000  1
  C  582  1  0.31952100  0.65055700  0.17368000  1
  C  583  1  0.35010800  0.63751800  0.17319800  1
  C  584  1  0.38561900  0.64372800  0.17946800  1
  C  585  1  0.38862200  0.66376800  0.18618800  1
  C  586  1  0.35833800  0.67687000  0.18627900  1
  C  587  1  0.20110700  0.69484300  0.15482800  1
  C  588  1  0.20711500  0.69551200  0.13393200  1
  C  589  1  0.17738800  0.69508500  0.12035300  1
  C  590  1  0.14061600  0.69340200  0.12714800  1
  C  591  1  0.13465200  0.69244300  0.14802800  1
  C  592  1  0.16427200  0.69337100  0.16159500  1
  C  593  1  0.25932800  0.72743400  0.21312400  1
  C  594  1  0.22992600  0.72949600  0.22678600  1
  C  595  1  0.23064600  0.74434700  0.24172600  1
  C  596  1  0.26026700  0.75809700  0.24343100  1
  C  597  1  0.28931000  0.75605100  0.22938800  1
  C  598  1  0.28907900  0.74096000  0.21471500  1
  C  614  1  0.23290500  0.33762000  0.83378100  1
  C  615  1  0.26368100  0.35066700  0.83510100  1
  C  616  1  0.29458000  0.34964600  0.82212000  1
  C  617  1  0.29439300  0.33401400  0.80777500  1
  C  618  1  0.26416500  0.32090000  0.80500600  1
  C  619  1  0.23361800  0.32349900  0.81793700  1
  C  620  1  0.32455900  0.36397300  0.82318000  1
  C  621  1  0.33450300  0.37385800  0.84114600  1
  C  622  1  0.36253900  0.38843300  0.84178100  1
  C  623  1  0.38331400  0.39375500  0.82462200  1
  C  624  1  0.37371900  0.38363100  0.80672300  1
  C  625  1  0.34495700  0.36950700  0.80595900  1
  C  626  1  0.20264600  0.33832400  0.84801300  1
  C  627  1  0.19315600  0.35580900  0.85884100  1
  C  628  1  0.16492300  0.35596900  0.87332300  1
  C  629  1  0.14306900  0.33888000  0.87761100  1
  C  630  1  0.15224800  0.32152600  0.86643700  1
  C  631  1  0.18135800  0.32113600  0.85253200  1
  C  632  1  0.26444800  0.30555300  0.78976100  1
  C  633  1  0.24704800  0.28678300  0.79274800  1
  C  634  1  0.24680800  0.27189800  0.77783300  1
  C  635  1  0.26482500  0.27492100  0.75936300  1
  C  636  1  0.28272200  0.29341800  0.75628200  1
  C  637  1  0.28214100  0.30844500  0.77105900  1
  C  653  1  0.79446000  0.84963800  0.32197700  1
  C  654  1  0.76369100  0.85064000  0.33504600  1
  C  655  1  0.73289400  0.83760900  0.33379700  1
  C  656  1  0.73338900  0.82348600  0.31796200  1
  C  657  1  0.76374000  0.82096900  0.30487500  1
  C  658  1  0.79403300  0.83406200  0.30757200  1
  C  659  1  0.70275800  0.83839600  0.34807500  1
  C  660  1  0.69313800  0.85608000  0.35854800  1
  C  661  1  0.66499800  0.85643300  0.37306700  1
  C  662  1  0.64355100  0.83930900  0.37770600  1
  C  663  1  0.65279300  0.82171400  0.36696200  1
  C  664  1  0.68176500  0.82118500  0.35295500  1
  C  665  1  0.82446100  0.86396400  0.32299400  1
  C  666  1  0.83441400  0.87389400  0.34093500  1
  C  667  1  0.86234700  0.88852400  0.34152800  1
  C  668  1  0.88310400  0.89383800  0.32435800  1
  C  669  1  0.87357500  0.88363200  0.30649300  1
  C  670  1  0.84487300  0.86946800  0.30576500  1
  C  671  1  0.76374000  0.80576600  0.28949400  1
  C  672  1  0.78104700  0.80886700  0.27072000  1
  C  673  1  0.78136100  0.79399400  0.25579100  1
  C  674  1  0.76353100  0.77546800  0.25879000  1
  C  675  1  0.74585300  0.77224100  0.27731800  1
  C  676  1  0.74639000  0.78696700  0.29238900  1
  C  692  1  0.79356800  0.18400100  0.68109800  1
  C  693  1  0.76302700  0.18282500  0.66792200  1
  C  694  1  0.73337000  0.19661400  0.66885300  1
  C  695  1  0.73421800  0.21130100  0.68412200  1
  C  696  1  0.76391400  0.21287700  0.69771500  1
  C  697  1  0.79352100  0.19928200  0.69576000  1
  C  698  1  0.70359500  0.19616200  0.65469300  1
  C  699  1  0.68513200  0.17820700  0.64972900  1
  C  700  1  0.65498800  0.17809700  0.63639400  1
  C  701  1  0.64203100  0.19586000  0.62717400  1
  C  702  1  0.66118800  0.21371700  0.63188700  1
  C  703  1  0.69106000  0.21388600  0.64533700  1
  C  704  1  0.82396000  0.17035500  0.67972600  1
  C  705  1  0.81852000  0.14939800  0.67945400  1
  C  706  1  0.84861700  0.13604200  0.67909400  1
  C  707  1  0.88531400  0.14313100  0.67843500  1
  C  708  1  0.89076300  0.16407400  0.67838400  1
  C  709  1  0.86072900  0.17739400  0.67924200  1
  C  710  1  0.76411200  0.22791700  0.71290600  1
  C  711  1  0.79379400  0.24144700  0.71477700  1
  C  712  1  0.79367800  0.25645100  0.72956800  1
  C  713  1  0.76437600  0.25840900  0.74347700  1
  C  714  1  0.73495900  0.24456000  0.74157900  1
  C  715  1  0.73458400  0.22981200  0.72653300  1
  C  731  1  0.78952100  0.33550500  0.16927000  1
  C  732  1  0.76145000  0.35026600  0.16943300  1
  C  733  1  0.73240100  0.35015600  0.18359800  1
  C  734  1  0.73237400  0.33487300  0.19826900  1
  C  735  1  0.75926600  0.31952400  0.19874600  1
  C  736  1  0.78674000  0.32003000  0.18370700  1
  C  737  1  0.70360300  0.36488600  0.18309300  1
  C  738  1  0.68499200  0.36951300  0.16508700  1
  C  739  1  0.65513600  0.38300200  0.16474700  1
  C  740  1  0.64256500  0.39266500  0.18233900  1
  C  741  1  0.66178000  0.38826300  0.20025900  1
  C  742  1  0.69142600  0.37466000  0.20065500  1
  C  743  1  0.82032900  0.33627200  0.15556600  1
  C  744  1  0.81735000  0.34382800  0.13582300  1
  C  745  1  0.84797300  0.34462300  0.12281000  1
  C  746  1  0.88329100  0.33778000  0.12873900  1
  C  747  1  0.88604100  0.33001600  0.14840100  1
  C  748  1  0.85573200  0.32957500  0.16147500  1
  C  749  1  0.75929700  0.30419000  0.21396800  1
  C  750  1  0.79270900  0.29643900  0.22181400  1
  C  751  1  0.79308600  0.28134100  0.23649700  1
  C  752  1  0.75992400  0.27365700  0.24440700  1
  C  753  1  0.72645200  0.28147600  0.23699900  1
  C  754  1  0.72619500  0.29625000  0.22196400  1
  C  770  1  0.79157500  0.69761700  0.83512800  1
  C  771  1  0.76206600  0.68369300  0.83585400  1
  C  772  1  0.73100500  0.68515400  0.82309600  1
  C  773  1  0.73002200  0.70090400  0.80897800  1
  C  774  1  0.75923300  0.71474200  0.80722500  1
  C  775  1  0.78931400  0.71297400  0.82052700  1
  C  776  1  0.70126300  0.67114800  0.82423500  1
  C  777  1  0.70741600  0.65029700  0.82293800  1
  C  778  1  0.67781700  0.63663900  0.82332000  1
  C  779  1  0.64106000  0.64329900  0.82555400  1
  C  780  1  0.63497200  0.66413500  0.82712400  1
  C  781  1  0.66445000  0.67779800  0.82624000  1
  C  782  1  0.82267400  0.69641200  0.84855300  1
  C  783  1  0.81900700  0.69029500  0.86875800  1
  C  784  1  0.84948700  0.68963600  0.88185800  1
  C  785  1  0.88530600  0.69512200  0.87548400  1
  C  786  1  0.88886600  0.70134200  0.85532100  1
  C  787  1  0.85857300  0.70177700  0.84221200  1
  C  788  1  0.75882000  0.72993900  0.79221600  1
  C  789  1  0.78805900  0.73173200  0.77839400  1
  C  790  1  0.78772600  0.74663600  0.76351600  1
  C  791  1  0.75868000  0.76076400  0.76199600  1
  C  792  1  0.72959600  0.75883400  0.77605300  1
  C  793  1  0.72938400  0.74364900  0.79066500  1
  C  809  1  0.79218900  0.85072100  0.68408100  1
  C  810  1  0.76506700  0.84997100  0.66883800  1
  C  811  1  0.73448500  0.83672900  0.66938800  1
  C  812  1  0.73314700  0.82312600  0.68569200  1
  C  813  1  0.75989700  0.82257000  0.70111700  1
  C  814  1  0.78815800  0.83712900  0.70019600  1
  C  815  1  0.70596000  0.83707100  0.65417500  1
  C  816  1  0.69631500  0.85479400  0.64378300  1
  C  817  1  0.66774000  0.85526000  0.62949400  1
  C  818  1  0.64586100  0.83823200  0.62502400  1
  C  819  1  0.65559600  0.82056300  0.63554800  1
  C  820  1  0.68498900  0.81989200  0.64925600  1
  C  821  1  0.82310400  0.86432700  0.68321700  1
  C  822  1  0.82035400  0.88379100  0.67495000  1
  C  823  1  0.85083900  0.89689000  0.67426900  1
  C  824  1  0.88576600  0.89136000  0.68198100  1
  C  825  1  0.88824600  0.87197200  0.69045500  1
  C  826  1  0.85809100  0.85878400  0.69078400  1
  C  827  1  0.75923600  0.80755200  0.71671000  1
  C  828  1  0.79224900  0.79976300  0.72495500  1
  C  829  1  0.79203700  0.78482300  0.73979300  1
  C  830  1  0.75881800  0.77632400  0.74698200  1
  C  831  1  0.72581000  0.78396400  0.73861600  1
  C  832  1  0.72599700  0.79923100  0.72408500  1
  C  848  1  0.79452600  0.18468100  0.32228800  1
  C  849  1  0.76551600  0.18396700  0.33643600  1
  C  850  1  0.73426200  0.19671200  0.33536500  1
  C  851  1  0.73336700  0.21051400  0.31921900  1
  C  852  1  0.76249300  0.21276200  0.30525900  1
  C  853  1  0.79272800  0.19951800  0.30723200  1
  C  854  1  0.70467400  0.19584500  0.34993700  1
  C  855  1  0.69502700  0.17798700  0.36009800  1
  C  856  1  0.66648500  0.17737200  0.37440500  1
  C  857  1  0.64504300  0.19444900  0.37921800  1
  C  858  1  0.65455000  0.21225700  0.36891700  1
  C  859  1  0.68368900  0.21300000  0.35502100  1
  C  860  1  0.82460400  0.17070500  0.32276800  1
  C  861  1  0.84346100  0.16592900  0.34065500  1
  C  862  1  0.87332400  0.15242000  0.34074300  1
  C  863  1  0.88557600  0.14286400  0.32301600  1
  C  864  1  0.86609700  0.14740700  0.30522900  1
  C  865  1  0.83647100  0.16100300  0.30509100  1
  C  866  1  0.76150200  0.22792800  0.28984800  1
  C  867  1  0.77768800  0.22487800  0.27077300  1
  C  868  1  0.77753100  0.23987800  0.25597300  1
  C  869  1  0.76032900  0.25850200  0.25941800  1
  C  870  1  0.74372500  0.26167900  0.27824200  1
  C  871  1  0.74475700  0.24681900  0.29317000  1
  C  887  1  0.79261300  0.33501200  0.83519400  1
  C  888  1  0.76377900  0.34933700  0.83529500  1
  C  889  1  0.73552300  0.34959700  0.82061200  1
  C  890  1  0.73788500  0.33508400  0.80517600  1
  C  891  1  0.76469000  0.31970400  0.80479900  1
  C  892  1  0.79137400  0.32000000  0.82024000  1
  C  893  1  0.70509500  0.36358000  0.82124100  1
  C  894  1  0.70838000  0.38331000  0.82880500  1
  C  895  1  0.67801200  0.39651100  0.82951200  1
  C  896  1  0.64263400  0.39082000  0.82254600  1
  C  897  1  0.63962000  0.37118900  0.81473000  1
  C  898  1  0.66962600  0.35791500  0.81443100  1
  C  899  1  0.82277900  0.33570000  0.84923300  1
  C  900  1  0.81810700  0.34086000  0.86963400  1
  C  901  1  0.84823200  0.34154300  0.88299300  1
  C  902  1  0.88456300  0.33732400  0.87653800  1
  C  903  1  0.88920700  0.33215200  0.85617100  1
  C  904  1  0.85919500  0.33144300  0.84289200  1
  C  905  1  0.76467600  0.30446500  0.78944800  1
  C  906  1  0.79771400  0.29570600  0.78232000  1
  C  907  1  0.79759000  0.28066300  0.76756800  1
  C  908  1  0.76447800  0.27370500  0.75874700  1
  C  909  1  0.73146500  0.28259800  0.76574000  1
  C  910  1  0.73153700  0.29736500  0.78076400  1
  C  926  1  0.79413800  0.69829800  0.16881400  1
  C  927  1  0.76627000  0.68348200  0.16908900  1
  C  928  1  0.73620000  0.68390200  0.18268300  1
  C  929  1  0.73603300  0.69976100  0.19684300  1
  C  930  1  0.76377600  0.71468300  0.19780300  1
  C  931  1  0.79212300  0.71370100  0.18327300  1
  C  932  1  0.70702800  0.66903500  0.18203100  1
  C  933  1  0.69665100  0.65933300  0.16403400  1
  C  934  1  0.66809600  0.64505800  0.16332800  1
  C  935  1  0.64699500  0.63988800  0.18042800  1
  C  936  1  0.65726500  0.64971200  0.19839700  1
  C  937  1  0.68658600  0.66350800  0.19923900  1
  C  938  1  0.82368200  0.69778100  0.15450200  1
  C  939  1  0.84321000  0.67994000  0.15036800  1
  C  940  1  0.87291100  0.67964600  0.13678500  1
  C  941  1  0.88444700  0.69713500  0.12658500  1
  C  942  1  0.86452000  0.71490700  0.13056300  1
  C  943  1  0.83492300  0.71523200  0.14419000  1
  C  944  1  0.76355000  0.73009300  0.21297900  1
  C  945  1  0.79673700  0.73737100  0.22153000  1
  C  946  1  0.79680600  0.75238700  0.23630700  1
  C  947  1  0.76349800  0.76046800  0.24362000  1
  C  948  1  0.73021500  0.75318800  0.23545900  1
  C  949  1  0.73032000  0.73851400  0.22032600  1
  C  965  1  0.23497800  0.18416000  0.68272700  1
  C  966  1  0.26361700  0.18391500  0.66832800  1
  C  967  1  0.29322000  0.19767400  0.66901500  1
  C  968  1  0.29292800  0.21245000  0.68417200  1
  C  969  1  0.26466300  0.21369000  0.69877000  1
  C  970  1  0.23633600  0.19909500  0.69775700  1
  C  971  1  0.32327100  0.19652200  0.65517200  1
  C  972  1  0.31756000  0.19691300  0.63424800  1
  C  973  1  0.34751200  0.19639500  0.62079500  1
  C  974  1  0.38421200  0.19481500  0.62774700  1
  C  975  1  0.38984700  0.19409300  0.64866700  1
  C  976  1  0.36002000  0.19518000  0.66210400  1
  C  977  1  0.20541000  0.16984100  0.68223700  1
  C  978  1  0.18646100  0.16534100  0.66429900  1
  C  979  1  0.15632300  0.15202000  0.66404800  1
  C  980  1  0.14374700  0.14239200  0.68166500  1
  C  981  1  0.16324900  0.14667600  0.69951600  1
  C  982  1  0.19320000  0.16008700  0.69981500  1
  C  983  1  0.26475300  0.22907400  0.71397800  1
  C  984  1  0.23156600  0.23754900  0.72133700  1
  C  985  1  0.23152400  0.25236500  0.73632200  1
  C  986  1  0.26483600  0.25978800  0.74430900  1
  C  987  1  0.29811200  0.25171700  0.73692800  1
  C  988  1  0.29799100  0.23654100  0.72229900  1
  C  1004  1  0.23438000  0.84993700  0.31981000  1
  C  1005  1  0.26279500  0.84967700  0.33438900  1
  C  1006  1  0.29119100  0.83509100  0.33445600  1
  C  1007  1  0.28922800  0.81984300  0.31975500  1
  C  1008  1  0.26257400  0.81966200  0.30431400  1
  C  1009  1  0.23627600  0.83528000  0.30451000  1
  C  1010  1  0.32154700  0.83572700  0.34840300  1
  C  1011  1  0.31772600  0.84230400  0.36844500  1
  C  1012  1  0.34811800  0.84314600  0.38160500  1
  C  1013  1  0.38394200  0.83741700  0.37543600  1
  C  1014  1  0.38757900  0.83063600  0.35546700  1
  C  1015  1  0.35743700  0.83006300  0.34229800  1
  C  1016  1  0.20411500  0.86399100  0.32046800  1
  C  1017  1  0.20766200  0.88376400  0.32786900  1
  C  1018  1  0.17734800  0.89698400  0.32869800  1
  C  1019  1  0.14182000  0.89125800  0.32200100  1
  C  1020  1  0.13854600  0.87158500  0.31433200  1
  C  1021  1  0.16848900  0.85828800  0.31394000  1
  C  1022  1  0.26207300  0.80429100  0.28913200  1
  C  1023  1  0.22867100  0.79735500  0.28062400  1
  C  1024  1  0.22811800  0.78252100  0.26568600  1
  C  1025  1  0.26088100  0.77341600  0.25864100  1
  C  1026  1  0.29425800  0.78018300  0.26731600  1
  C  1027  1  0.29486600  0.79529800  0.28197800  1
  C  1043  1  0.23496200  0.69689300  0.83442400  1
  C  1044  1  0.26637000  0.68428600  0.83571400  1
  C  1045  1  0.29548000  0.68494900  0.82163000  1
  C  1046  1  0.29372900  0.69965600  0.80644800  1
  C  1047  1  0.26338500  0.71279000  0.80428100  1
  C  1048  1  0.23408200  0.71050300  0.81811200  1
  C  1049  1  0.32550900  0.67096600  0.82226100  1
  C  1050  1  0.34420600  0.66626700  0.84021700  1
  C  1051  1  0.37384300  0.65262300  0.84046000  1
  C  1052  1  0.38599300  0.64286400  0.82282900  1
  C  1053  1  0.36671500  0.64735800  0.80496700  1
  C  1054  1  0.33730600  0.66108100  0.80467500  1
  C  1055  1  0.20527400  0.69612100  0.84895200  1
  C  1056  1  0.19633600  0.67855000  0.85978400  1
  C  1057  1  0.16781300  0.67812100  0.87410800  1
  C  1058  1  0.14546300  0.69504900  0.87821600  1
  C  1059  1  0.15420800  0.71252200  0.86715300  1
  C  1060  1  0.18347800  0.71315400  0.85336200  1
  C  1061  1  0.26238700  0.72788800  0.78881500  1
  C  1062  1  0.24539100  0.74673800  0.79202300  1
  C  1063  1  0.24432700  0.76153600  0.77703800  1
  C  1064  1  0.26112000  0.75832800  0.75827200  1
  C  1065  1  0.27859500  0.73975600  0.75494600  1
  C  1066  1  0.27878800  0.72481400  0.76980100  1
  C  1082  1  0.23434700  0.33786200  0.16922500  1
  C  1083  1  0.26538000  0.35077100  0.16794300  1
  C  1084  1  0.29536200  0.34971000  0.18145300  1
  C  1085  1  0.29457200  0.33482400  0.19645300  1
  C  1086  1  0.26406500  0.32190000  0.19874100  1
  C  1087  1  0.23423600  0.32392000  0.18526700  1
  C  1088  1  0.32552500  0.36343800  0.18020400  1
  C  1089  1  0.31955100  0.38433700  0.18087900  1
  C  1090  1  0.34929100  0.39790100  0.18056800  1
  C  1091  1  0.38606200  0.39108600  0.17901400  1
  C  1092  1  0.39198900  0.37019300  0.17805800  1
  C  1093  1  0.36233000  0.35662100  0.17892900  1
  C  1094  1  0.20450700  0.33863800  0.15481000  1
  C  1095  1  0.19465100  0.35648200  0.14468700  1
  C  1096  1  0.16601200  0.35705500  0.13044600  1
  C  1097  1  0.14460400  0.33995300  0.12569300  1
  C  1098  1  0.15429700  0.32215500  0.13596400  1
  C  1099  1  0.18357000  0.32145000  0.14978200  1
  C  1100  1  0.26359600  0.30698800  0.21407700  1
  C  1101  1  0.23411400  0.30557600  0.22779300  1
  C  1102  1  0.23368200  0.29074600  0.24276500  1
  C  1103  1  0.26218800  0.27632900  0.24451000  1
  C  1104  1  0.29143300  0.27779500  0.23049700  1
  C  1105  1  0.29236600  0.29286400  0.21577800  1
  C  1122  1  0.26838700  0.55260600  0.32507800  1
  C  1123  1  0.23482200  0.52019300  0.32433900  1
  C  1124  1  0.20111600  0.55250600  0.32323300  1
  C  1125  1  0.17566800  0.55215700  0.33916500  1
  C  1126  1  0.14420800  0.56453400  0.33895800  1
  C  1127  1  0.13704700  0.57785900  0.32291300  1
  C  1128  1  0.16261000  0.57780700  0.30686200  1
  C  1129  1  0.19388000  0.56533500  0.30696000  1
  C  1130  1  0.29462000  0.55134500  0.30954600  1
  C  1131  1  0.32627000  0.56358300  0.30957600  1
  C  1132  1  0.33214200  0.57787300  0.32486200  1
  C  1133  1  0.30594000  0.57894500  0.34049200  1
  C  1134  1  0.27488600  0.56632000  0.34074500  1
  C  1135  1  0.24881300  0.50936800  0.34076900  1
  C  1136  1  0.24903200  0.48827100  0.34076300  1
  C  1137  1  0.23499000  0.47703700  0.32444200  1
  C  1138  1  0.22092700  0.48815100  0.30804900  1
  C  1139  1  0.22099400  0.50924800  0.30794300  1
  C  1153  1  0.27117500  0.38233600  0.67845600  1
  C  1154  1  0.23420900  0.41240300  0.67909000  1
  C  1155  1  0.20258000  0.37843600  0.67985000  1
  C  1156  1  0.20501700  0.35728000  0.67895500  1
  C  1157  1  0.17374700  0.34491600  0.67920300  1
  C  1158  1  0.13771000  0.35278300  0.68110000  1
  C  1159  1  0.13499600  0.37391800  0.68215000  1
  C  1160  1  0.16645300  0.38635000  0.68136900  1
  C  1161  1  0.29218400  0.38043400  0.69606700  1
  C  1162  1  0.32420700  0.36850900  0.69645200  1
  C  1163  1  0.33605700  0.35738000  0.67951700  1
  C  1164  1  0.31511800  0.36006400  0.66175700  1
  C  1165  1  0.28382100  0.37251200  0.66110800  1
  C  1166  1  0.22714400  0.42319600  0.69680200  1
  C  1167  1  0.22677200  0.44430400  0.69684200  1
  C  1168  1  0.23354200  0.45558700  0.67923300  1
  C  1169  1  0.24059000  0.44448800  0.66154600  1
  C  1170  1  0.24092300  0.42338900  0.66145800  1
  C  1184  1  0.26700400  0.14158700  0.08809500  1
  C  1185  1  0.23337500  0.14259600  0.05569600  1
  C  1186  1  0.19984900  0.14422300  0.08795300  1
  C  1187  1  0.17412900  0.12842400  0.08782300  1
  C  1188  1  0.14266600  0.12899600  0.10016800  1
  C  1189  1  0.13578900  0.14530800  0.11320000  1
  C  1190  1  0.16154700  0.16125300  0.11290300  1
  C  1191  1  0.19289500  0.16076100  0.10049200  1
  C  1192  1  0.29369300  0.15689000  0.08688600  1
  C  1193  1  0.32519600  0.15660500  0.09922600  1
  C  1194  1  0.33051900  0.14126300  0.11352100  1
  C  1195  1  0.30388400  0.12584500  0.11450800  1
  C  1196  1  0.27292300  0.12586400  0.10181700  1
  C  1197  1  0.24515600  0.12565900  0.04487500  1
  C  1198  1  0.24500100  0.12558600  0.02377200  1
  C  1199  1  0.23298400  0.14239300  0.01257300  1
  C  1200  1  0.22111200  0.15928600  0.02369200  1
  C  1201  1  0.22137400  0.15942100  0.04477900  1
  C  1215  1  0.26909800  0.78791800  0.91782000  1
  C  1216  1  0.23296700  0.78822800  0.94861000  1
  C  1217  1  0.20080700  0.78815900  0.91500200  1
  C  1218  1  0.20055100  0.79656100  0.89553900  1
  C  1219  1  0.16926200  0.79581300  0.88318500  1
  C  1220  1  0.13604800  0.78690000  0.88971500  1
  C  1221  1  0.13563500  0.77904100  0.90938300  1
  C  1222  1  0.16741200  0.77941300  0.92159500  1
  C  1223  1  0.28563900  0.76980200  0.91199700  1
  C  1224  1  0.31743700  0.76968300  0.89992900  1
  C  1225  1  0.33309600  0.78751200  0.89198500  1
  C  1226  1  0.31622800  0.80560400  0.89844800  1
  C  1227  1  0.28563300  0.80586700  0.91141600  1
  C  1228  1  0.24662200  0.77191500  0.95978400  1
  C  1229  1  0.24634100  0.77211700  0.98086500  1
  C  1230  1  0.23181900  0.78847000  0.99184900  1
  C  1231  1  0.21767900  0.80464700  0.98042100  1
  C  1232  1  0.21840000  0.80459200  0.95930900  1
  C  1246  1  0.19711800  0.38223300  0.32575800  1
  C  1247  1  0.23400100  0.41227900  0.32484500  1
  C  1248  1  0.26567800  0.37836100  0.32435400  1
  C  1249  1  0.26337100  0.35727700  0.32629800  1
  C  1250  1  0.29464900  0.34493700  0.32606500  1
  C  1251  1  0.33049300  0.35272200  0.32308200  1
  C  1252  1  0.33310200  0.37378600  0.32108700  1
  C  1253  1  0.30166300  0.38622600  0.32188500  1
  C  1254  1  0.17654100  0.37962200  0.30809400  1
  C  1255  1  0.14492400  0.36739000  0.30790700  1
  C  1256  1  0.13318400  0.35662100  0.32510200  1
  C  1257  1  0.15355500  0.36013900  0.34291000  1
  C  1258  1  0.18434400  0.37294900  0.34336600  1
  C  1259  1  0.24070500  0.42298700  0.30704200  1
  C  1260  1  0.24119700  0.44408700  0.30693600  1
  C  1261  1  0.23482400  0.45541100  0.32455800  1
  C  1262  1  0.22805800  0.44439500  0.34232600  1
  C  1263  1  0.22766400  0.42330700  0.34248600  1
  C  1277  1  0.20037500  0.55295600  0.67840700  1
  C  1278  1  0.23382500  0.52044100  0.67937700  1
  C  1279  1  0.26772100  0.55268400  0.68073700  1
  C  1280  1  0.29341500  0.55230600  0.66492100  1
  C  1281  1  0.32514900  0.56447400  0.66536600  1
  C  1282  1  0.33242000  0.57761300  0.68155300  1
  C  1283  1  0.30658000  0.57761400  0.69747300  1
  C  1284  1  0.27499900  0.56535600  0.69713200  1
  C  1285  1  0.17319300  0.55130700  0.69342200  1
  C  1286  1  0.14140500  0.56344700  0.69307200  1
  C  1287  1  0.13630400  0.57807100  0.67801800  1
  C  1288  1  0.16348600  0.57956800  0.66292700  1
  C  1289  1  0.19464300  0.56700400  0.66294000  1
  C  1290  1  0.22019200  0.50959900  0.66286400  1
  C  1291  1  0.21990600  0.48849100  0.66288100  1
  C  1292  1  0.23350400  0.47723500  0.67930200  1
  C  1293  1  0.24723600  0.48836500  0.69576900  1
  C  1294  1  0.24724000  0.50946800  0.69586100  1
  C  1308  1  0.20064500  0.78840400  0.09046700  1
  C  1309  1  0.23262800  0.78890600  0.05667500  1
  C  1310  1  0.26935500  0.78969400  0.08679400  1
  C  1311  1  0.28245700  0.80727100  0.09601200  1
  C  1312  1  0.31379500  0.80682300  0.10843900  1
  C  1313  1  0.33429300  0.78901500  0.11170700  1
  C  1314  1  0.32201000  0.77180200  0.10115300  1
  C  1315  1  0.28996700  0.77201400  0.08924400  1
  C  1316  1  0.16481800  0.78574400  0.08245000  1
  C  1317  1  0.13316800  0.78497400  0.09473500  1
  C  1318  1  0.13539200  0.78714100  0.11579500  1
  C  1319  1  0.17108700  0.79023600  0.12374300  1
  C  1320  1  0.20258600  0.79051700  0.11154600  1
  C  1321  1  0.23762800  0.80666900  0.04564400  1
  C  1322  1  0.23723300  0.80650600  0.02454900  1
  C  1323  1  0.23175300  0.78862100  0.01350400  1
  C  1324  1  0.22663500  0.77088400  0.02486100  1
  C  1325  1  0.22714700  0.77098900  0.04596100  1
  C  1339  1  0.20203000  0.14204600  0.91402500  1
  C  1340  1  0.23387100  0.14252000  0.94780300  1
  C  1341  1  0.27062300  0.14232200  0.91755200  1
  C  1342  1  0.28585700  0.12442200  0.91009500  1
  C  1343  1  0.31690800  0.12477600  0.89743700  1
  C  1344  1  0.33529000  0.14285400  0.89235200  1
  C  1345  1  0.32096400  0.16051300  0.90129700  1
  C  1346  1  0.28886700  0.16036400  0.91311800  1
  C  1347  1  0.16683300  0.14733600  0.92151500  1
  C  1348  1  0.13523300  0.14759900  0.90917000  1
  C  1349  1  0.13710800  0.14263000  0.88858500  1
  C  1350  1  0.17213000  0.13703700  0.88118400  1
  C  1351  1  0.20353600  0.13692400  0.89346000  1
  C  1352  1  0.22424500  0.12515900  0.95857800  1
  C  1353  1  0.22387300  0.12511200  0.97969000  1
  C  1354  1  0.23308300  0.14239600  0.99095900  1
  C  1355  1  0.24248500  0.15976600  0.97990300  1
  C  1356  1  0.24274300  0.15985800  0.95882500  1
  C  1370  1  0.76793600  0.05225370  0.82580700  1
  C  1371  1  0.73461800  0.01977670  0.82477300  1
  C  1372  1  0.70085600  0.05209370  0.82350000  1
  C  1373  1  0.67521500  0.05188470  0.83934100  1
  C  1374  1  0.64395100  0.06439970  0.83898700  1
  C  1375  1  0.63720800  0.07770570  0.82287500  1
  C  1376  1  0.66293600  0.07749870  0.80690800  1
  C  1377  1  0.69401100  0.06489670  0.80715600  1
  C  1378  1  0.79416600  0.05141370  0.81025300  1
  C  1379  1  0.82552700  0.06386170  0.81048700  1
  C  1380  1  0.83111900  0.07790970  0.82603100  1
  C  1381  1  0.80494700  0.07851470  0.84170200  1
  C  1382  1  0.77414200  0.06571770  0.84171900  1
  C  1383  1  0.74844100  0.00896068  0.84124900  1
  C  1384  1  0.74881300  0.98786700  0.84121600  1
  C  1385  1  0.73507500  0.97662400  0.82482500  1
  C  1386  1  0.72115700  0.98773100  0.80838900  1
  C  1387  1  0.72108900  0.00882768  0.80830700  1
  C  1401  1  0.76685400  0.87920100  0.18109900  1
  C  1402  1  0.73293800  0.91146400  0.17967600  1
  C  1403  1  0.69972700  0.87885300  0.17876000  1
  C  1404  1  0.69375000  0.86519100  0.16298300  1
  C  1405  1  0.66300200  0.85234300  0.16302800  1
  C  1406  1  0.63660500  0.85310100  0.17857500  1
  C  1407  1  0.64194900  0.86733700  0.19397500  1
  C  1408  1  0.67326100  0.87983100  0.19419300  1
  C  1409  1  0.77391900  0.86654900  0.19753700  1
  C  1410  1  0.80541200  0.85424500  0.19798000  1
  C  1411  1  0.83138600  0.85420200  0.18212900  1
  C  1412  1  0.82432400  0.86731300  0.16589100  1
  C  1413  1  0.79264600  0.87951400  0.16533200  1
  C  1414  1  0.74745600  0.92247700  0.19585400  1
  C  1415  1  0.74767300  0.94357700  0.19564800  1
  C  1416  1  0.73292200  0.95468200  0.17941900  1
  C  1417  1  0.71810100  0.94337500  0.16334500  1
  C  1418  1  0.71832200  0.92227000  0.16339100  1
  C  1432  1  0.76625100  0.64393000  0.58886400  1
  C  1433  1  0.73248700  0.64287800  0.55650200  1
  C  1434  1  0.69892300  0.64220800  0.58898900  1
  C  1435  1  0.69233700  0.62655100  0.60270800  1
  C  1436  1  0.66124300  0.62681400  0.61531800  1
  C  1437  1  0.63504100  0.64244700  0.61424600  1
  C  1438  1  0.64101800  0.65773300  0.59996400  1
  C  1439  1  0.67269400  0.65774800  0.58773000  1
  C  1440  1  0.77360000  0.66015700  0.60174100  1
  C  1441  1  0.80502400  0.66024600  0.61411300  1
  C  1442  1  0.83073600  0.64426000  0.61401000  1
  C  1443  1  0.82340100  0.62824500  0.60066800  1
  C  1444  1  0.79175700  0.62802400  0.58841600  1
  C  1445  1  0.74685300  0.65911000  0.54550900  1
  C  1446  1  0.74692700  0.65898000  0.52440100  1
  C  1447  1  0.73231000  0.64273400  0.51326900  1
  C  1448  1  0.71772700  0.62658100  0.52455200  1
  C  1449  1  0.71796600  0.62658700  0.54566000  1
  C  1463  1  0.76941800  0.28883100  0.41744700  1
  C  1464  1  0.73268200  0.28836300  0.44755900  1
  C  1465  1  0.70078400  0.28815200  0.41382100  1
  C  1466  1  0.70232600  0.29241900  0.39306300  1
  C  1467  1  0.67087600  0.29207400  0.38084300  1
  C  1468  1  0.63577600  0.28693900  0.38847100  1
  C  1469  1  0.63383800  0.28284100  0.40923800  1
  C  1470  1  0.66543600  0.28352100  0.42155500  1
  C  1471  1  0.78859600  0.27089100  0.41381200  1
  C  1472  1  0.82040900  0.27070400  0.40172800  1
  C  1473  1  0.83366500  0.28820300  0.39200500  1
  C  1474  1  0.81451700  0.30620500  0.39647200  1
  C  1475  1  0.78364000  0.30662500  0.40921700  1
  C  1476  1  0.72926500  0.27033200  0.45831400  1
  C  1477  1  0.72865700  0.27029200  0.47940400  1
  C  1478  1  0.73181200  0.28819100  0.49073400  1
  C  1479  1  0.73524800  0.30618600  0.47960600  1
  C  1480  1  0.73556500  0.30630100  0.45851000  1
  C  1494  1  0.69777500  0.88181700  0.82605700  1
  C  1495  1  0.73463700  0.91185700  0.82516300  1
  C  1496  1  0.76636200  0.87793000  0.82464400  1
  C  1497  1  0.76401000  0.85681900  0.82626300  1
  C  1498  1  0.79529700  0.84447500  0.82609200  1
  C  1499  1  0.83124000  0.85227900  0.82350400  1
  C  1500  1  0.83386900  0.87337300  0.82179600  1
  C  1501  1  0.80240900  0.88581100  0.82252500  1
  C  1502  1  0.67691700  0.87946600  0.80845200  1
  C  1503  1  0.64516200  0.86733700  0.80826500  1
  C  1504  1  0.63352400  0.85644700  0.82540100  1
  C  1505  1  0.65414800  0.85972000  0.84316700  1
  C  1506  1  0.68511300  0.87240600  0.84362200  1
  C  1507  1  0.74146500  0.92260200  0.80739700  1
  C  1508  1  0.74176500  0.94370400  0.80730900  1
  C  1509  1  0.73508000  0.95499800  0.82491800  1
  C  1510  1  0.72820000  0.94394600  0.84265000  1
  C  1511  1  0.72798800  0.92285600  0.84279000  1
  C  1525  1  0.70258700  0.05341770  0.17873800  1
  C  1526  1  0.73421000  0.01951970  0.17887100  1
  C  1527  1  0.77129200  0.04953870  0.17835100  1
  C  1528  1  0.78522100  0.05847270  0.16082100  1
  C  1529  1  0.81653800  0.07090170  0.16152400  1
  C  1530  1  0.83648200  0.07431970  0.17950700  1
  C  1531  1  0.82341800  0.06392970  0.19666200  1
  C  1532  1  0.79124200  0.05212870  0.19622600  1
  C  1533  1  0.66666667  0.04562470  0.18174600  1
  C  1534  1  0.63516800  0.05802970  0.18201800  1
  C  1535  1  0.63758000  0.07897970  0.17895900  1
  C  1536  1  0.67334600  0.08667470  0.17550700  1
  C  1537  1  0.70471600  0.07438370  0.17574300  1
  C  1538  1  0.73885500  0.00845268  0.16110500  1
  C  1539  1  0.73836200  0.98735600  0.16130800  1
  C  1540  1  0.73316100  0.97634000  0.17924100  1
  C  1541  1  0.72842800  0.98773100  0.19698200  1
  C  1542  1  0.72900700  0.00883368  0.19683300  1
  C  1556  1  0.70176400  0.28774100  0.58963300  1
  C  1557  1  0.73336500  0.28782600  0.55569600  1
  C  1558  1  0.77019400  0.28792600  0.58609700  1
  C  1559  1  0.78590900  0.30577900  0.59335700  1
  C  1560  1  0.81713300  0.30533500  0.60589700  1
  C  1561  1  0.83525400  0.28719700  0.61111100  1
  C  1562  1  0.82016400  0.26955700  0.60249400  1
  C  1563  1  0.78787200  0.26980600  0.59085400  1
  C  1564  1  0.66666667  0.28198700  0.58225600  1
  C  1565  1  0.63514300  0.28166000  0.59461500  1
  C  1566  1  0.63699900  0.28689800  0.61512400  1
  C  1567  1  0.67184800  0.29285700  0.62246000  1
  C  1568  1  0.70316300  0.29319400  0.61012000  1
  C  1569  1  0.71849800  0.30411900  0.54499900  1
  C  1570  1  0.71751500  0.30413500  0.52389000  1
  C  1571  1  0.73199700  0.28807700  0.51241100  1
  C  1572  1  0.74699600  0.27185200  0.52340600  1
  C  1573  1  0.74722700  0.27160100  0.54447700  1
  C  1587  1  0.70143700  0.64271500  0.41445900  1
  C  1588  1  0.73313400  0.64228300  0.44840600  1
  C  1589  1  0.77007800  0.64140300  0.41833400  1
  C  1590  1  0.78305700  0.62382300  0.40906000  1
  C  1591  1  0.81430800  0.62426300  0.39655700  1
  C  1592  1  0.83486600  0.64205100  0.39329200  1
  C  1593  1  0.82275700  0.65924600  0.40393100  1
  C  1594  1  0.79076000  0.65905800  0.41587900  1
  C  1595  1  0.66542200  0.64496500  0.42235000  1
  C  1596  1  0.63392100  0.64562900  0.40993400  1
  C  1597  1  0.63645600  0.64374600  0.38885000  1
  C  1598  1  0.67236900  0.64109300  0.38102800  1
  C  1599  1  0.70370500  0.64093300  0.39335600  1
  C  1600  1  0.73850500  0.62456300  0.45946000  1
  C  1601  1  0.73815500  0.62473900  0.48056100  1
  C  1602  1  0.73242900  0.64260300  0.49160800  1
  C  1603  1  0.72701900  0.66030500  0.48024700  1
  C  1604  1  0.72739600  0.66017600  0.45913500  1
  C  1617  1  0.45292700  0.63305800  0.32131500  1
  C  1618  1  0.48275700  0.63224300  0.33493400  1
  C  1619  1  0.51110800  0.64684800  0.33505800  1
  C  1620  1  0.50827800  0.66249100  0.32078500  1
  C  1621  1  0.48040200  0.66340700  0.30595700  1
  C  1622  1  0.45277900  0.64845200  0.30679200  1
  C  1623  1  0.54192900  0.64595300  0.34876000  1
  C  1624  1  0.53889000  0.63837000  0.36849300  1
  C  1625  1  0.56942000  0.63764100  0.38157700  1
  C  1626  1  0.60472900  0.64461100  0.37577100  1
  C  1627  1  0.60754000  0.65236600  0.35610000  1
  C  1628  1  0.57733800  0.65272200  0.34294300  1
  C  1629  1  0.42313100  0.61904800  0.32229300  1
  C  1630  1  0.42909900  0.59814400  0.32194300  1
  C  1631  1  0.39931100  0.58459600  0.32251500  1
  C  1632  1  0.36255300  0.59144600  0.32410400  1
  C  1633  1  0.35664300  0.61233800  0.32475600  1
  C  1634  1  0.38630800  0.62586300  0.32365100  1
  C  1635  1  0.48064400  0.67873300  0.29066500  1
  C  1636  1  0.44780700  0.68638600  0.28212900  1
  C  1637  1  0.44837500  0.70110800  0.26703900  1
  C  1638  1  0.48178100  0.70935600  0.25977600  1
  C  1639  1  0.51460200  0.70175500  0.26836700  1
  C  1640  1  0.51405400  0.68676600  0.28315600  1
  C  1656  1  0.45467500  0.29887300  0.68277900  1
  C  1657  1  0.48507400  0.29930200  0.66939700  1
  C  1658  1  0.51262500  0.28429500  0.66902000  1
  C  1659  1  0.50929300  0.26852200  0.68302800  1
  C  1660  1  0.48097300  0.26767200  0.69755700  1
  C  1661  1  0.45375900  0.28286300  0.69675100  1
  C  1662  1  0.54336100  0.28506200  0.65535600  1
  C  1663  1  0.53962800  0.29166700  0.63531800  1
  C  1664  1  0.56992900  0.29211200  0.62208300  1
  C  1665  1  0.60555200  0.28604800  0.62823800  1
  C  1666  1  0.60917800  0.27936300  0.64823900  1
  C  1667  1  0.57903400  0.27901200  0.66144600  1
  C  1668  1  0.42601600  0.31399700  0.68217900  1
  C  1669  1  0.41584100  0.32366400  0.66413000  1
  C  1670  1  0.38748500  0.33805100  0.66336900  1
  C  1671  1  0.36661200  0.34339800  0.68048700  1
  C  1672  1  0.37675700  0.33367600  0.69852400  1
  C  1673  1  0.40577200  0.31969300  0.69939600  1
  C  1674  1  0.48070800  0.25222100  0.71268200  1
  C  1675  1  0.44754000  0.24403100  0.72034700  1
  C  1676  1  0.44764300  0.22929400  0.73542800  1
  C  1677  1  0.48104800  0.22177300  0.74322300  1
  C  1678  1  0.51427700  0.22970500  0.73566300  1
  C  1679  1  0.51401800  0.24477100  0.72095400  1
  C  1695  1  0.45123000  0.14442100  0.16876500  1
  C  1696  1  0.48225400  0.13160600  0.16741400  1
  C  1697  1  0.51176600  0.13237200  0.18134700  1
  C  1698  1  0.50943400  0.14705400  0.19662200  1
  C  1699  1  0.47958600  0.16051600  0.19818800  1
  C  1700  1  0.45041600  0.15873600  0.18434000  1
  C  1701  1  0.54297000  0.11897400  0.18027000  1
  C  1702  1  0.53977400  0.09889570  0.17368000  1
  C  1703  1  0.57036100  0.08585670  0.17319800  1
  C  1704  1  0.60587200  0.09206670  0.17946800  1
  C  1705  1  0.60887500  0.11210700  0.18618800  1
  C  1706  1  0.57859100  0.12520900  0.18627900  1
  C  1707  1  0.42136000  0.14318200  0.15482800  1
  C  1708  1  0.42736800  0.14385100  0.13393200  1
  C  1709  1  0.39764100  0.14342400  0.12035300  1
  C  1710  1  0.36086900  0.14174100  0.12714800  1
  C  1711  1  0.35490500  0.14078200  0.14802800  1
  C  1712  1  0.38452500  0.14171000  0.16159500  1
  C  1713  1  0.47958100  0.17577300  0.21312400  1
  C  1714  1  0.45017900  0.17783500  0.22678600  1
  C  1715  1  0.45089900  0.19268600  0.24172600  1
  C  1716  1  0.48052000  0.20643600  0.24343100  1
  C  1717  1  0.50956300  0.20439000  0.22938800  1
  C  1718  1  0.50933200  0.18929900  0.21471500  1
  C  1734  1  0.45315800  0.78595900  0.83378100  1
  C  1735  1  0.48393400  0.79900600  0.83510100  1
  C  1736  1  0.51483300  0.79798500  0.82212000  1
  C  1737  1  0.51464600  0.78235300  0.80777500  1
  C  1738  1  0.48441800  0.76923900  0.80500600  1
  C  1739  1  0.45387100  0.77183800  0.81793700  1
  C  1740  1  0.54481200  0.81231200  0.82318000  1
  C  1741  1  0.55475600  0.82219700  0.84114600  1
  C  1742  1  0.58279200  0.83677200  0.84178100  1
  C  1743  1  0.60356700  0.84209400  0.82462200  1
  C  1744  1  0.59397200  0.83197000  0.80672300  1
  C  1745  1  0.56521000  0.81784600  0.80595900  1
  C  1746  1  0.42289900  0.78666300  0.84801300  1
  C  1747  1  0.41340900  0.80414800  0.85884100  1
  C  1748  1  0.38517600  0.80430800  0.87332300  1
  C  1749  1  0.36332200  0.78721900  0.87761100  1
  C  1750  1  0.37250100  0.76986500  0.86643700  1
  C  1751  1  0.40161100  0.76947500  0.85253200  1
  C  1752  1  0.48470100  0.75389200  0.78976100  1
  C  1753  1  0.46730100  0.73512200  0.79274800  1
  C  1754  1  0.46706100  0.72023700  0.77783300  1
  C  1755  1  0.48507800  0.72326000  0.75936300  1
  C  1756  1  0.50297500  0.74175700  0.75628200  1
  C  1757  1  0.50239400  0.75678400  0.77105900  1
  C  1773  1  0.01471280  0.29797700  0.32197700  1
  C  1774  1  0.98394400  0.29897900  0.33504600  1
  C  1775  1  0.95314700  0.28594800  0.33379700  1
  C  1776  1  0.95364200  0.27182500  0.31796200  1
  C  1777  1  0.98399300  0.26930800  0.30487500  1
  C  1778  1  0.01428580  0.28240100  0.30757200  1
  C  1779  1  0.92301100  0.28673500  0.34807500  1
  C  1780  1  0.91339100  0.30441900  0.35854800  1
  C  1781  1  0.88525100  0.30477200  0.37306700  1
  C  1782  1  0.86380400  0.28764800  0.37770600  1
  C  1783  1  0.87304600  0.27005300  0.36696200  1
  C  1784  1  0.90201800  0.26952400  0.35295500  1
  C  1785  1  0.04471380  0.31230300  0.32299400  1
  C  1786  1  0.05466680  0.32223300  0.34093500  1
  C  1787  1  0.08259980  0.33686300  0.34152800  1
  C  1788  1  0.10335700  0.34217700  0.32435800  1
  C  1789  1  0.09382780  0.33197100  0.30649300  1
  C  1790  1  0.06512580  0.31780700  0.30576500  1
  C  1791  1  0.98399300  0.25410500  0.28949400  1
  C  1792  1  0.00129980  0.25720600  0.27072000  1
  C  1793  1  0.00161380  0.24233300  0.25579100  1
  C  1794  1  0.98378400  0.22380700  0.25879000  1
  C  1795  1  0.96610600  0.22058000  0.27731800  1
  C  1796  1  0.96664300  0.23530600  0.29238900  1
  C  1812  1  0.01382080  0.63234000  0.68109800  1
  C  1813  1  0.98328000  0.63116400  0.66792200  1
  C  1814  1  0.95362300  0.64495300  0.66885300  1
  C  1815  1  0.95447100  0.65964000  0.68412200  1
  C  1816  1  0.98416700  0.66121600  0.69771500  1
  C  1817  1  0.01377380  0.64762100  0.69576000  1
  C  1818  1  0.92384800  0.64450100  0.65469300  1
  C  1819  1  0.90538500  0.62654600  0.64972900  1
  C  1820  1  0.87524100  0.62643600  0.63639400  1
  C  1821  1  0.86228400  0.64419900  0.62717400  1
  C  1822  1  0.88144100  0.66205600  0.63188700  1
  C  1823  1  0.91131300  0.66222500  0.64533700  1
  C  1824  1  0.04421280  0.61869400  0.67972600  1
  C  1825  1  0.03877280  0.59773700  0.67945400  1
  C  1826  1  0.06886980  0.58438100  0.67909400  1
  C  1827  1  0.10556700  0.59147000  0.67843500  1
  C  1828  1  0.11101600  0.61241300  0.67838400  1
  C  1829  1  0.08098180  0.62573300  0.67924200  1
  C  1830  1  0.98436500  0.67625600  0.71290600  1
  C  1831  1  0.01404680  0.68978600  0.71477700  1
  C  1832  1  0.01393080  0.70479000  0.72956800  1
  C  1833  1  0.98462900  0.70674800  0.74347700  1
  C  1834  1  0.95521200  0.69289900  0.74157900  1
  C  1835  1  0.95483700  0.67815100  0.72653300  1
  C  1851  1  0.00977380  0.78384400  0.16927000  1
  C  1852  1  0.98170300  0.79860500  0.16943300  1
  C  1853  1  0.95265400  0.79849500  0.18359800  1
  C  1854  1  0.95262700  0.78321200  0.19826900  1
  C  1855  1  0.97951900  0.76786300  0.19874600  1
  C  1856  1  0.00699280  0.76836900  0.18370700  1
  C  1857  1  0.92385600  0.81322500  0.18309300  1
  C  1858  1  0.90524500  0.81785200  0.16508700  1
  C  1859  1  0.87538900  0.83134100  0.16474700  1
  C  1860  1  0.86281800  0.84100400  0.18233900  1
  C  1861  1  0.88203300  0.83660200  0.20025900  1
  C  1862  1  0.91167900  0.82299900  0.20065500  1
  C  1863  1  0.04058180  0.78461100  0.15556600  1
  C  1864  1  0.03760280  0.79216700  0.13582300  1
  C  1865  1  0.06822580  0.79296200  0.12281000  1
  C  1866  1  0.10354400  0.78611900  0.12873900  1
  C  1867  1  0.10629400  0.77835500  0.14840100  1
  C  1868  1  0.07598480  0.77791400  0.16147500  1
  C  1869  1  0.97955000  0.75252900  0.21396800  1
  C  1870  1  0.01296180  0.74477800  0.22181400  1
  C  1871  1  0.01333880  0.72968000  0.23649700  1
  C  1872  1  0.98017700  0.72199600  0.24440700  1
  C  1873  1  0.94670500  0.72981500  0.23699900  1
  C  1874  1  0.94644800  0.74458900  0.22196400  1
  C  1890  1  0.01182780  0.14595600  0.83512800  1
  C  1891  1  0.98231900  0.13203200  0.83585400  1
  C  1892  1  0.95125800  0.13349300  0.82309600  1
  C  1893  1  0.95027500  0.14924300  0.80897800  1
  C  1894  1  0.97948600  0.16308100  0.80722500  1
  C  1895  1  0.00956680  0.16131300  0.82052700  1
  C  1896  1  0.92151600  0.11948700  0.82423500  1
  C  1897  1  0.92766900  0.09863570  0.82293800  1
  C  1898  1  0.89807000  0.08497770  0.82332000  1
  C  1899  1  0.86131300  0.09163770  0.82555400  1
  C  1900  1  0.85522500  0.11247400  0.82712400  1
  C  1901  1  0.88470300  0.12613700  0.82624000  1
  C  1902  1  0.04292680  0.14475100  0.84855300  1
  C  1903  1  0.03925980  0.13863400  0.86875800  1
  C  1904  1  0.06973980  0.13797500  0.88185800  1
  C  1905  1  0.10555900  0.14346100  0.87548400  1
  C  1906  1  0.10911900  0.14968100  0.85532100  1
  C  1907  1  0.07882580  0.15011600  0.84221200  1
  C  1908  1  0.97907300  0.17827800  0.79221600  1
  C  1909  1  0.00831180  0.18007100  0.77839400  1
  C  1910  1  0.00797880  0.19497500  0.76351600  1
  C  1911  1  0.97893300  0.20910300  0.76199600  1
  C  1912  1  0.94984900  0.20717300  0.77605300  1
  C  1913  1  0.94963700  0.19198800  0.79066500  1
  C  1929  1  0.01244180  0.29906000  0.68408100  1
  C  1930  1  0.98532000  0.29831000  0.66883800  1
  C  1931  1  0.95473800  0.28506800  0.66938800  1
  C  1932  1  0.95340000  0.27146500  0.68569200  1
  C  1933  1  0.98015000  0.27090900  0.70111700  1
  C  1934  1  0.00841080  0.28546800  0.70019600  1
  C  1935  1  0.92621300  0.28541000  0.65417500  1
  C  1936  1  0.91656800  0.30313300  0.64378300  1
  C  1937  1  0.88799300  0.30359900  0.62949400  1
  C  1938  1  0.86611400  0.28657100  0.62502400  1
  C  1939  1  0.87584900  0.26890200  0.63554800  1
  C  1940  1  0.90524200  0.26823100  0.64925600  1
  C  1941  1  0.04335680  0.31266600  0.68321700  1
  C  1942  1  0.04060680  0.33213000  0.67495000  1
  C  1943  1  0.07109180  0.34522900  0.67426900  1
  C  1944  1  0.10601900  0.33969900  0.68198100  1
  C  1945  1  0.10849900  0.32031100  0.69045500  1
  C  1946  1  0.07834380  0.30712300  0.69078400  1
  C  1947  1  0.97948900  0.25589100  0.71671000  1
  C  1948  1  0.01250180  0.24810200  0.72495500  1
  C  1949  1  0.01228980  0.23316200  0.73979300  1
  C  1950  1  0.97907100  0.22466300  0.74698200  1
  C  1951  1  0.94606300  0.23230300  0.73861600  1
  C  1952  1  0.94625000  0.24757000  0.72408500  1
  C  1968  1  0.01477880  0.63302000  0.32228800  1
  C  1969  1  0.98576900  0.63230600  0.33643600  1
  C  1970  1  0.95451500  0.64505100  0.33536500  1
  C  1971  1  0.95362000  0.65885300  0.31921900  1
  C  1972  1  0.98274600  0.66110100  0.30525900  1
  C  1973  1  0.01298080  0.64785700  0.30723200  1
  C  1974  1  0.92492700  0.64418400  0.34993700  1
  C  1975  1  0.91528000  0.62632600  0.36009800  1
  C  1976  1  0.88673800  0.62571100  0.37440500  1
  C  1977  1  0.86529600  0.64278800  0.37921800  1
  C  1978  1  0.87480300  0.66059600  0.36891700  1
  C  1979  1  0.90394200  0.66133900  0.35502100  1
  C  1980  1  0.04485680  0.61904400  0.32276800  1
  C  1981  1  0.06371380  0.61426800  0.34065500  1
  C  1982  1  0.09357680  0.60075900  0.34074300  1
  C  1983  1  0.10582900  0.59120300  0.32301600  1
  C  1984  1  0.08634980  0.59574600  0.30522900  1
  C  1985  1  0.05672380  0.60934200  0.30509100  1
  C  1986  1  0.98175500  0.67626700  0.28984800  1
  C  1987  1  0.99794100  0.67321700  0.27077300  1
  C  1988  1  0.99778400  0.68821700  0.25597300  1
  C  1989  1  0.98058200  0.70684100  0.25941800  1
  C  1990  1  0.96397800  0.71001800  0.27824200  1
  C  1991  1  0.96501000  0.69515800  0.29317000  1
  C  2007  1  0.01286580  0.78335100  0.83519400  1
  C  2008  1  0.98403200  0.79767600  0.83529500  1
  C  2009  1  0.95577600  0.79793600  0.82061200  1
  C  2010  1  0.95813800  0.78342300  0.80517600  1
  C  2011  1  0.98494300  0.76804300  0.80479900  1
  C  2012  1  0.01162680  0.76833900  0.82024000  1
  C  2013  1  0.92534800  0.81191900  0.82124100  1
  C  2014  1  0.92863300  0.83164900  0.82880500  1
  C  2015  1  0.89826500  0.84485000  0.82951200  1
  C  2016  1  0.86288700  0.83915900  0.82254600  1
  C  2017  1  0.85987300  0.81952800  0.81473000  1
  C  2018  1  0.88987900  0.80625400  0.81443100  1
  C  2019  1  0.04303180  0.78403900  0.84923300  1
  C  2020  1  0.03835980  0.78919900  0.86963400  1
  C  2021  1  0.06848480  0.78988200  0.88299300  1
  C  2022  1  0.10481600  0.78566300  0.87653800  1
  C  2023  1  0.10946000  0.78049100  0.85617100  1
  C  2024  1  0.07944780  0.77978200  0.84289200  1
  C  2025  1  0.98492900  0.75280400  0.78944800  1
  C  2026  1  0.01796680  0.74404500  0.78232000  1
  C  2027  1  0.01784280  0.72900200  0.76756800  1
  C  2028  1  0.98473100  0.72204400  0.75874700  1
  C  2029  1  0.95171800  0.73093700  0.76574000  1
  C  2030  1  0.95179000  0.74570400  0.78076400  1
  C  2046  1  0.01439080  0.14663700  0.16881400  1
  C  2047  1  0.98652300  0.13182100  0.16908900  1
  C  2048  1  0.95645300  0.13224100  0.18268300  1
  C  2049  1  0.95628600  0.14810000  0.19684300  1
  C  2050  1  0.98402900  0.16302200  0.19780300  1
  C  2051  1  0.01237580  0.16204000  0.18327300  1
  C  2052  1  0.92728100  0.11737400  0.18203100  1
  C  2053  1  0.91690400  0.10767200  0.16403400  1
  C  2054  1  0.88834900  0.09339670  0.16332800  1
  C  2055  1  0.86724800  0.08822670  0.18042800  1
  C  2056  1  0.87751800  0.09805070  0.19839700  1
  C  2057  1  0.90683900  0.11184700  0.19923900  1
  C  2058  1  0.04393480  0.14612000  0.15450200  1
  C  2059  1  0.06346280  0.12827900  0.15036800  1
  C  2060  1  0.09316380  0.12798500  0.13678500  1
  C  2061  1  0.10470000  0.14547400  0.12658500  1
  C  2062  1  0.08477280  0.16324600  0.13056300  1
  C  2063  1  0.05517580  0.16357100  0.14419000  1
  C  2064  1  0.98380300  0.17843200  0.21297900  1
  C  2065  1  0.01698980  0.18571000  0.22153000  1
  C  2066  1  0.01705880  0.20072600  0.23630700  1
  C  2067  1  0.98375100  0.20880700  0.24362000  1
  C  2068  1  0.95046800  0.20152700  0.23545900  1
  C  2069  1  0.95057300  0.18685300  0.22032600  1
  C  2085  1  0.45523100  0.63249900  0.68272700  1
  C  2086  1  0.48387000  0.63225400  0.66832800  1
  C  2087  1  0.51347300  0.64601300  0.66901500  1
  C  2088  1  0.51318100  0.66078900  0.68417200  1
  C  2089  1  0.48491600  0.66202900  0.69877000  1
  C  2090  1  0.45658900  0.64743400  0.69775700  1
  C  2091  1  0.54352400  0.64486100  0.65517200  1
  C  2092  1  0.53781300  0.64525200  0.63424800  1
  C  2093  1  0.56776500  0.64473400  0.62079500  1
  C  2094  1  0.60446500  0.64315400  0.62774700  1
  C  2095  1  0.61010000  0.64243200  0.64866700  1
  C  2096  1  0.58027300  0.64351900  0.66210400  1
  C  2097  1  0.42566300  0.61818000  0.68223700  1
  C  2098  1  0.40671400  0.61368000  0.66429900  1
  C  2099  1  0.37657600  0.60035900  0.66404800  1
  C  2100  1  0.36400000  0.59073100  0.68166500  1
  C  2101  1  0.38350200  0.59501500  0.69951600  1
  C  2102  1  0.41345300  0.60842600  0.69981500  1
  C  2103  1  0.48500600  0.67741300  0.71397800  1
  C  2104  1  0.45181900  0.68588800  0.72133700  1
  C  2105  1  0.45177700  0.70070400  0.73632200  1
  C  2106  1  0.48508900  0.70812700  0.74430900  1
  C  2107  1  0.51836500  0.70005600  0.73692800  1
  C  2108  1  0.51824400  0.68488000  0.72229900  1
  C  2124  1  0.45463300  0.29827600  0.31981000  1
  C  2125  1  0.48304800  0.29801600  0.33438900  1
  C  2126  1  0.51144400  0.28343000  0.33445600  1
  C  2127  1  0.50948100  0.26818200  0.31975500  1
  C  2128  1  0.48282700  0.26800100  0.30431400  1
  C  2129  1  0.45652900  0.28361900  0.30451000  1
  C  2130  1  0.54180000  0.28406600  0.34840300  1
  C  2131  1  0.53797900  0.29064300  0.36844500  1
  C  2132  1  0.56837100  0.29148500  0.38160500  1
  C  2133  1  0.60419500  0.28575600  0.37543600  1
  C  2134  1  0.60783200  0.27897500  0.35546700  1
  C  2135  1  0.57769000  0.27840200  0.34229800  1
  C  2136  1  0.42436800  0.31233000  0.32046800  1
  C  2137  1  0.42791500  0.33210300  0.32786900  1
  C  2138  1  0.39760100  0.34532300  0.32869800  1
  C  2139  1  0.36207300  0.33959700  0.32200100  1
  C  2140  1  0.35879900  0.31992400  0.31433200  1
  C  2141  1  0.38874200  0.30662700  0.31394000  1
  C  2142  1  0.48232600  0.25263000  0.28913200  1
  C  2143  1  0.44892400  0.24569400  0.28062400  1
  C  2144  1  0.44837100  0.23086000  0.26568600  1
  C  2145  1  0.48113400  0.22175500  0.25864100  1
  C  2146  1  0.51451100  0.22852200  0.26731600  1
  C  2147  1  0.51511900  0.24363700  0.28197800  1
  C  2163  1  0.45521500  0.14523200  0.83442400  1
  C  2164  1  0.48662300  0.13262500  0.83571400  1
  C  2165  1  0.51573300  0.13328800  0.82163000  1
  C  2166  1  0.51398200  0.14799500  0.80644800  1
  C  2167  1  0.48363800  0.16112900  0.80428100  1
  C  2168  1  0.45433500  0.15884200  0.81811200  1
  C  2169  1  0.54576200  0.11930500  0.82226100  1
  C  2170  1  0.56445900  0.11460600  0.84021700  1
  C  2171  1  0.59409600  0.10096200  0.84046000  1
  C  2172  1  0.60624600  0.09120270  0.82282900  1
  C  2173  1  0.58696800  0.09569670  0.80496700  1
  C  2174  1  0.55755900  0.10942000  0.80467500  1
  C  2175  1  0.42552700  0.14446000  0.84895200  1
  C  2176  1  0.41658900  0.12688900  0.85978400  1
  C  2177  1  0.38806600  0.12646000  0.87410800  1
  C  2178  1  0.36571600  0.14338800  0.87821600  1
  C  2179  1  0.37446100  0.16086100  0.86715300  1
  C  2180  1  0.40373100  0.16149300  0.85336200  1
  C  2181  1  0.48264000  0.17622700  0.78881500  1
  C  2182  1  0.46564400  0.19507700  0.79202300  1
  C  2183  1  0.46458000  0.20987500  0.77703800  1
  C  2184  1  0.48137300  0.20666700  0.75827200  1
  C  2185  1  0.49884800  0.18809500  0.75494600  1
  C  2186  1  0.49904100  0.17315300  0.76980100  1
  C  2202  1  0.45460000  0.78620100  0.16922500  1
  C  2203  1  0.48563300  0.79911000  0.16794300  1
  C  2204  1  0.51561500  0.79804900  0.18145300  1
  C  2205  1  0.51482500  0.78316300  0.19645300  1
  C  2206  1  0.48431800  0.77023900  0.19874100  1
  C  2207  1  0.45448900  0.77225900  0.18526700  1
  C  2208  1  0.54577800  0.81177700  0.18020400  1
  C  2209  1  0.53980400  0.83267600  0.18087900  1
  C  2210  1  0.56954400  0.84624000  0.18056800  1
  C  2211  1  0.60631500  0.83942500  0.17901400  1
  C  2212  1  0.61224200  0.81853200  0.17805800  1
  C  2213  1  0.58258300  0.80496000  0.17892900  1
  C  2214  1  0.42476000  0.78697700  0.15481000  1
  C  2215  1  0.41490400  0.80482100  0.14468700  1
  C  2216  1  0.38626500  0.80539400  0.13044600  1
  C  2217  1  0.36485700  0.78829200  0.12569300  1
  C  2218  1  0.37455000  0.77049400  0.13596400  1
  C  2219  1  0.40382300  0.76978900  0.14978200  1
  C  2220  1  0.48384900  0.75532700  0.21407700  1
  C  2221  1  0.45436700  0.75391500  0.22779300  1
  C  2222  1  0.45393500  0.73908500  0.24276500  1
  C  2223  1  0.48244100  0.72466800  0.24451000  1
  C  2224  1  0.51168600  0.72613400  0.23049700  1
  C  2225  1  0.51261900  0.74120300  0.21577800  1
  N  1  1  0.01453700  0.09320100  0.32425800  1
  N  32  1  0.01492400  0.94267500  0.67898500  1
  N  63  1  0.01322100  0.69441700  0.07702500  1
  N  94  1  0.01346300  0.33976600  0.92719400  1
  N  125  1  0.01281900  0.94257700  0.32505600  1
  N  156  1  0.01366900  0.09347500  0.67949200  1
  N  187  1  0.01317400  0.34080200  0.07804600  1
  N  218  1  0.01454300  0.69416400  0.92641300  1
  N  249  1  0.51421900  0.59277800  0.82472700  1
  N  280  1  0.51286700  0.44175600  0.17979300  1
  N  311  1  0.51228000  0.19463300  0.57788300  1
  N  342  1  0.51329400  0.84018400  0.42621500  1
  N  373  1  0.51348900  0.44214900  0.82532700  1
  N  404  1  0.51500900  0.59255300  0.17861500  1
  N  435  1  0.51416400  0.83954900  0.57713400  1
  N  466  1  0.51382800  0.19370600  0.42701600  1
  N  1121  1  0.23479000  0.54154000  0.32425800  1
  N  1152  1  0.23517700  0.39101400  0.67898500  1
  N  1183  1  0.23347400  0.14275600  0.07702500  1
  N  1214  1  0.23371600  0.78810500  0.92719400  1
  N  1245  1  0.23307200  0.39091600  0.32505600  1
  N  1276  1  0.23392200  0.54181400  0.67949200  1
  N  1307  1  0.23342700  0.78914100  0.07804600  1
  N  1338  1  0.23479600  0.14250300  0.92641300  1
  N  1369  1  0.73447200  0.04111670  0.82472700  1
  N  1400  1  0.73312000  0.89009500  0.17979300  1
  N  1431  1  0.73253300  0.64297200  0.57788300  1
  N  1462  1  0.73354700  0.28852300  0.42621500  1
  N  1493  1  0.73374200  0.89048800  0.82532700  1
  N  1524  1  0.73526200  0.04089170  0.17861500  1
  N  1555  1  0.73441700  0.28788800  0.57713400  1
  N  1586  1  0.73408100  0.64204500  0.42701600  1
