# generated using pymatgen
data_H8C14N5O2
_symmetry_space_group_name_H-M   'P 1'
_cell_length_a   52.69550000
_cell_length_b   52.69550000
_cell_length_c   52.69550000
_cell_angle_alpha   90.00000000
_cell_angle_beta   90.00000000
_cell_angle_gamma   90.00000000
_symmetry_Int_Tables_number   1
_chemical_formula_structural   H8C14N5O2
_chemical_formula_sum   'H384 C672 N240 O96'
_cell_volume   146325.69278643
_cell_formula_units_Z   48
loop_
 _symmetry_equiv_pos_site_id
 _symmetry_equiv_pos_as_xyz
  1  'x, y, z'
loop_
 _atom_site_type_symbol
 _atom_site_label
 _atom_site_symmetry_multiplicity
 _atom_site_fract_x
 _atom_site_fract_y
 _atom_site_fract_z
 _atom_site_occupancy
  H  9  1  0.25027600  0.36610000  0.00719300  1
  H  17  1  0.37281400  0.24361500  0.00724300  1
  H  19  1  0.32803200  0.28990900  0.07077300  1
  H  20  1  0.29656800  0.32137100  0.07076000  1
  H  21  1  0.32802300  0.28984800  0.94368100  1
  H  22  1  0.29655700  0.32130700  0.94366900  1
  H  39  1  0.76410000  0.63493900  0.00716100  1
  H  47  1  0.64160400  0.75746200  0.00725700  1
  H  49  1  0.68637600  0.71113500  0.07076900  1
  H  50  1  0.71782500  0.67966000  0.07074400  1
  H  51  1  0.68632500  0.71118800  0.94367700  1
  H  52  1  0.71778700  0.67972100  0.94365200  1
  H  69  1  0.76417400  0.36610600  0.00713000  1
  H  77  1  0.64164000  0.24362200  0.00725600  1
  H  79  1  0.68641000  0.28983300  0.94366400  1
  H  80  1  0.71788900  0.32128000  0.94363200  1
  H  81  1  0.68639100  0.28997900  0.07075300  1
  H  82  1  0.71785900  0.32143600  0.07072300  1
  H  99  1  0.25029100  0.63500200  0.00743100  1
  H  107  1  0.37285000  0.75746400  0.00714600  1
  H  109  1  0.32803200  0.71108600  0.94370700  1
  H  110  1  0.29656600  0.67962600  0.94378000  1
  H  111  1  0.32811000  0.71130200  0.07079900  1
  H  112  1  0.29661900  0.67986900  0.07087200  1
  H  129  1  0.00727800  0.24356600  0.37274600  1
  H  137  1  0.00719300  0.36612600  0.25028300  1
  H  139  1  0.07077300  0.32138300  0.29654900  1
  H  140  1  0.07079400  0.28991500  0.32800500  1
  H  141  1  0.94367900  0.32129500  0.29654500  1
  H  142  1  0.94370200  0.28982800  0.32800400  1
  H  159  1  0.00721300  0.75746600  0.64164700  1
  H  167  1  0.00724100  0.63491000  0.76411500  1
  H  169  1  0.07077800  0.67972500  0.71786300  1
  H  170  1  0.07077100  0.71119000  0.68640600  1
  H  171  1  0.94368700  0.67963900  0.71781100  1
  H  172  1  0.94368100  0.71111200  0.68635500  1
  H  189  1  0.00724000  0.75748600  0.37277200  1
  H  197  1  0.00718000  0.63493700  0.25030000  1
  H  199  1  0.94365600  0.67973800  0.29657800  1
  H  200  1  0.94367300  0.71121900  0.32802600  1
  H  201  1  0.07074700  0.67966800  0.29658300  1
  H  202  1  0.07076400  0.71114300  0.32803400  1
  H  219  1  0.00731000  0.24366400  0.64164000  1
  H  227  1  0.00722600  0.36620200  0.76412500  1
  H  229  1  0.94371100  0.32141700  0.71781900  1
  H  230  1  0.94373200  0.28994900  0.68636300  1
  H  231  1  0.07080400  0.32143000  0.71789300  1
  H  232  1  0.07082500  0.28994900  0.68645000  1
  H  249  1  0.37275700  0.00067200  0.25025900  1
  H  257  1  0.25029100  0.00051700  0.37281400  1
  H  259  1  0.29651700  0.06412500  0.32806800  1
  H  260  1  0.32797500  0.06416400  0.29660000  1
  H  261  1  0.29659900  0.93703100  0.32799200  1
  H  262  1  0.32805900  0.93707300  0.29652600  1
  H  279  1  0.64166400  0.00050500  0.76410000  1
  H  287  1  0.76414400  0.00055100  0.64156000  1
  H  289  1  0.71778700  0.06408000  0.68627400  1
  H  290  1  0.68632500  0.06406900  0.71773900  1
  H  291  1  0.71791400  0.93698800  0.68635100  1
  H  292  1  0.68645900  0.93697800  0.71782700  1
  H  309  1  0.37281400  0.00051900  0.76417000  1
  H  317  1  0.25032500  0.00056900  0.64163800  1
  H  319  1  0.29658200  0.93700700  0.68640600  1
  H  320  1  0.32803000  0.93699300  0.71788300  1
  H  321  1  0.29665000  0.06409600  0.68638400  1
  H  322  1  0.32810800  0.06408500  0.71785100  1
  H  339  1  0.64165300  0.00068300  0.25032300  1
  H  347  1  0.76411500  0.00051300  0.37288600  1
  H  349  1  0.71780800  0.93703100  0.32805700  1
  H  350  1  0.68635300  0.93707300  0.29658700  1
  H  351  1  0.71790100  0.06412200  0.32814000  1
  H  352  1  0.68646900  0.06416600  0.29664800  1
  H  369  1  0.74980600  0.86563200  0.50718400  1
  H  377  1  0.87237900  0.74308500  0.50723300  1
  H  379  1  0.82751100  0.78935300  0.57075900  1
  H  380  1  0.79606300  0.82080500  0.57074600  1
  H  381  1  0.82758400  0.78937300  0.44367600  1
  H  382  1  0.79612900  0.82082200  0.44366200  1
  H  399  1  0.26465100  0.13543000  0.50730900  1
  H  407  1  0.14211400  0.25801500  0.50714200  1
  H  409  1  0.18687800  0.21175800  0.57074900  1
  H  410  1  0.21833200  0.18030500  0.57079300  1
  H  411  1  0.18695300  0.21166100  0.44366800  1
  H  412  1  0.21838900  0.18019000  0.44371000  1
  H  429  1  0.26463600  0.86571400  0.50719900  1
  H  437  1  0.14206900  0.74316500  0.50724100  1
  H  439  1  0.18686400  0.78945500  0.44368300  1
  H  440  1  0.21832100  0.82090600  0.44367400  1
  H  441  1  0.18689900  0.78945900  0.57076500  1
  H  442  1  0.21835800  0.82090200  0.57075500  1
  H  459  1  0.74977200  0.13550700  0.50733800  1
  H  467  1  0.87247900  0.25792000  0.50710400  1
  H  469  1  0.82756500  0.21160300  0.44365300  1
  H  470  1  0.79608600  0.18017800  0.44371200  1
  H  471  1  0.82764400  0.21177000  0.57073400  1
  H  472  1  0.79613300  0.18037700  0.57079500  1
  H  489  1  0.50713300  0.74310000  0.87232900  1
  H  497  1  0.50732300  0.86575400  0.74986500  1
  H  499  1  0.57079500  0.82085800  0.79617300  1
  H  500  1  0.57074700  0.78938300  0.82760300  1
  H  501  1  0.44371400  0.82095700  0.79607400  1
  H  502  1  0.44366400  0.78947000  0.82749200  1
  H  519  1  0.50727300  0.25803400  0.14211300  1
  H  527  1  0.50717600  0.13545000  0.26464900  1
  H  529  1  0.57075500  0.18023700  0.21838100  1
  H  530  1  0.57078200  0.21170500  0.18694300  1
  H  531  1  0.44367400  0.18029600  0.21833800  1
  H  532  1  0.44369900  0.21174700  0.18688300  1
  H  549  1  0.50717500  0.25791200  0.87239400  1
  H  557  1  0.50730900  0.13546200  0.74972700  1
  H  559  1  0.44371800  0.18017400  0.79605300  1
  H  560  1  0.44368500  0.21159900  0.82753600  1
  H  561  1  0.57079900  0.18030900  0.79605500  1
  H  562  1  0.57076500  0.21172600  0.82753800  1
  H  579  1  0.50732600  0.74320600  0.14210400  1
  H  587  1  0.50712100  0.86581500  0.26461500  1
  H  589  1  0.44366100  0.82094000  0.21827300  1
  H  590  1  0.44371400  0.78948900  0.18682000  1
  H  591  1  0.57074200  0.82101200  0.21841700  1
  H  592  1  0.57079500  0.78953300  0.18699400  1
  H  609  1  0.87231000  0.50054200  0.74975900  1
  H  617  1  0.74981200  0.50055000  0.87237900  1
  H  619  1  0.79604800  0.56409000  0.82750600  1
  H  620  1  0.82748300  0.56408800  0.79603600  1
  H  621  1  0.79611400  0.43700900  0.82758000  1
  H  622  1  0.82754400  0.43700700  0.79610500  1
  H  639  1  0.14210400  0.50058200  0.26468900  1
  H  647  1  0.26462100  0.50048700  0.14208400  1
  H  649  1  0.21836800  0.56406600  0.18689000  1
  H  650  1  0.18693400  0.56409000  0.21836200  1
  H  651  1  0.21830700  0.43698300  0.18692700  1
  H  652  1  0.18686200  0.43700700  0.21838900  1
  H  669  1  0.87237700  0.50052900  0.26459200  1
  H  677  1  0.74975100  0.50053100  0.14209800  1
  H  679  1  0.79609900  0.43698800  0.18685800  1
  H  680  1  0.82757200  0.43699000  0.21829000  1
  H  681  1  0.79603600  0.56406900  0.18692000  1
  H  682  1  0.82750200  0.56407100  0.21835700  1
  H  699  1  0.14213000  0.50060100  0.74984800  1
  H  707  1  0.26464700  0.50057600  0.87245100  1
  H  709  1  0.21834700  0.43704500  0.82762700  1
  H  710  1  0.18689700  0.43705100  0.79617300  1
  H  711  1  0.21840000  0.56412800  0.82760300  1
  H  712  1  0.18697300  0.56413400  0.79612900  1
  H  727  1  0.41295000  0.29460000  0.92001800  1
  H  729  1  0.41566200  0.19042100  0.88683500  1
  H  730  1  0.39266600  0.18984900  0.90832900  1
  H  732  1  0.37962900  0.28783300  0.95092400  1
  H  734  1  0.45118300  0.21305800  0.87904700  1
  H  741  1  0.60131000  0.70643100  0.92014800  1
  H  743  1  0.59887700  0.81052300  0.88662900  1
  H  744  1  0.62192600  0.81109300  0.90806500  1
  H  746  1  0.63471900  0.71318900  0.95095500  1
  H  748  1  0.56328400  0.78794300  0.87900000  1
  H  755  1  0.60149000  0.29470300  0.09448700  1
  H  757  1  0.59883500  0.19050200  0.12768800  1
  H  758  1  0.62185400  0.18995400  0.10622000  1
  H  760  1  0.63479800  0.28793800  0.06356600  1
  H  762  1  0.56334300  0.21317600  0.13548100  1
  H  769  1  0.41297300  0.70648800  0.09450400  1
  H  771  1  0.41581900  0.81076200  0.12747200  1
  H  772  1  0.39278500  0.81129400  0.10602100  1
  H  774  1  0.37967000  0.71324500  0.06358600  1
  H  776  1  0.45123400  0.78804700  0.13537700  1
  H  783  1  0.91999600  0.40624200  0.30129200  1
  H  785  1  0.88687700  0.40902000  0.19709300  1
  H  786  1  0.90835900  0.38601400  0.19652500  1
  H  788  1  0.95091300  0.37293200  0.29451700  1
  H  790  1  0.87906400  0.44451600  0.21974600  1
  H  797  1  0.92007400  0.59468300  0.71306100  1
  H  799  1  0.88669900  0.59215700  0.81720100  1
  H  800  1  0.90816700  0.61517600  0.81776300  1
  H  802  1  0.95095900  0.62802200  0.71983400  1
  H  804  1  0.87892200  0.55664600  0.79458800  1
  H  811  1  0.09442500  0.59475500  0.30134300  1
  H  813  1  0.12771500  0.59217600  0.19717100  1
  H  814  1  0.10624700  0.61519500  0.19661800  1
  H  816  1  0.06353800  0.62809600  0.29458700  1
  H  818  1  0.13547700  0.55665900  0.21982500  1
  H  825  1  0.09454700  0.40630800  0.71313700  1
  H  827  1  0.12756800  0.40908100  0.81739500  1
  H  828  1  0.10611600  0.38604800  0.81792200  1
  H  830  1  0.06362200  0.37300900  0.71988600  1
  H  832  1  0.13543600  0.44452800  0.79469800  1
  H  839  1  0.30130700  0.91346800  0.41304900  1
  H  841  1  0.19721800  0.87998700  0.41552000  1
  H  842  1  0.19664700  0.90144000  0.39248500  1
  H  844  1  0.29455300  0.94428100  0.37964200  1
  H  846  1  0.21978400  0.87235800  0.45113800  1
  H  853  1  0.71309200  0.91324000  0.60149200  1
  H  855  1  0.81734200  0.88022000  0.59864000  1
  H  856  1  0.81790200  0.90171100  0.62163400  1
  H  858  1  0.71988900  0.94421400  0.63474200  1
  H  860  1  0.79463600  0.87226900  0.56325200  1
  H  867  1  0.30134900  0.08781900  0.60147300  1
  H  869  1  0.19715400  0.12103600  0.59889000  1
  H  870  1  0.19661500  0.09956600  0.62190700  1
  H  872  1  0.29460800  0.05690900  0.63479500  1
  H  874  1  0.21980500  0.12882100  0.56337700  1
  H  881  1  0.71310900  0.08774000  0.41309200  1
  H  883  1  0.81729200  0.12100300  0.41571500  1
  H  884  1  0.81783300  0.09957100  0.39266400  1
  H  886  1  0.71986100  0.05689500  0.37972100  1
  H  888  1  0.79463600  0.12877400  0.45121500  1
  H  895  1  0.30136600  0.40601800  0.09471800  1
  H  897  1  0.19704500  0.40910900  0.12743500  1
  H  898  1  0.19648000  0.38615800  0.10589600  1
  H  900  1  0.29454700  0.37290900  0.06359400  1
  H  902  1  0.21978200  0.44450300  0.13539200  1
  H  909  1  0.71302000  0.59492600  0.09461300  1
  H  911  1  0.81732700  0.59195000  0.12743600  1
  H  912  1  0.81787700  0.61493000  0.10592700  1
  H  914  1  0.71981700  0.62811300  0.06356000  1
  H  916  1  0.79459600  0.55658300  0.13541900  1
  H  923  1  0.30131600  0.59473600  0.92017600  1
  H  925  1  0.19715700  0.59219500  0.88683300  1
  H  926  1  0.19660300  0.61521200  0.90830200  1
  H  928  1  0.29456200  0.62809600  0.95104200  1
  H  930  1  0.21980600  0.55667800  0.87907400  1
  H  937  1  0.71316200  0.40630100  0.92003200  1
  H  939  1  0.81737200  0.40903300  0.88685400  1
  H  940  1  0.81791700  0.38597300  0.90827600  1
  H  942  1  0.71992000  0.37291800  0.95086400  1
  H  944  1  0.79467900  0.44450100  0.87904500  1
  H  951  1  0.41316500  0.91356300  0.71317500  1
  H  953  1  0.41545700  0.87984200  0.81718600  1
  H  954  1  0.39239100  0.90126200  0.81776300  1
  H  956  1  0.37968500  0.94429600  0.71991400  1
  H  958  1  0.45116400  0.87236200  0.79467900  1
  H  965  1  0.60120000  0.91370500  0.30128800  1
  H  967  1  0.59896400  0.87996600  0.19726400  1
  H  968  1  0.62204800  0.90136600  0.19670000  1
  H  970  1  0.63474900  0.94436600  0.29457900  1
  H  972  1  0.56329300  0.87243900  0.21978900  1
  H  979  1  0.60156000  0.08789500  0.71301200  1
  H  981  1  0.59871800  0.12081400  0.81730400  1
  H  982  1  0.62169300  0.09930200  0.81783700  1
  H  984  1  0.63477600  0.05686800  0.71978900  1
  H  986  1  0.56335000  0.12882300  0.79457500  1
  H  993  1  0.41267900  0.08811800  0.30137500  1
  H  995  1  0.41591400  0.12067600  0.19697700  1
  H  996  1  0.39291400  0.09919200  0.19644400  1
  H  998  1  0.37953700  0.05703300  0.29456200  1
  H  1000  1  0.45118300  0.12877300  0.21980300  1
  H  1007  1  0.92028600  0.29464400  0.60125700  1
  H  1009  1  0.88655100  0.19063700  0.59901200  1
  H  1010  1  0.90797900  0.19006400  0.62207100  1
  H  1012  1  0.95099800  0.28792400  0.63475700  1
  H  1014  1  0.87907000  0.21312800  0.56329500  1
  H  1021  1  0.92008700  0.70643500  0.41298100  1
  H  1023  1  0.88694200  0.81064500  0.41579300  1
  H  1024  1  0.90840800  0.81121600  0.39277400  1
  H  1026  1  0.95097600  0.71323000  0.37964700  1
  H  1028  1  0.87904000  0.78794400  0.45120400  1
  H  1035  1  0.09470700  0.29469100  0.41271500  1
  H  1037  1  0.12738500  0.19033100  0.41586500  1
  H  1038  1  0.10587600  0.18978100  0.39288800  1
  H  1040  1  0.06363400  0.28787300  0.37955800  1
  H  1042  1  0.13543400  0.21314500  0.45116400  1
  H  1049  1  0.09459800  0.70643500  0.60160000  1
  H  1051  1  0.12748900  0.81073400  0.59871900  1
  H  1052  1  0.10602800  0.81125800  0.62174400  1
  H  1054  1  0.06362400  0.71319400  0.63485500  1
  H  1056  1  0.13541800  0.78801300  0.56331400  1
  H  1063  1  0.60118500  0.70651800  0.09419700  1
  H  1065  1  0.59925100  0.81044900  0.12817700  1
  H  1066  1  0.62231400  0.81100700  0.10675200  1
  H  1068  1  0.63473000  0.71319800  0.06352600  1
  H  1070  1  0.56344700  0.78803700  0.13556500  1
  H  1077  1  0.41292900  0.29469000  0.09448900  1
  H  1079  1  0.41584800  0.19043600  0.12748800  1
  H  1080  1  0.39284000  0.18986600  0.10601000  1
  H  1082  1  0.37963000  0.28789400  0.06356400  1
  H  1084  1  0.45125300  0.21316400  0.13539000  1
  H  1091  1  0.41307500  0.70644000  0.92007500  1
  H  1093  1  0.41558800  0.81060300  0.88673900  1
  H  1094  1  0.39255600  0.81114200  0.90819200  1
  H  1096  1  0.37967000  0.71317300  0.95090200  1
  H  1098  1  0.45109600  0.78796300  0.87894300  1
  H  1105  1  0.60151500  0.29465000  0.91995600  1
  H  1107  1  0.59874000  0.19040700  0.88687500  1
  H  1108  1  0.62177800  0.18987200  0.90832100  1
  H  1110  1  0.63483500  0.28788600  0.95085400  1
  H  1112  1  0.56331200  0.21310000  0.87898800  1
  H  1119  1  0.09425100  0.59457500  0.71315600  1
  H  1121  1  0.12807300  0.59245500  0.81713900  1
  H  1122  1  0.10663700  0.61550500  0.81770400  1
  H  1124  1  0.06354400  0.62808300  0.71986500  1
  H  1126  1  0.13555300  0.55672300  0.79467200  1
  H  1133  1  0.09440100  0.40631600  0.30132800  1
  H  1135  1  0.12755900  0.40909600  0.19712300  1
  H  1136  1  0.10609200  0.38607700  0.19655000  1
  H  1138  1  0.06353100  0.37296600  0.29454700  1
  H  1140  1  0.13538500  0.44455400  0.21981400  1
  H  1147  1  0.92007500  0.40640500  0.71310500  1
  H  1149  1  0.88686200  0.40906200  0.81730600  1
  H  1150  1  0.90833100  0.38604300  0.81785200  1
  H  1152  1  0.95092600  0.37302600  0.71985700  1
  H  1154  1  0.87898100  0.44450900  0.79462200  1
  H  1161  1  0.91992200  0.59482200  0.30133300  1
  H  1163  1  0.88678200  0.59213400  0.19711000  1
  H  1164  1  0.90821900  0.61518200  0.19658000  1
  H  1166  1  0.95081400  0.62814900  0.29458300  1
  H  1168  1  0.87895400  0.55666800  0.21977400  1
  H  1175  1  0.71309900  0.08764500  0.60125700  1
  H  1177  1  0.81706700  0.12150700  0.59919800  1
  H  1178  1  0.81763800  0.10004400  0.62222200  1
  H  1180  1  0.71983000  0.05684000  0.63467300  1
  H  1182  1  0.79461700  0.12896100  0.56344300  1
  H  1189  1  0.30132600  0.08783800  0.41292400  1
  H  1191  1  0.19703800  0.12072000  0.41593100  1
  H  1192  1  0.19647200  0.09923400  0.39293100  1
  H  1194  1  0.29453200  0.05689600  0.37964000  1
  H  1196  1  0.21978900  0.12868700  0.45129700  1
  H  1203  1  0.71310300  0.91325700  0.41296200  1
  H  1205  1  0.81738700  0.88031500  0.41581400  1
  H  1206  1  0.81792200  0.90180800  0.39281700  1
  H  1208  1  0.71986300  0.94420100  0.37966800  1
  H  1210  1  0.79465100  0.87230100  0.45117900  1
  H  1217  1  0.30135600  0.91329900  0.60149400  1
  H  1219  1  0.19713100  0.88016900  0.59879200  1
  H  1220  1  0.19660100  0.90160300  0.62183900  1
  H  1222  1  0.29460600  0.94418800  0.63482500  1
  H  1224  1  0.21980100  0.87234100  0.56332900  1
  H  1231  1  0.71309200  0.59467700  0.92009100  1
  H  1233  1  0.81711800  0.59242700  0.88641400  1
  H  1234  1  0.81768500  0.61547200  0.90785600  1
  H  1236  1  0.71982700  0.62809000  0.95089800  1
  H  1238  1  0.79462400  0.55670100  0.87895200  1
  H  1245  1  0.30128400  0.40645200  0.92024600  1
  H  1247  1  0.19719000  0.40893700  0.88673300  1
  H  1248  1  0.19662000  0.38586600  0.90814500  1
  H  1250  1  0.29453400  0.37296800  0.95097800  1
  H  1252  1  0.21978900  0.44449400  0.87905700  1
  H  1259  1  0.71314100  0.40645100  0.09425500  1
  H  1261  1  0.81723400  0.40882500  0.12780700  1
  H  1262  1  0.81779000  0.38577900  0.10636700  1
  H  1264  1  0.71987200  0.37300200  0.06348500  1
  H  1266  1  0.79463400  0.44442200  0.13543600  1
  H  1273  1  0.30132200  0.59491100  0.09459000  1
  H  1275  1  0.19700900  0.59189900  0.12743200  1
  H  1276  1  0.19647600  0.61494900  0.10599800  1
  H  1278  1  0.29455100  0.62822900  0.06368700  1
  H  1280  1  0.21977400  0.55653600  0.13539600  1
  H  1287  1  0.60157600  0.08790900  0.30136000  1
  H  1289  1  0.59869700  0.12091200  0.19712500  1
  H  1290  1  0.62169500  0.09942200  0.19655800  1
  H  1292  1  0.63485000  0.05695500  0.29457600  1
  H  1294  1  0.56321500  0.12873800  0.21980500  1
  H  1301  1  0.41304700  0.08772300  0.71309000  1
  H  1303  1  0.41567500  0.12103600  0.81724500  1
  H  1304  1  0.39264100  0.09958500  0.81781400  1
  H  1306  1  0.37968200  0.05686700  0.71986100  1
  H  1308  1  0.45120600  0.12875200  0.79460700  1
  H  1315  1  0.41300900  0.91350000  0.30126900  1
  H  1317  1  0.41558400  0.88019700  0.19709900  1
  H  1318  1  0.39255900  0.90165800  0.19655000  1
  H  1320  1  0.37964600  0.94436200  0.29451300  1
  H  1322  1  0.45107700  0.87239800  0.21975500  1
  H  1329  1  0.60143700  0.91337500  0.71315400  1
  H  1331  1  0.59899800  0.88000600  0.81730600  1
  H  1332  1  0.62207100  0.90141700  0.81782900  1
  H  1334  1  0.63484800  0.94417800  0.71985900  1
  H  1336  1  0.56341900  0.87232900  0.79470400  1
  H  1343  1  0.09440000  0.70644400  0.41301700  1
  H  1345  1  0.12789800  0.81052500  0.41542300  1
  H  1346  1  0.10645300  0.81108700  0.39238100  1
  H  1348  1  0.06357100  0.71318300  0.37963000  1
  H  1350  1  0.13544500  0.78799400  0.45109200  1
  H  1357  1  0.09444400  0.29469000  0.60146500  1
  H  1359  1  0.12756300  0.19047200  0.59865900  1
  H  1360  1  0.10610700  0.18990600  0.62168900  1
  H  1362  1  0.06357800  0.28791300  0.63482100  1
  H  1364  1  0.13541000  0.21316300  0.56321000  1
  H  1371  1  0.92009200  0.70640400  0.60138200  1
  H  1373  1  0.88677100  0.81057100  0.59881100  1
  H  1374  1  0.90822400  0.81111900  0.62184100  1
  H  1376  1  0.95095700  0.71316800  0.63474300  1
  H  1378  1  0.87896200  0.78791800  0.56332900  1
  H  1385  1  0.92016300  0.29457200  0.41300500  1
  H  1387  1  0.88675600  0.19043200  0.41551000  1
  H  1388  1  0.90817700  0.18988700  0.39244700  1
  H  1390  1  0.95097400  0.28782600  0.37960000  1
  H  1392  1  0.87900500  0.21306000  0.45103900  1
  C  1  1  0.30352300  0.31606500  0.00721800  1
  C  2  1  0.29370100  0.32551200  0.03066000  1
  C  3  1  0.27393100  0.34388300  0.03057600  1
  C  4  1  0.26425400  0.35251400  0.00720200  1
  C  5  1  0.27391200  0.34384400  0.98383400  1
  C  6  1  0.29368900  0.32548000  0.98376800  1
  C  7  1  0.30340900  0.31552200  0.05357300  1
  C  8  1  0.30340200  0.31547300  0.96086300  1
  C  10  1  0.32275600  0.29683800  0.00722500  1
  C  11  1  0.33219400  0.28702700  0.03067400  1
  C  12  1  0.35056500  0.26725600  0.03060700  1
  C  13  1  0.35922300  0.25758600  0.00723900  1
  C  14  1  0.35055800  0.26723000  0.98386100  1
  C  15  1  0.33218200  0.28699600  0.98378300  1
  C  16  1  0.32220200  0.29675600  0.05358100  1
  C  18  1  0.32218100  0.29669700  0.96086800  1
  C  23  1  0.26306600  0.35449200  0.96152100  1
  C  24  1  0.26306400  0.35458100  0.05284600  1
  C  25  1  0.36123600  0.25642100  0.05290900  1
  C  26  1  0.36120800  0.25636200  0.96155900  1
  C  31  1  0.71083300  0.68495500  0.00720300  1
  C  32  1  0.72066200  0.67550600  0.03064200  1
  C  33  1  0.74043400  0.65713400  0.03055100  1
  C  34  1  0.75009700  0.64850000  0.00717400  1
  C  35  1  0.74043200  0.65717200  0.98381100  1
  C  36  1  0.72065400  0.67553400  0.98374900  1
  C  37  1  0.71096400  0.68549700  0.05355900  1
  C  38  1  0.71094200  0.68554900  0.96084700  1
  C  40  1  0.69161200  0.70419000  0.00721800  1
  C  41  1  0.68219900  0.71401800  0.03067100  1
  C  42  1  0.66384300  0.73380500  0.03061100  1
  C  43  1  0.65516600  0.74346200  0.00724700  1
  C  44  1  0.66380700  0.73380300  0.98386800  1
  C  45  1  0.68217300  0.71402700  0.98377900  1
  C  46  1  0.69220400  0.70429400  0.05357300  1
  C  48  1  0.69215400  0.70431900  0.96086100  1
  C  53  1  0.75129800  0.64651700  0.96151900  1
  C  54  1  0.75130000  0.64643500  0.05281900  1
  C  55  1  0.65319300  0.74464500  0.05292200  1
  C  56  1  0.65312100  0.74467100  0.96159100  1
  C  61  1  0.71089200  0.31610900  0.00718300  1
  C  62  1  0.72073400  0.32550100  0.98372600  1
  C  63  1  0.74052300  0.34385500  0.98378300  1
  C  64  1  0.75018000  0.35253900  0.00714600  1
  C  65  1  0.74050000  0.34392500  0.03052600  1
  C  66  1  0.72071700  0.32556700  0.03061900  1
  C  67  1  0.71102100  0.31548100  0.96082700  1
  C  68  1  0.71099900  0.31559600  0.05353800  1
  C  70  1  0.69165500  0.29688900  0.00720100  1
  C  71  1  0.68222200  0.28703800  0.98376400  1
  C  72  1  0.66385200  0.26726600  0.98386100  1
  C  73  1  0.65520100  0.25762400  0.00724000  1
  C  74  1  0.66385600  0.26731100  0.03060000  1
  C  75  1  0.68221800  0.28708900  0.03065700  1
  C  76  1  0.69223000  0.29671400  0.96084600  1
  C  78  1  0.69221300  0.29682400  0.05355700  1
  C  83  1  0.75134400  0.35463400  0.05280200  1
  C  84  1  0.75139500  0.35448000  0.96147400  1
  C  85  1  0.65315300  0.25639600  0.96159500  1
  C  86  1  0.65317800  0.25646600  0.05288800  1
  C  91  1  0.30355700  0.68501500  0.00731300  1
  C  92  1  0.29372000  0.67554000  0.98388700  1
  C  93  1  0.27394800  0.65716900  0.98400700  1
  C  94  1  0.26427300  0.64858000  0.00739800  1
  C  95  1  0.27394000  0.65728600  0.03074900  1
  C  96  1  0.29373100  0.67563700  0.03078000  1
  C  97  1  0.30341500  0.68549900  0.96095600  1
  C  98  1  0.30346400  0.68566600  0.05366800  1
  C  100  1  0.32279400  0.70423500  0.00726900  1
  C  101  1  0.33220900  0.71402500  0.98380000  1
  C  102  1  0.35057700  0.73379800  0.98383000  1
  C  103  1  0.35927000  0.74348100  0.00718100  1
  C  104  1  0.35063700  0.73384900  0.03057200  1
  C  105  1  0.33225400  0.71409000  0.03069200  1
  C  106  1  0.32219300  0.70427900  0.96091200  1
  C  108  1  0.32225700  0.70443100  0.05362500  1
  C  113  1  0.26308700  0.64668200  0.05307900  1
  C  114  1  0.26308100  0.64643900  0.96175300  1
  C  115  1  0.36121100  0.74462200  0.96150600  1
  C  116  1  0.36135600  0.74473000  0.05282400  1
  C  121  1  0.00724400  0.29683600  0.32273200  1
  C  122  1  0.03069600  0.28702300  0.33216300  1
  C  123  1  0.03063300  0.26724500  0.35052700  1
  C  124  1  0.00727000  0.25755300  0.35916800  1
  C  125  1  0.98389500  0.26721500  0.35052500  1
  C  126  1  0.98380400  0.28699100  0.33216100  1
  C  127  1  0.05359900  0.29674700  0.32216400  1
  C  128  1  0.96088700  0.29668600  0.32216400  1
  C  130  1  0.00723000  0.31606700  0.30350400  1
  C  131  1  0.03067000  0.32551800  0.29368200  1
  C  132  1  0.03058200  0.34389100  0.27391200  1
  C  133  1  0.00720400  0.35253300  0.26425200  1
  C  134  1  0.98383800  0.34385300  0.27390600  1
  C  135  1  0.98377700  0.32548000  0.29367600  1
  C  136  1  0.05358600  0.31553800  0.30339600  1
  C  138  1  0.96087400  0.31546500  0.30338700  1
  C  143  1  0.96161800  0.25634300  0.36120800  1
  C  144  1  0.05291600  0.25639400  0.36121100  1
  C  145  1  0.05287400  0.35457700  0.26307000  1
  C  146  1  0.96152300  0.35449000  0.26304900  1
  C  151  1  0.00722900  0.70417600  0.69164000  1
  C  152  1  0.03067200  0.71401800  0.68221600  1
  C  153  1  0.03059100  0.73379900  0.66385600  1
  C  154  1  0.00721900  0.74345700  0.65520300  1
  C  155  1  0.98385100  0.73377900  0.66384800  1
  C  156  1  0.98377900  0.71399300  0.68220500  1
  C  157  1  0.05358400  0.70432200  0.69222500  1
  C  158  1  0.96087200  0.70427100  0.69219600  1
  C  160  1  0.00723200  0.68494500  0.71086600  1
  C  161  1  0.03067900  0.67553300  0.72070700  1
  C  162  1  0.03060900  0.65716500  0.74048100  1
  C  163  1  0.00723900  0.64847900  0.75012200  1
  C  164  1  0.98386600  0.65712300  0.74045100  1
  C  165  1  0.98378700  0.67549600  0.72068300  1
  C  166  1  0.05358700  0.68554900  0.71100800  1
  C  168  1  0.96087400  0.68547600  0.71095900  1
  C  173  1  0.96156500  0.74463900  0.65317600  1
  C  174  1  0.05286600  0.74467300  0.65317600  1
  C  175  1  0.05291300  0.64650500  0.75132700  1
  C  176  1  0.96158600  0.64644100  0.75131100  1
  C  181  1  0.00721500  0.70420100  0.32277500  1
  C  182  1  0.98377300  0.71405200  0.33219600  1
  C  183  1  0.98385900  0.73383700  0.35055200  1
  C  184  1  0.00723500  0.74349100  0.35920400  1
  C  185  1  0.03060100  0.73380700  0.35055800  1
  C  186  1  0.03066600  0.71402000  0.33220500  1
  C  187  1  0.96085900  0.70434700  0.32220400  1
  C  188  1  0.05357000  0.70429000  0.32221200  1
  C  190  1  0.00720500  0.68496200  0.30355900  1
  C  191  1  0.98375300  0.67554200  0.29373100  1
  C  192  1  0.98381900  0.65717000  0.27396100  1
  C  193  1  0.00718600  0.64850000  0.26430000  1
  C  194  1  0.03056000  0.65714200  0.27396700  1
  C  195  1  0.03064600  0.67551000  0.29373900  1
  C  196  1  0.96084900  0.68556400  0.30342800  1
  C  198  1  0.05356100  0.68549900  0.30344700  1
  C  203  1  0.05289100  0.74464700  0.36124000  1
  C  204  1  0.96156500  0.74470900  0.36121100  1
  C  205  1  0.96153800  0.64649400  0.26310200  1
  C  206  1  0.05283200  0.64644300  0.26310800  1
  C  211  1  0.00727600  0.29690800  0.69167800  1
  C  212  1  0.98383600  0.28707600  0.68223500  1
  C  213  1  0.98392000  0.26730200  0.66386600  1
  C  214  1  0.00729900  0.25763900  0.65522900  1
  C  215  1  0.03066500  0.26729600  0.66390500  1
  C  216  1  0.03072800  0.28707800  0.68226600  1
  C  217  1  0.96092000  0.29678600  0.69221900  1
  C  218  1  0.05363100  0.29680000  0.69227000  1
  C  220  1  0.00726300  0.31614700  0.71089800  1
  C  221  1  0.98381000  0.32557500  0.72071300  1
  C  222  1  0.98387200  0.34394800  0.74048100  1
  C  223  1  0.00723700  0.35262200  0.75014200  1
  C  224  1  0.03061400  0.34397100  0.74049100  1
  C  225  1  0.03070200  0.32559200  0.72073000  1
  C  226  1  0.96090600  0.31556800  0.71099500  1
  C  228  1  0.05361800  0.31558500  0.71104200  1
  C  233  1  0.05297900  0.25644300  0.65326700  1
  C  234  1  0.96162500  0.25645900  0.65318100  1
  C  235  1  0.96156500  0.35460700  0.75131900  1
  C  236  1  0.05288300  0.35466400  0.75136100  1
  C  241  1  0.32274500  0.00061200  0.30352900  1
  C  242  1  0.33216000  0.02406900  0.29371400  1
  C  243  1  0.35052400  0.02401600  0.27393400  1
  C  244  1  0.35918100  0.00065700  0.26424700  1
  C  245  1  0.35055400  0.97727800  0.27391200  1
  C  246  1  0.33219000  0.97717700  0.29368800  1
  C  247  1  0.32214500  0.04696600  0.30343600  1
  C  248  1  0.32220800  0.95425500  0.30338300  1
  C  250  1  0.30351800  0.00058700  0.32276000  1
  C  251  1  0.29368000  0.02402100  0.33221100  1
  C  252  1  0.27391000  0.02392200  0.35058200  1
  C  253  1  0.26426200  0.00053800  0.35922300  1
  C  254  1  0.27393100  0.97717700  0.35054400  1
  C  255  1  0.29370300  0.97712800  0.33217300  1
  C  256  1  0.30338300  0.04694300  0.32223100  1
  C  258  1  0.30342800  0.95423000  0.32216100  1
  C  263  1  0.36124400  0.95500600  0.26303600  1
  C  264  1  0.36119400  0.04630300  0.26308100  1
  C  265  1  0.26305500  0.04620700  0.36127200  1
  C  266  1  0.26308500  0.95485600  0.36117500  1
  C  271  1  0.69164800  0.00052400  0.71080500  1
  C  272  1  0.68219200  0.02396700  0.72061600  1
  C  273  1  0.66383500  0.02388500  0.74040200  1
  C  274  1  0.65521600  0.00051100  0.75008900  1
  C  275  1  0.66389400  0.97714500  0.74044100  1
  C  276  1  0.68224800  0.97707500  0.72065400  1
  C  277  1  0.69216800  0.04688100  0.71089200  1
  C  278  1  0.69227200  0.95416800  0.71096100  1
  C  280  1  0.71087300  0.00053000  0.69157400  1
  C  281  1  0.72068100  0.02398000  0.68213100  1
  C  282  1  0.74045800  0.02391200  0.66376700  1
  C  283  1  0.75014000  0.00054500  0.65512100  1
  C  284  1  0.74049600  0.97717100  0.66378600  1
  C  285  1  0.72072400  0.97708800  0.68215600  1
  C  286  1  0.71095300  0.04688700  0.69211800  1
  C  288  1  0.71103500  0.95417500  0.69216400  1
  C  293  1  0.65325200  0.95485600  0.75132800  1
  C  294  1  0.65313800  0.04615700  0.75126000  1
  C  295  1  0.75130200  0.04619400  0.65307500  1
  C  296  1  0.75137600  0.95489200  0.65311500  1
  C  301  1  0.32281500  0.00054200  0.71088900  1
  C  302  1  0.33222200  0.97709200  0.72073000  1
  C  303  1  0.35057500  0.97716000  0.74051900  1
  C  304  1  0.35924500  0.00052600  0.75017700  1
  C  305  1  0.35061700  0.02390200  0.74049600  1
  C  306  1  0.33226000  0.02398400  0.72071100  1
  C  307  1  0.32221700  0.95418500  0.71101800  1
  C  308  1  0.32227600  0.04689800  0.71099300  1
  C  310  1  0.30359500  0.00054900  0.69165000  1
  C  311  1  0.29376000  0.97710500  0.68222000  1
  C  312  1  0.27398600  0.97718800  0.66385000  1
  C  313  1  0.26432800  0.00056300  0.65519900  1
  C  314  1  0.27400300  0.02392900  0.66385000  1
  C  315  1  0.29378200  0.02399800  0.68221200  1
  C  316  1  0.30345100  0.95419200  0.69222700  1
  C  318  1  0.30350600  0.04690500  0.69220600  1
  C  323  1  0.36132000  0.04618300  0.75133600  1
  C  324  1  0.36121700  0.95485500  0.75138500  1
  C  325  1  0.26312100  0.95491500  0.65316100  1
  C  326  1  0.26314400  0.04621000  0.65317200  1
  C  331  1  0.69168200  0.00061200  0.30357600  1
  C  332  1  0.68223300  0.97717900  0.29373300  1
  C  333  1  0.66386700  0.97727800  0.27395700  1
  C  334  1  0.65523900  0.00066300  0.26430000  1
  C  335  1  0.66392200  0.02402300  0.27396900  1
  C  336  1  0.68227700  0.02407100  0.29375400  1
  C  337  1  0.69221300  0.95425700  0.30343400  1
  C  338  1  0.69228400  0.04696700  0.30349100  1
  C  340  1  0.71089800  0.00058600  0.32281900  1
  C  341  1  0.72070700  0.97712600  0.33223700  1
  C  342  1  0.74047600  0.97717500  0.35061300  1
  C  343  1  0.75013500  0.00053400  0.35930200  1
  C  344  1  0.74048500  0.02391600  0.35066600  1
  C  345  1  0.72072800  0.02401800  0.33227900  1
  C  346  1  0.71098700  0.95423000  0.32221700  1
  C  348  1  0.71104800  0.04694100  0.32228400  1
  C  353  1  0.65329900  0.04634400  0.26311200  1
  C  354  1  0.65317200  0.95499100  0.26311200  1
  C  355  1  0.75131700  0.95486000  0.36125300  1
  C  356  1  0.75134700  0.04617900  0.36138200  1
  C  361  1  0.80301000  0.81550500  0.50720700  1
  C  362  1  0.79320700  0.82497200  0.53064200  1
  C  363  1  0.77346300  0.84337600  0.53054500  1
  C  364  1  0.76373400  0.85199400  0.50719200  1
  C  365  1  0.77348600  0.84338200  0.48384600  1
  C  366  1  0.79323000  0.82497600  0.48376500  1
  C  367  1  0.80291700  0.81497900  0.55355600  1
  C  368  1  0.80296700  0.81499200  0.46085800  1
  C  370  1  0.82224200  0.79627900  0.50721400  1
  C  371  1  0.83170200  0.78648700  0.53065700  1
  C  372  1  0.85010500  0.76674300  0.53057500  1
  C  373  1  0.85873600  0.75701000  0.50723000  1
  C  374  1  0.85013400  0.76675300  0.48387700  1
  C  375  1  0.83172200  0.78649100  0.48378000  1
  C  376  1  0.82170800  0.79621500  0.55356400  1
  C  378  1  0.82174600  0.79621700  0.46086500  1
  C  383  1  0.76296100  0.85435100  0.46156300  1
  C  384  1  0.76293500  0.85436600  0.55281400  1
  C  385  1  0.86107800  0.75621300  0.55285200  1
  C  386  1  0.86112500  0.75623000  0.46160100  1
  C  391  1  0.21143600  0.18555000  0.50724300  1
  C  392  1  0.22121400  0.17609800  0.53069500  1
  C  393  1  0.24096000  0.15769600  0.53063000  1
  C  394  1  0.25069700  0.14904500  0.50729200  1
  C  395  1  0.24096800  0.15764300  0.48393400  1
  C  396  1  0.22123300  0.17605500  0.48381800  1
  C  397  1  0.21148300  0.18610800  0.55359200  1
  C  398  1  0.21153100  0.18603100  0.46089400  1
  C  400  1  0.19221400  0.20478200  0.50721600  1
  C  401  1  0.18273200  0.21459500  0.53064200  1
  C  402  1  0.16432800  0.23433700  0.53052600  1
  C  403  1  0.15572600  0.24405900  0.50716300  1
  C  404  1  0.16436700  0.23431000  0.48382900  1
  C  405  1  0.18276400  0.21456100  0.48376500  1
  C  406  1  0.19270900  0.20489200  0.55356600  1
  C  408  1  0.19275300  0.20480900  0.46086700  1
  C  413  1  0.25149600  0.14661600  0.46168500  1
  C  414  1  0.25149200  0.14672300  0.55290100  1
  C  415  1  0.15329500  0.24486700  0.55276900  1
  C  416  1  0.15339500  0.24483300  0.46155000  1
  C  421  1  0.21140000  0.81562100  0.50721600  1
  C  422  1  0.22119200  0.82508200  0.48377400  1
  C  423  1  0.24094100  0.84348200  0.48385800  1
  C  424  1  0.25068800  0.85209600  0.50720500  1
  C  425  1  0.24095100  0.84348400  0.53055600  1
  C  426  1  0.22120100  0.82508800  0.53065300  1
  C  427  1  0.21146200  0.81509500  0.46086700  1
  C  428  1  0.21148700  0.81509700  0.55356600  1
  C  430  1  0.19216800  0.79639700  0.50722200  1
  C  431  1  0.18269500  0.78660100  0.48378500  1
  C  432  1  0.16429100  0.76685700  0.48388200  1
  C  433  1  0.15567600  0.75712400  0.50723300  1
  C  434  1  0.16430100  0.76686300  0.53057900  1
  C  435  1  0.18270300  0.78660900  0.53066400  1
  C  436  1  0.19268800  0.79631300  0.46087300  1
  C  438  1  0.19270000  0.79632900  0.55357100  1
  C  443  1  0.25149600  0.85447000  0.55281800  1
  C  444  1  0.25148500  0.85444900  0.46158400  1
  C  445  1  0.15330500  0.75630000  0.46162800  1
  C  446  1  0.15331500  0.75632300  0.55284300  1
  C  451  1  0.80304300  0.18556400  0.50724300  1
  C  452  1  0.79323100  0.17606900  0.48382200  1
  C  453  1  0.77347500  0.15768100  0.48394700  1
  C  454  1  0.76371900  0.14912800  0.50731100  1
  C  455  1  0.77346700  0.15777900  0.53064500  1
  C  456  1  0.79324300  0.17614700  0.53069800  1
  C  457  1  0.80294600  0.18602300  0.46089200  1
  C  458  1  0.80299300  0.18615500  0.55359000  1
  C  460  1  0.82229700  0.20476500  0.50720700  1
  C  461  1  0.83175900  0.21452100  0.48374900  1
  C  462  1  0.85017900  0.23424800  0.48380100  1
  C  463  1  0.85884100  0.24399100  0.50713300  1
  C  464  1  0.85023300  0.23428600  0.53049900  1
  C  465  1  0.83180000  0.21457300  0.53062600  1
  C  466  1  0.82173900  0.20478600  0.46085800  1
  C  468  1  0.82180100  0.20490400  0.55355600  1
  C  473  1  0.76291800  0.14685600  0.55294100  1
  C  474  1  0.76293100  0.14664500  0.46170800  1
  C  475  1  0.86113100  0.24476700  0.46150800  1
  C  476  1  0.86126000  0.24484100  0.55273600  1
  C  481  1  0.50721600  0.79635500  0.82225500  1
  C  482  1  0.53064000  0.78654000  0.83173800  1
  C  483  1  0.53052000  0.76678300  0.85012800  1
  C  484  1  0.50715800  0.75704200  0.85870400  1
  C  485  1  0.48382200  0.76680400  0.85007500  1
  C  486  1  0.48376300  0.78656700  0.83169000  1
  C  487  1  0.55356600  0.79624900  0.82176900  1
  C  488  1  0.46086700  0.79631500  0.82169100  1
  C  490  1  0.50724500  0.81560200  0.80304400  1
  C  491  1  0.53069800  0.82506000  0.79327900  1
  C  492  1  0.53063600  0.84347300  0.77354500  1
  C  493  1  0.50730200  0.85211300  0.76379300  1
  C  494  1  0.48393900  0.84352200  0.77352000  1
  C  495  1  0.48382200  0.82509800  0.79324300  1
  C  496  1  0.55359400  0.81504900  0.80301200  1
  C  498  1  0.46089500  0.81511400  0.80293400  1
  C  503  1  0.46152700  0.75627000  0.86101500  1
  C  504  1  0.55276100  0.75623400  0.86115000  1
  C  505  1  0.55290900  0.85444200  0.76301100  1
  C  506  1  0.46169400  0.85453300  0.76296300  1
  C  511  1  0.50723500  0.20479900  0.19221000  1
  C  512  1  0.53068100  0.21458600  0.18275300  1
  C  513  1  0.53060500  0.23433700  0.16435900  1
  C  514  1  0.50726400  0.24407600  0.15572300  1
  C  515  1  0.48390900  0.23434300  0.16432700  1
  C  516  1  0.48380400  0.21459900  0.18273100  1
  C  517  1  0.55358500  0.20485300  0.19274900  1
  C  518  1  0.46088600  0.20488700  0.19271100  1
  C  520  1  0.50722000  0.18557000  0.21143600  1
  C  521  1  0.53065100  0.17608700  0.22123300  1
  C  522  1  0.53054500  0.15767600  0.24097000  1
  C  523  1  0.50719000  0.14906500  0.25069700  1
  C  524  1  0.48384800  0.15770600  0.24096000  1
  C  525  1  0.48377400  0.17611100  0.22121800  1
  C  526  1  0.55356900  0.18607100  0.21152500  1
  C  528  1  0.46087100  0.18610100  0.21148100  1
  C  533  1  0.46165500  0.24487100  0.15331200  1
  C  534  1  0.55287100  0.24486900  0.15337400  1
  C  535  1  0.55279500  0.14665500  0.25149800  1
  C  536  1  0.46157700  0.14672900  0.25149000  1
  C  541  1  0.50723200  0.20473100  0.82224200  1
  C  542  1  0.48378400  0.21449700  0.83171500  1
  C  543  1  0.48385200  0.23422700  0.85013200  1
  C  544  1  0.50719200  0.24397700  0.85876300  1
  C  545  1  0.53055000  0.23426300  0.85014500  1
  C  546  1  0.53066000  0.21453600  0.83172200  1
  C  547  1  0.46088200  0.20475800  0.82171800  1
  C  548  1  0.55358100  0.20485100  0.82172200  1
  C  550  1  0.50725200  0.18552100  0.80299700  1
  C  551  1  0.48382300  0.17603500  0.79319700  1
  C  552  1  0.48393400  0.15764600  0.77343900  1
  C  553  1  0.50729200  0.14906400  0.76369200  1
  C  554  1  0.53063200  0.15770700  0.77342700  1
  C  555  1  0.53070000  0.17608700  0.79319400  1
  C  556  1  0.46090300  0.18599400  0.80292500  1
  C  558  1  0.55360200  0.18608900  0.80292900  1
  C  563  1  0.55280300  0.24480700  0.86114800  1
  C  564  1  0.46156900  0.24475400  0.86109900  1
  C  565  1  0.46168700  0.14662600  0.76290100  1
  C  566  1  0.55291900  0.14675500  0.76289500  1
  C  571  1  0.50724500  0.79643700  0.19220300  1
  C  572  1  0.48382200  0.78663500  0.18270600  1
  C  573  1  0.48394300  0.76689100  0.16430200  1
  C  574  1  0.50730400  0.75714500  0.15573300  1
  C  575  1  0.53064200  0.76688600  0.16438400  1
  C  576  1  0.53069800  0.78664600  0.18277100  1
  C  577  1  0.46089500  0.79634200  0.19266900  1
  C  578  1  0.55359400  0.79638700  0.19278100  1
  C  580  1  0.50721300  0.81567400  0.21142200  1
  C  581  1  0.48375700  0.82512600  0.22119200  1
  C  582  1  0.48381400  0.84353200  0.24093300  1
  C  583  1  0.50714800  0.85218300  0.25067800  1
  C  584  1  0.53051200  0.84358500  0.24096200  1
  C  585  1  0.53063600  0.82516800  0.22123200  1
  C  586  1  0.46086300  0.81511800  0.21144900  1
  C  588  1  0.55356200  0.81517600  0.21154800  1
  C  593  1  0.55293400  0.75633600  0.15345600  1
  C  594  1  0.46170000  0.75635200  0.15327200  1
  C  595  1  0.46152400  0.85448500  0.25145200  1
  C  596  1  0.55275000  0.85461400  0.25150900  1
  C  601  1  0.82221700  0.50055000  0.80299300  1
  C  602  1  0.83166700  0.52398600  0.79318200  1
  C  603  1  0.85005800  0.52389700  0.77342500  1
  C  604  1  0.85867900  0.50054600  0.76369400  1
  C  605  1  0.85008300  0.47719700  0.77345400  1
  C  606  1  0.83168800  0.47710900  0.79320700  1
  C  607  1  0.82167000  0.54689700  0.80289600  1
  C  608  1  0.82171600  0.45420000  0.80294800  1
  C  610  1  0.80300300  0.50055200  0.82223600  1
  C  611  1  0.79320700  0.52399000  0.83170000  1
  C  612  1  0.77347100  0.52389900  0.85011300  1
  C  613  1  0.76374100  0.50055000  0.85874000  1
  C  614  1  0.77349700  0.47720200  0.85014200  1
  C  615  1  0.79322600  0.47711300  0.83172200  1
  C  616  1  0.80291700  0.54690100  0.82170100  1
  C  618  1  0.80295100  0.45420000  0.82174100  1
  C  623  1  0.86105700  0.45491800  0.76292300  1
  C  624  1  0.86103600  0.54616800  0.76288700  1
  C  625  1  0.76292100  0.54615500  0.86109900  1
  C  626  1  0.76297100  0.45494000  0.86114400  1
  C  631  1  0.19219300  0.50054400  0.21144700  1
  C  632  1  0.18273900  0.52399000  0.22123500  1
  C  633  1  0.16434700  0.52391400  0.24099000  1
  C  634  1  0.15571300  0.50057400  0.25072900  1
  C  635  1  0.16431500  0.47721900  0.24099400  1
  C  636  1  0.18271400  0.47711300  0.22124700  1
  C  637  1  0.19273800  0.54689300  0.21150400  1
  C  638  1  0.19269000  0.45419500  0.21152900  1
  C  640  1  0.21141500  0.50052900  0.19221200  1
  C  641  1  0.22121400  0.52396000  0.18273200  1
  C  642  1  0.24094500  0.52385300  0.16431700  1
  C  643  1  0.25066900  0.50049800  0.15570100  1
  C  644  1  0.24093200  0.47715900  0.16434100  1
  C  645  1  0.22119400  0.47708300  0.18274900  1
  C  646  1  0.21151200  0.54687800  0.19272200  1
  C  648  1  0.21145700  0.45418000  0.19273800  1
  C  653  1  0.15330000  0.45496500  0.25152500  1
  C  654  1  0.15336100  0.54618000  0.25152300  1
  C  655  1  0.25147300  0.54610400  0.15329700  1
  C  656  1  0.25146200  0.45488500  0.15336200  1
  C  661  1  0.82224300  0.50053100  0.21139200  1
  C  662  1  0.83172600  0.47709200  0.22117100  1
  C  663  1  0.85014000  0.47718100  0.24090500  1
  C  664  1  0.85874900  0.50053100  0.25065200  1
  C  665  1  0.85011900  0.52388000  0.24092800  1
  C  666  1  0.83170700  0.52396900  0.22119200  1
  C  667  1  0.82174600  0.45418100  0.21144100  1
  C  668  1  0.82169900  0.54688000  0.21148700  1
  C  670  1  0.80300700  0.50053100  0.19217400  1
  C  671  1  0.79321800  0.47709000  0.18270000  1
  C  672  1  0.77346500  0.47718100  0.16430700  1
  C  673  1  0.76371300  0.50052900  0.15570400  1
  C  674  1  0.77344200  0.52387800  0.16433000  1
  C  675  1  0.79319900  0.52396900  0.18272000  1
  C  676  1  0.80295000  0.45418100  0.19268100  1
  C  678  1  0.80291700  0.54688000  0.19271300  1
  C  683  1  0.86109700  0.54614400  0.25147300  1
  C  684  1  0.86112200  0.45491000  0.25143900  1
  C  685  1  0.76292900  0.45492300  0.15330700  1
  C  686  1  0.76291000  0.54614400  0.15334100  1
  C  691  1  0.19223300  0.50059100  0.80307500  1
  C  692  1  0.18275400  0.47715500  0.79328800  1
  C  693  1  0.16435200  0.47724800  0.77354300  1
  C  694  1  0.15576100  0.50059700  0.76378500  1
  C  695  1  0.16439000  0.52394600  0.77351400  1
  C  696  1  0.18278100  0.52403200  0.79327100  1
  C  697  1  0.19273600  0.45424200  0.80301400  1
  C  698  1  0.19277600  0.54694100  0.80299500  1
  C  700  1  0.21145500  0.50058800  0.82231000  1
  C  701  1  0.22123700  0.47714700  0.83178300  1
  C  702  1  0.24097700  0.47723300  0.85019300  1
  C  703  1  0.25071000  0.50058200  0.85882000  1
  C  704  1  0.24098100  0.52393100  0.85019800  1
  C  705  1  0.22124700  0.52402400  0.83178300  1
  C  706  1  0.21151200  0.45423800  0.82179200  1
  C  708  1  0.21154600  0.54693700  0.82178000  1
  C  713  1  0.15343400  0.54622300  0.76296300  1
  C  714  1  0.15334700  0.45499200  0.76300900  1
  C  715  1  0.25150200  0.45495900  0.86117500  1
  C  716  1  0.25151300  0.54618700  0.86120500  1
  C  721  1  0.42777500  0.24006400  0.89258500  1
  C  723  1  0.41135600  0.27571400  0.91595200  1
  C  724  1  0.39334500  0.26024400  0.92829600  1
  C  726  1  0.40927200  0.22435100  0.90440800  1
  C  735  1  0.58666300  0.76091400  0.89251100  1
  C  737  1  0.60298200  0.72529200  0.91599000  1
  C  738  1  0.62107200  0.74074100  0.92824500  1
  C  740  1  0.60525500  0.77659600  0.90423200  1
  C  749  1  0.58679100  0.24019000  0.12203300  1
  C  751  1  0.60315800  0.27583800  0.09862300  1
  C  752  1  0.62120000  0.26037900  0.08630600  1
  C  754  1  0.60532200  0.22449600  0.11023400  1
  C  763  1  0.42779600  0.76104100  0.12190800  1
  C  765  1  0.41133500  0.72536200  0.09861100  1
  C  766  1  0.39332600  0.74082800  0.08625300  1
  C  768  1  0.40927800  0.77673900  0.11009600  1
  C  777  1  0.89259500  0.42110300  0.24674800  1
  C  779  1  0.91593500  0.40465500  0.28240400  1
  C  780  1  0.92826800  0.38663500  0.26693600  1
  C  782  1  0.90441900  0.40260400  0.23103500  1
  C  791  1  0.89249000  0.57999700  0.76756100  1
  C  793  1  0.91594400  0.59633200  0.73193000  1
  C  794  1  0.92824100  0.61438900  0.74738700  1
  C  796  1  0.90425800  0.59855100  0.78325300  1
  C  805  1  0.12201700  0.58009500  0.24684100  1
  C  807  1  0.09857700  0.59643700  0.28248200  1
  C  808  1  0.08626900  0.61448600  0.26702700  1
  C  810  1  0.11022900  0.59863600  0.23115100  1
  C  819  1  0.12197900  0.42108900  0.76768500  1
  C  821  1  0.09866400  0.40465500  0.73200800  1
  C  822  1  0.08631200  0.38663700  0.74746500  1
  C  824  1  0.11017300  0.40256200  0.78337700  1
  C  833  1  0.24680900  0.88589800  0.42775600  1
  C  835  1  0.28243800  0.90933800  0.41140400  1
  C  836  1  0.26698700  0.92160300  0.39332000  1
  C  838  1  0.23111500  0.89764800  0.40919300  1
  C  847  1  0.76763300  0.88582600  0.58663900  1
  C  849  1  0.73198100  0.90917700  0.60307800  1
  C  850  1  0.74745900  0.92153900  0.62107200  1
  C  852  1  0.78335000  0.89766200  0.60513000  1
  C  861  1  0.24683000  0.11537600  0.58681300  1
  C  863  1  0.28248500  0.09195800  0.60315400  1
  C  864  1  0.26703800  0.07963900  0.62120300  1
  C  866  1  0.23114700  0.10357600  0.60535400  1
  C  875  1  0.76761800  0.11528600  0.42780300  1
  C  877  1  0.73196600  0.09190200  0.41141100  1
  C  878  1  0.74742300  0.07959900  0.39335800  1
  C  880  1  0.78330700  0.10353100  0.40924000  1
  C  889  1  0.24676900  0.42103600  0.12193000  1
  C  891  1  0.28245500  0.40449200  0.09870500  1
  C  892  1  0.26696400  0.38656800  0.08625800  1
  C  894  1  0.23103300  0.40261500  0.11000900  1
  C  903  1  0.76759200  0.58001400  0.12193300  1
  C  905  1  0.73191700  0.59649200  0.09864100  1
  C  906  1  0.74739600  0.61445100  0.08623500  1
  C  908  1  0.78331200  0.59847700  0.11005600  1
  C  917  1  0.24682200  0.58009500  0.89255700  1
  C  919  1  0.28245700  0.59642300  0.91601600  1
  C  920  1  0.26700200  0.61447800  0.92831700  1
  C  922  1  0.23113200  0.59864000  0.90433800  1
  C  931  1  0.76767900  0.42106500  0.89252800  1
  C  933  1  0.73202700  0.40463800  0.91588500  1
  C  934  1  0.74748800  0.38658900  0.92818600  1
  C  936  1  0.78337700  0.40251300  0.90429000  1
  C  945  1  0.42779200  0.88589200  0.76764300  1
  C  947  1  0.41148100  0.90938600  0.73203100  1
  C  948  1  0.39335100  0.92159200  0.74747000  1
  C  950  1  0.40917600  0.89757800  0.78332200  1
  C  959  1  0.58665200  0.88596600  0.24683100  1
  C  961  1  0.60290800  0.90950900  0.28243800  1
  C  962  1  0.62105500  0.92170400  0.26700800  1
  C  964  1  0.60529300  0.89763100  0.23116600  1
  C  973  1  0.58677000  0.11532100  0.76756300  1
  C  975  1  0.60318700  0.09197600  0.73189200  1
  C  976  1  0.62116900  0.07958700  0.74736000  1
  C  978  1  0.60524200  0.10344600  0.78327000  1
  C  987  1  0.42769700  0.11533200  0.24678000  1
  C  989  1  0.41111300  0.09215100  0.28247800  1
  C  990  1  0.39318400  0.07971400  0.26698700  1
  C  992  1  0.40925700  0.10343600  0.23104800  1
  C  1001  1  0.89261000  0.24017200  0.58665200  1
  C  1003  1  0.91611300  0.27578800  0.60294600  1
  C  1004  1  0.92833600  0.26034900  0.62106700  1
  C  1006  1  0.90430000  0.22449900  0.60527000  1
  C  1015  1  0.89261600  0.76095000  0.42781500  1
  C  1017  1  0.91600100  0.72531700  0.41138500  1
  C  1018  1  0.92831900  0.74079400  0.39336400  1
  C  1020  1  0.90441800  0.77667000  0.40930500  1
  C  1029  1  0.12200700  0.24011900  0.42766700  1
  C  1031  1  0.09874700  0.27579600  0.41114200  1
  C  1032  1  0.08632800  0.26030500  0.39319900  1
  C  1034  1  0.11010200  0.22438600  0.40923600  1
  C  1043  1  0.12196700  0.76100100  0.58676400  1
  C  1045  1  0.09869200  0.72531300  0.60323400  1
  C  1046  1  0.08631400  0.74077700  0.62122800  1
  C  1048  1  0.11013700  0.77669900  0.60527200  1
  C  1057  1  0.58675100  0.76096700  0.12200200  1
  C  1059  1  0.60293000  0.72535800  0.09841600  1
  C  1060  1  0.62110700  0.74076800  0.08623800  1
  C  1062  1  0.60541100  0.77661300  0.11034500  1
  C  1071  1  0.42781100  0.24015000  0.12189100  1
  C  1073  1  0.41135200  0.27580000  0.09855000  1
  C  1074  1  0.39335600  0.26031700  0.08619800  1
  C  1076  1  0.40932400  0.22442700  0.11006000  1
  C  1085  1  0.42770300  0.76093800  0.89246000  1
  C  1087  1  0.41138600  0.72530000  0.91591800  1
  C  1088  1  0.39331100  0.74074300  0.92819900  1
  C  1090  1  0.40914700  0.77662100  0.90423300  1
  C  1099  1  0.58672200  0.24011600  0.89250000  1
  C  1101  1  0.60316400  0.27578100  0.91583000  1
  C  1102  1  0.62118100  0.26031300  0.92817300  1
  C  1104  1  0.60525700  0.22441800  0.90429000  1
  C  1113  1  0.12198100  0.58004200  0.76761800  1
  C  1115  1  0.09844100  0.59628500  0.73200600  1
  C  1116  1  0.08623400  0.61442700  0.74743400  1
  C  1118  1  0.11029400  0.59866800  0.78328400  1
  C  1127  1  0.12187900  0.42112500  0.24680900  1
  C  1129  1  0.09849000  0.40471200  0.28244600  1
  C  1130  1  0.08616700  0.38669000  0.26697200  1
  C  1132  1  0.11007800  0.40261200  0.23109400  1
  C  1141  1  0.89251500  0.42110500  0.76761300  1
  C  1143  1  0.91594200  0.40474300  0.73197200  1
  C  1144  1  0.92824900  0.38669700  0.74743100  1
  C  1146  1  0.90431700  0.40257900  0.78331200  1
  C  1155  1  0.89243900  0.58007500  0.24680100  1
  C  1157  1  0.91578300  0.59649200  0.28246800  1
  C  1158  1  0.92810600  0.61453100  0.26701300  1
  C  1160  1  0.90421300  0.59862800  0.23111500  1
  C  1169  1  0.76755900  0.11539900  0.58675800  1
  C  1171  1  0.73194700  0.09184000  0.60297600  1
  C  1172  1  0.74737700  0.07960700  0.62109700  1
  C  1174  1  0.78322100  0.10370100  0.60538000  1
  C  1183  1  0.24677100  0.11518600  0.42784900  1
  C  1185  1  0.28242800  0.09187700  0.41136400  1
  C  1186  1  0.26694300  0.07950200  0.39338700  1
  C  1188  1  0.23104300  0.10333100  0.40938100  1
  C  1197  1  0.76764900  0.88582200  0.42775800  1
  C  1199  1  0.73198300  0.90917300  0.41133900  1
  C  1200  1  0.74745000  0.92153700  0.39333700  1
  C  1202  1  0.78335800  0.89768300  0.40927600  1
  C  1211  1  0.24682400  0.88582200  0.58673700  1
  C  1213  1  0.28249100  0.90916200  0.60316000  1
  C  1214  1  0.26703600  0.92148500  0.62119800  1
  C  1216  1  0.23113600  0.89759700  0.60528900  1
  C  1225  1  0.76757800  0.58007500  0.89244100  1
  C  1227  1  0.73194900  0.59636400  0.91592700  1
  C  1228  1  0.74738700  0.61447400  0.92817100  1
  C  1230  1  0.78324800  0.59868300  0.90415000  1
  C  1239  1  0.24680900  0.42112700  0.89261400  1
  C  1241  1  0.28242300  0.40479200  0.91609000  1
  C  1242  1  0.26697000  0.38668600  0.92831700  1
  C  1244  1  0.23111900  0.40253400  0.90432100  1
  C  1253  1  0.76760900  0.42101200  0.12196600  1
  C  1255  1  0.73198900  0.40473100  0.09845400  1
  C  1256  1  0.74743100  0.38663100  0.08620500  1
  C  1258  1  0.78328400  0.40242200  0.11023700  1
  C  1267  1  0.24676300  0.58000400  0.12193300  1
  C  1269  1  0.28244200  0.59652000  0.09867600  1
  C  1270  1  0.26696800  0.61452300  0.08632400  1
  C  1272  1  0.23105000  0.59850700  0.11011300  1
  C  1281  1  0.58666700  0.11525600  0.24680300  1
  C  1283  1  0.60314700  0.09195300  0.28246600  1
  C  1284  1  0.62114600  0.07959600  0.26699300  1
  C  1286  1  0.60514700  0.10341000  0.23108300  1
  C  1295  1  0.42779000  0.11526300  0.76759400  1
  C  1297  1  0.41141300  0.09184200  0.73196100  1
  C  1298  1  0.39336000  0.07954800  0.74742500  1
  C  1300  1  0.40923800  0.10350100  0.78329300  1
  C  1309  1  0.42767200  0.88590400  0.24677100  1
  C  1311  1  0.41133000  0.90934800  0.28240800  1
  C  1312  1  0.39327100  0.92164100  0.26695500  1
  C  1314  1  0.40912600  0.89768400  0.23107900  1
  C  1323  1  0.58682500  0.88578400  0.76766800  1
  C  1325  1  0.60315600  0.90919200  0.73200600  1
  C  1326  1  0.62125100  0.92146600  0.74743600  1
  C  1328  1  0.60542800  0.89751000  0.78332900  1
  C  1337  1  0.12196300  0.76095200  0.42769900  1
  C  1339  1  0.09853600  0.72530900  0.41135400  1
  C  1340  1  0.08627200  0.74075100  0.39326200  1
  C  1342  1  0.11022800  0.77663000  0.40911500  1
  C  1351  1  0.12189900  0.24016300  0.58663900  1
  C  1353  1  0.09852800  0.27580600  0.60306500  1
  C  1354  1  0.08621200  0.26033600  0.62109500  1
  C  1356  1  0.11010200  0.22445200  0.60515800  1
  C  1365  1  0.89248900  0.76089900  0.58671700  1
  C  1367  1  0.91593700  0.72526400  0.60306100  1
  C  1368  1  0.92822000  0.74071800  0.62112700  1
  C  1370  1  0.90426000  0.77659100  0.60526700  1
  C  1379  1  0.89254600  0.24008100  0.42765400  1
  C  1381  1  0.91597600  0.27572000  0.41130300  1
  C  1382  1  0.92824700  0.26027100  0.39322400  1
  C  1384  1  0.90427300  0.22440100  0.40906900  1
  N  722  1  0.42770300  0.26505500  0.89922200  1
  N  725  1  0.39336400  0.23531600  0.92156300  1
  N  728  1  0.40614100  0.19923200  0.89988400  1
  N  731  1  0.37765900  0.26986400  0.94683900  1
  N  733  1  0.44664900  0.23085500  0.87703000  1
  N  736  1  0.58664400  0.73594800  0.89925000  1
  N  739  1  0.62114600  0.76564100  0.92140600  1
  N  742  1  0.60849500  0.80168000  0.89958400  1
  N  745  1  0.63672300  0.73114500  0.94682900  1
  N  747  1  0.56778700  0.77014200  0.87697100  1
  N  750  1  0.58681000  0.26516900  0.11534400  1
  N  753  1  0.62121500  0.23546000  0.09306800  1
  N  756  1  0.60850000  0.19939100  0.11479700  1
  N  759  1  0.63681800  0.26998500  0.06770000  1
  N  761  1  0.56788800  0.23096100  0.13754200  1
  N  764  1  0.42771600  0.73604200  0.11529300  1
  N  767  1  0.39335800  0.76576200  0.09296000  1
  N  770  1  0.40613400  0.80185800  0.11461000  1
  N  773  1  0.37768500  0.73121100  0.06766900  1
  N  775  1  0.44669300  0.77026200  0.13743400  1
  N  778  1  0.89922000  0.42101500  0.27174400  1
  N  781  1  0.92155900  0.38668000  0.24200200  1
  N  784  1  0.89991400  0.39948800  0.20591000  1
  N  787  1  0.94681600  0.37095400  0.27655100  1
  N  789  1  0.87704900  0.43998500  0.23754000  1
  N  792  1  0.89919700  0.58000600  0.74258800  1
  N  795  1  0.92143800  0.61443400  0.77229400  1
  N  798  1  0.89965400  0.60176700  0.80834700  1
  N  801  1  0.94682900  0.63003300  0.73778800  1
  N  803  1  0.87692200  0.56113700  0.77678200  1
  N  806  1  0.11530700  0.58009500  0.27181700  1
  N  809  1  0.09305300  0.61452200  0.24211400  1
  N  812  1  0.11481600  0.60183400  0.20605200  1
  N  815  1  0.06766000  0.63010200  0.27663100  1
  N  817  1  0.13753200  0.56120000  0.23761200  1
  N  820  1  0.11535100  0.42102900  0.74269000  1
  N  823  1  0.09303200  0.38665200  0.77239700  1
  N  826  1  0.11470000  0.39940100  0.80849100  1
  N  829  1  0.06772000  0.37100500  0.73784700  1
  N  831  1  0.13750300  0.43998500  0.77691500  1
  N  834  1  0.27178100  0.89260600  0.42774800  1
  N  837  1  0.24207600  0.91480600  0.39328600  1
  N  840  1  0.20601800  0.89304700  0.40600100  1
  N  843  1  0.27659500  0.94016300  0.37764700  1
  N  845  1  0.23758800  0.87035400  0.44663200  1
  N  848  1  0.74263700  0.89244900  0.58673000  1
  N  851  1  0.77238900  0.91481900  0.62103600  1
  N  854  1  0.80847200  0.89315100  0.60826700  1
  N  857  1  0.73785300  0.94011300  0.63672800  1
  N  859  1  0.77683700  0.87026300  0.56776600  1
  N  862  1  0.27180900  0.10868300  0.58681500  1
  N  865  1  0.24212100  0.08640600  0.62123800  1
  N  868  1  0.20604400  0.10814300  0.60855000  1
  N  871  1  0.27665400  0.06103300  0.63681600  1
  N  873  1  0.23759000  0.13088700  0.56791800  1
  N  876  1  0.74263900  0.10860100  0.42778100  1
  N  879  1  0.77234000  0.08637600  0.39333400  1
  N  882  1  0.80840400  0.10812100  0.40603900  1
  N  885  1  0.73782100  0.06100300  0.37772300  1
  N  887  1  0.77684300  0.13081900  0.44669100  1
  N  890  1  0.27179000  0.42086200  0.11540800  1
  N  893  1  0.24200600  0.38669400  0.09287400  1
  N  896  1  0.20587900  0.39958300  0.11440700  1
  N  899  1  0.27658200  0.37092000  0.06768200  1
  N  901  1  0.23756500  0.43994100  0.13745400  1
  N  904  1  0.74258400  0.58013700  0.11535700  1
  N  907  1  0.77234000  0.61438500  0.09290800  1
  N  910  1  0.80844500  0.60158100  0.11451500  1
  N  913  1  0.73778100  0.63010000  0.06765800  1
  N  915  1  0.77681100  0.56113000  0.13747500  1
  N  918  1  0.27179400  0.58008800  0.89927900  1
  N  921  1  0.24209300  0.61452200  0.92152000  1
  N  924  1  0.20603900  0.60184900  0.89973800  1
  N  927  1  0.27660400  0.63009600  0.94692600  1
  N  929  1  0.23759700  0.56120400  0.87703000  1
  N  932  1  0.74269600  0.42101900  0.89919700  1
  N  935  1  0.77240800  0.38658900  0.92142800  1
  N  938  1  0.80848100  0.39934000  0.89972100  1
  N  941  1  0.73788100  0.37092400  0.94675300  1
  N  943  1  0.77689200  0.43995800  0.87699600  1
  N  946  1  0.42782800  0.89265700  0.74268600  1
  N  949  1  0.39327100  0.91474100  0.77236600  1
  N  952  1  0.40593800  0.89291200  0.80840200  1
  N  955  1  0.37768500  0.94016100  0.73787000  1
  N  957  1  0.44667600  0.87036500  0.77687000  1
  N  960  1  0.58657800  0.89276400  0.27178100  1
  N  963  1  0.62118400  0.91480700  0.24212300  1
  N  966  1  0.60858600  0.89292300  0.20610300  1
  N  969  1  0.63673600  0.94025600  0.27661800  1
  N  971  1  0.56778900  0.87041600  0.23759200  1
  N  974  1  0.58684200  0.10869900  0.74256700  1
  N  977  1  0.62113300  0.08628300  0.77229800  1
  N  980  1  0.60837700  0.10793100  0.80839600  1
  N  983  1  0.63678500  0.06098300  0.73774700  1
  N  985  1  0.56788200  0.13085700  0.77678400  1
  N  988  1  0.42751900  0.10881200  0.27180300  1
  N  991  1  0.39331500  0.08632400  0.24202700  1
  N  994  1  0.40621100  0.10783900  0.20589800  1
  N  997  1  0.37753900  0.06113200  0.27660100  1
  N  999  1  0.44661700  0.13084300  0.23758200  1
  N  1002  1  0.89937500  0.26513100  0.58660800  1
  N  1005  1  0.92147200  0.23545900  0.62116500  1
  N  1008  1  0.89962600  0.19942300  0.60852100  1
  N  1011  1  0.94688800  0.26996300  0.63674600  1
  N  1013  1  0.87707600  0.23094000  0.56777400  1
  N  1016  1  0.89927300  0.73596300  0.42773900  1
  N  1019  1  0.92156900  0.76571700  0.39338500  1
  N  1022  1  0.89987100  0.80178200  0.40615500  1
  N  1025  1  0.94686900  0.73119400  0.37767800  1
  N  1027  1  0.87704500  0.77014400  0.44668600  1
  N  1030  1  0.11544100  0.26513300  0.42752100  1
  N  1033  1  0.09296600  0.23535400  0.39331300  1
  N  1036  1  0.11452600  0.19924100  0.40617900  1
  N  1039  1  0.06773400  0.26991100  0.37756600  1
  N  1041  1  0.13750800  0.23092300  0.44659400  1
  N  1044  1  0.11537000  0.73599700  0.58685300  1
  N  1047  1  0.09300300  0.76571700  0.62118800  1
  N  1050  1  0.11462900  0.80182400  0.60840500  1
  N  1053  1  0.06772500  0.73115400  0.63685700  1
  N  1055  1  0.13748200  0.77022900  0.56786300  1
  N  1058  1  0.58662500  0.73602700  0.11517900  1
  N  1061  1  0.62127400  0.76564700  0.09315000  1
  N  1064  1  0.60873600  0.80166900  0.11508000  1
  N  1067  1  0.63674600  0.73115200  0.06765500  1
  N  1069  1  0.56790700  0.77022200  0.13756600  1
  N  1072  1  0.42771200  0.26514800  0.11527000  1
  N  1075  1  0.39340200  0.23538600  0.09291500  1
  N  1078  1  0.40620400  0.19930400  0.11456800  1
  N  1081  1  0.37767400  0.26992300  0.06764600  1
  N  1083  1  0.44669500  0.23094600  0.13744100  1
  N  1086  1  0.42772200  0.73596800  0.89918600  1
  N  1089  1  0.39325800  0.76565400  0.92140200  1
  N  1092  1  0.40592900  0.80171400  0.89963300  1
  N  1095  1  0.37766800  0.73113100  0.94678200  1
  N  1097  1  0.44657900  0.77016700  0.87692000  1
  N  1100  1  0.58678700  0.26510600  0.89914200  1
  N  1103  1  0.62116900  0.23538600  0.92143400  1
  N  1106  1  0.60842200  0.19930600  0.89974700  1
  N  1109  1  0.63682900  0.26992500  0.94675100  1
  N  1111  1  0.56783100  0.23089700  0.87696900  1
  N  1114  1  0.11519400  0.57996600  0.74266700  1
  N  1117  1  0.09310900  0.61454600  0.77232300  1
  N  1120  1  0.11498600  0.60194900  0.80835200  1
  N  1123  1  0.06765800  0.63007700  0.73782300  1
  N  1125  1  0.13754500  0.56119300  0.77685800  1
  N  1128  1  0.11522000  0.42106300  0.27179600  1
  N  1131  1  0.09292200  0.38670100  0.24205100  1
  N  1134  1  0.11462800  0.39945800  0.20598400  1
  N  1137  1  0.06761200  0.37101100  0.27657400  1
  N  1139  1  0.13743300  0.44000200  0.23759900  1
  N  1142  1  0.89921200  0.42108600  0.74263500  1
  N  1145  1  0.92148200  0.38668200  0.77234900  1
  N  1148  1  0.89975100  0.39939500  0.80841700  1
  N  1151  1  0.94682500  0.37104700  0.73782100  1
  N  1153  1  0.87696700  0.43998300  0.77682800  1
  N  1156  1  0.89909400  0.58011600  0.27178800  1
  N  1159  1  0.92135600  0.61453900  0.24208900  1
  N  1162  1  0.89965400  0.60181300  0.20600800  1
  N  1165  1  0.94669800  0.63016400  0.27662700  1
  N  1167  1  0.87691800  0.56117900  0.23757100  1
  N  1170  1  0.74260900  0.10861000  0.58667300  1
  N  1173  1  0.77226400  0.08649200  0.62123200  1
  N  1176  1  0.80828800  0.10840100  0.60867100  1
  N  1179  1  0.73777500  0.06099700  0.63671300  1
  N  1181  1  0.77680500  0.13096500  0.56791200  1
  N  1184  1  0.27177500  0.10859200  0.42772800  1
  N  1187  1  0.24200600  0.08619200  0.39345500  1
  N  1190  1  0.20591100  0.10780800  0.40628400  1
  N  1193  1  0.27655500  0.06095800  0.37769900  1
  N  1195  1  0.23757100  0.13073800  0.44673300  1
  N  1198  1  0.74265400  0.89245400  0.42768800  1
  N  1201  1  0.77238300  0.91483400  0.39337200  1
  N  1204  1  0.80848100  0.89318900  0.40614100  1
  N  1207  1  0.73782800  0.94010900  0.37768900  1
  N  1209  1  0.77686200  0.87027800  0.44664000  1
  N  1212  1  0.27181300  0.89247500  0.58678300  1
  N  1215  1  0.24211200  0.91473900  0.62120100  1
  N  1218  1  0.20602900  0.89304100  0.60847200  1
  N  1221  1  0.27664800  0.94007500  0.63683300  1
  N  1223  1  0.23759500  0.87029900  0.56784400  1
  N  1226  1  0.74261400  0.58003300  0.89919100  1
  N  1229  1  0.77228300  0.61456900  0.92132600  1
  N  1232  1  0.80832800  0.60193000  0.89949300  1
  N  1235  1  0.73777300  0.63012100  0.94674900  1
  N  1237  1  0.77682200  0.56119400  0.87691400  1
  N  1240  1  0.27177100  0.42114100  0.89935800  1
  N  1243  1  0.24207200  0.38662200  0.92147800  1
  N  1246  1  0.20603700  0.39930200  0.89967300  1
  N  1249  1  0.27657400  0.37098800  0.94685600  1
  N  1251  1  0.23759400  0.43999800  0.87705800  1
  N  1254  1  0.74265000  0.42106500  0.11519400  1
  N  1257  1  0.77232600  0.38654200  0.09305200  1
  N  1260  1  0.80836400  0.39917100  0.11489500  1
  N  1263  1  0.73783000  0.37100500  0.06760300  1
  N  1265  1  0.77684100  0.43990100  0.13748600  1
  N  1268  1  0.27176700  0.58011800  0.11534000  1
  N  1271  1  0.24202700  0.61445500  0.09300500  1
  N  1274  1  0.20592100  0.60161200  0.11459400  1
  N  1277  1  0.27658500  0.63020800  0.06777900  1
  N  1279  1  0.23755400  0.56109800  0.13745100  1
  N  1282  1  0.58677700  0.10865900  0.27180500  1
  N  1285  1  0.62107600  0.08627800  0.24205100  1
  N  1288  1  0.60823600  0.10788300  0.20594800  1
  N  1291  1  0.63682000  0.06104100  0.27660600  1
  N  1293  1  0.56777200  0.13078500  0.23759000  1
  N  1296  1  0.42776000  0.10857200  0.74261600  1
  N  1299  1  0.39333600  0.08633800  0.77233600  1
  N  1302  1  0.40604600  0.10809400  0.80839200  1
  N  1305  1  0.37770200  0.06097300  0.73782400  1
  N  1307  1  0.44667200  0.13080100  0.77681800  1
  N  1310  1  0.42767100  0.89261800  0.27174400  1
  N  1313  1  0.39323700  0.91485500  0.24204200  1
  N  1316  1  0.40592500  0.89309400  0.20598200  1
  N  1319  1  0.37763800  0.94023500  0.27655900  1
  N  1321  1  0.44655800  0.87036900  0.23755000  1
  N  1324  1  0.58679800  0.89249400  0.74269400  1
  N  1327  1  0.62132500  0.91466300  0.77234500  1
  N  1330  1  0.60867100  0.89288900  0.80841500  1
  N  1333  1  0.63687800  0.94005600  0.73781300  1
  N  1335  1  0.56793900  0.87026500  0.77691300  1
  N  1338  1  0.11525500  0.73597800  0.42770300  1
  N  1341  1  0.09307000  0.76566200  0.39321400  1
  N  1344  1  0.11483500  0.80172600  0.40590800  1
  N  1347  1  0.06769200  0.73113700  0.37761500  1
  N  1349  1  0.13747400  0.77019200  0.44659400  1
  N  1352  1  0.11524700  0.26515200  0.58670700  1
  N  1355  1  0.09295800  0.23541100  0.62108000  1
  N  1358  1  0.11464200  0.19933800  0.60830500  1
  N  1361  1  0.06766800  0.26994400  0.63678500  1
  N  1363  1  0.13744000  0.23095200  0.56775500  1
  N  1366  1  0.89920800  0.73592700  0.58671700  1
  N  1369  1  0.92142800  0.76562900  0.62116200  1
  N  1372  1  0.89966400  0.80168600  0.60847200  1
  N  1375  1  0.94681200  0.73111600  0.63676400  1
  N  1377  1  0.87695600  0.77011200  0.56782500  1
  N  1380  1  0.89926700  0.26505300  0.42766300  1
  N  1383  1  0.92143600  0.23536400  0.39317000  1
  N  1386  1  0.89964500  0.19931300  0.40583900  1
  N  1389  1  0.94683700  0.26987300  0.37758700  1
  N  1391  1  0.87699600  0.23085900  0.44652600  1
  O  27  1  0.23757300  0.35220500  0.95919600  1
  O  28  1  0.23760500  0.35211200  0.05533600  1
  O  29  1  0.35894400  0.23092900  0.05525800  1
  O  30  1  0.35892800  0.23086400  0.95926300  1
  O  57  1  0.77675900  0.64897800  0.95904100  1
  O  58  1  0.77676300  0.64889100  0.05530100  1
  O  59  1  0.65551000  0.77013500  0.05527500  1
  O  60  1  0.65555500  0.77013700  0.95912400  1
  O  87  1  0.77681800  0.35225400  0.05524200  1
  O  88  1  0.77687500  0.35211400  0.95909800  1
  O  89  1  0.65558600  0.23093100  0.95912600  1
  O  90  1  0.65566700  0.23101000  0.05540800  1
  O  117  1  0.23759700  0.64899500  0.05540300  1
  O  118  1  0.23761800  0.64888700  0.95926500  1
  O  119  1  0.35886800  0.77010800  0.95912600  1
  O  120  1  0.35892500  0.77019700  0.05528100  1
  O  147  1  0.95914900  0.23087800  0.35876300  1
  O  148  1  0.05542700  0.23093600  0.35872700  1
  O  149  1  0.05521100  0.35229800  0.23757600  1
  O  150  1  0.95920600  0.35219000  0.23755600  1
  O  177  1  0.95906900  0.77009700  0.65565400  1
  O  178  1  0.05534000  0.77013700  0.65563500  1
  O  179  1  0.05525000  0.64879400  0.77681800  1
  O  180  1  0.95910000  0.64890200  0.77677300  1
  O  207  1  0.05534100  0.77011900  0.35883900  1
  O  208  1  0.95919100  0.77019200  0.35885800  1
  O  209  1  0.95904800  0.64895500  0.23764100  1
  O  210  1  0.05532700  0.64890400  0.23764700  1
  O  237  1  0.05529400  0.23094800  0.65555400  1
  O  238  1  0.95928600  0.23096500  0.65546300  1
  O  239  1  0.95921000  0.35229400  0.77680900  1
  O  240  1  0.05536200  0.35220500  0.77682400  1
  O  267  1  0.35879000  0.95253600  0.23757300  1
  O  268  1  0.35870800  0.04881000  0.23762600  1
  O  269  1  0.23755900  0.04852800  0.35900100  1
  O  270  1  0.23759500  0.95252200  0.35887200  1
  O  297  1  0.65570900  0.95240500  0.77679200  1
  O  298  1  0.65563100  0.04866700  0.77671600  1
  O  299  1  0.77675800  0.04871400  0.65555400  1
  O  300  1  0.77684100  0.95243700  0.65555400  1
  O  327  1  0.35894400  0.04862300  0.77681100  1
  O  328  1  0.35885400  0.95247100  0.77686400  1
  O  329  1  0.23765800  0.95243300  0.65561400  1
  O  330  1  0.23768600  0.04871400  0.65566000  1
  O  357  1  0.65561200  0.04866700  0.23762200  1
  O  358  1  0.65544200  0.95265700  0.23761600  1
  O  359  1  0.77680500  0.95250900  0.35892500  1
  O  360  1  0.77681100  0.04866200  0.35894000  1
  O  387  1  0.73769200  0.85117800  0.45813600  1
  O  388  1  0.73766100  0.85121600  0.55623400  1
  O  389  1  0.85792000  0.73094100  0.55627000  1
  O  390  1  0.85800000  0.73095300  0.45819100  1
  O  417  1  0.27673200  0.14991300  0.45814000  1
  O  418  1  0.27672200  0.15006200  0.55645000  1
  O  419  1  0.15659600  0.27010300  0.55631400  1
  O  420  1  0.15673100  0.27006100  0.45799000  1
  O  447  1  0.27674900  0.85121400  0.55629800  1
  O  448  1  0.27674900  0.85125700  0.45814600  1
  O  449  1  0.15660300  0.73105900  0.45812100  1
  O  450  1  0.15665200  0.73109300  0.55638600  1
  O  477  1  0.73763500  0.14997600  0.55630800  1
  O  478  1  0.73769300  0.14994800  0.45817400  1
  O  479  1  0.85796800  0.27003700  0.45808100  1
  O  480  1  0.85800400  0.27009200  0.55622600  1
  O  507  1  0.45811700  0.73099800  0.85785200  1
  O  508  1  0.55627400  0.73099100  0.85787300  1
  O  509  1  0.55645000  0.85110900  0.73777900  1
  O  510  1  0.45821400  0.85129000  0.73771200  1
  O  537  1  0.45811300  0.27010900  0.15660500  1
  O  538  1  0.55642200  0.27010100  0.15670400  1
  O  539  1  0.55635300  0.14998200  0.27672800  1
  O  540  1  0.45802800  0.15005900  0.27672000  1
  O  567  1  0.55627400  0.27006100  0.85791300  1
  O  568  1  0.45810200  0.27001000  0.85788400  1
  O  569  1  0.45815100  0.14992500  0.73766300  1
  O  570  1  0.55635000  0.14994700  0.73762900  1
  O  597  1  0.55630000  0.73105300  0.15657900  1
  O  598  1  0.45815700  0.73111800  0.15659600  1
  O  599  1  0.45808300  0.85130300  0.27671800  1
  O  600  1  0.55625900  0.85135000  0.27675400  1
  O  627  1  0.85790100  0.45150200  0.73765200  1
  O  628  1  0.85789700  0.54957100  0.73761000  1
  O  629  1  0.73767800  0.54966600  0.85780800  1
  O  630  1  0.73773300  0.45140100  0.85784600  1
  O  657  1  0.15658700  0.45142800  0.27676200  1
  O  658  1  0.15668300  0.54972700  0.27675400  1
  O  659  1  0.27670100  0.54966400  0.15662900  1
  O  660  1  0.27669400  0.45134100  0.15668900  1
  O  687  1  0.85784600  0.54961700  0.27672600  1
  O  688  1  0.85790900  0.45144900  0.27669700  1
  O  689  1  0.73769300  0.45138200  0.15661500  1
  O  690  1  0.73766300  0.54964500  0.15661100  1
  O  717  1  0.15654600  0.54959000  0.73767800  1
  O  718  1  0.15668300  0.45143900  0.73777900  1
  O  719  1  0.27677500  0.45153800  0.85803200  1
  O  720  1  0.27675100  0.54972700  0.85790100  1
