# generated using pymatgen
data_H9C16(N2O)2
_symmetry_space_group_name_H-M   'P 1'
_cell_length_a   39.83170000
_cell_length_b   39.83170000
_cell_length_c   59.19180000
_cell_angle_alpha   90.00000000
_cell_angle_beta   90.00000000
_cell_angle_gamma   90.00000000
_symmetry_Int_Tables_number   1
_chemical_formula_structural   H9C16(N2O)2
_chemical_formula_sum   'H288 C512 N128 O64'
_cell_volume   93911.59820602
_cell_formula_units_Z   32
loop_
 _symmetry_equiv_pos_site_id
 _symmetry_equiv_pos_as_xyz
  1  'x, y, z'
loop_
 _atom_site_type_symbol
 _atom_site_label
 _atom_site_symmetry_multiplicity
 _atom_site_fract_x
 _atom_site_fract_y
 _atom_site_fract_z
 _atom_site_occupancy
  H  7  1  0.12189800  0.43899300  0.87333200  1
  H  16  1  0.19236700  0.36869200  0.88242500  1
  H  17  1  0.13658900  0.41439400  0.79362400  1
  H  18  1  0.16788700  0.38319500  0.96217600  1
  H  19  1  0.21946000  0.41398700  0.85278100  1
  H  20  1  0.16716500  0.46614700  0.90307500  1
  H  25  1  0.20796100  0.33592900  0.93848800  1
  H  26  1  0.22538200  0.39945900  0.81072600  1
  H  27  1  0.08920900  0.45440000  0.81722300  1
  H  28  1  0.15321700  0.47245100  0.94504200  1
  H  35  1  0.38368500  0.55920900  0.37333700  1
  H  44  1  0.31323300  0.62952200  0.38242500  1
  H  45  1  0.36898500  0.58380500  0.29363500  1
  H  46  1  0.33770900  0.61501300  0.46218100  1
  H  47  1  0.28612700  0.58423900  0.35278900  1
  H  48  1  0.33839900  0.53205700  0.40307800  1
  H  53  1  0.29763500  0.66229200  0.43849000  1
  H  54  1  0.28021900  0.59876500  0.31072400  1
  H  55  1  0.41636500  0.54379100  0.31723000  1
  H  56  1  0.35234000  0.52572800  0.44503000  1
  H  63  1  0.81024300  0.86976600  0.12395900  1
  H  72  1  0.88360600  0.93923300  0.13256500  1
  H  73  1  0.83297800  0.88214800  0.04395300  1
  H  74  1  0.86924800  0.91559800  0.21244200  1
  H  75  1  0.83994300  0.96581500  0.10268700  1
  H  76  1  0.78603600  0.91499800  0.15348800  1
  H  81  1  0.91665500  0.95503400  0.18857200  1
  H  82  1  0.85332100  0.97087100  0.06046900  1
  H  83  1  0.78437100  0.83935500  0.07086800  1
  H  84  1  0.77991500  0.90111500  0.19538900  1
  H  91  1  0.69535400  0.12846600  0.62396800  1
  H  100  1  0.62194300  0.05909800  0.63257600  1
  H  101  1  0.67264600  0.11605700  0.54396400  1
  H  102  1  0.63635300  0.08270500  0.71245500  1
  H  103  1  0.66560900  0.03242500  0.60270700  1
  H  104  1  0.71955600  0.08316700  0.65349300  1
  H  109  1  0.58888100  0.04333400  0.68859000  1
  H  110  1  0.65224500  0.02738400  0.56047500  1
  H  111  1  0.72125300  0.15885500  0.57087700  1
  H  112  1  0.72572700  0.09704000  0.69537500  1
  H  119  1  0.38369500  0.43872900  0.63259300  1
  H  128  1  0.31295700  0.36869900  0.62352200  1
  H  129  1  0.36905100  0.41424300  0.71233500  1
  H  130  1  0.33755100  0.38318800  0.54379800  1
  H  131  1  0.28608400  0.41412300  0.65322900  1
  H  132  1  0.33854700  0.46608700  0.60291800  1
  H  137  1  0.29732600  0.33605700  0.56742800  1
  H  138  1  0.27973200  0.40004900  0.69515100  1
  H  139  1  0.41656100  0.45407900  0.68865800  1
  H  140  1  0.35295000  0.47192900  0.56081900  1
  H  147  1  0.12192500  0.55939700  0.13258100  1
  H  156  1  0.19257500  0.62952700  0.12351700  1
  H  157  1  0.13654300  0.58386500  0.21232500  1
  H  158  1  0.16799200  0.61501100  0.04379100  1
  H  159  1  0.21949900  0.58414800  0.15322200  1
  H  160  1  0.16710600  0.53210700  0.10291400  1
  H  165  1  0.20820300  0.66217900  0.06742300  1
  H  166  1  0.22582600  0.59819500  0.19515500  1
  H  167  1  0.08907200  0.54400500  0.18864600  1
  H  168  1  0.15269700  0.52623500  0.06083400  1
  H  175  1  0.69507300  0.86975000  0.38201100  1
  H  184  1  0.62195300  0.93941600  0.37336800  1
  H  185  1  0.67238700  0.88216300  0.46203900  1
  H  186  1  0.63641300  0.91564400  0.29353400  1
  H  187  1  0.66573400  0.96588000  0.40331600  1
  H  188  1  0.71951100  0.91490100  0.35254600  1
  H  193  1  0.58907700  0.95520500  0.31730900  1
  H  194  1  0.65276000  0.97140300  0.44540300  1
  H  195  1  0.72084600  0.83918400  0.43509100  1
  H  196  1  0.72522200  0.90053500  0.31051600  1
  H  203  1  0.81045800  0.12842400  0.88197000  1
  H  212  1  0.88368200  0.05883800  0.87336100  1
  H  213  1  0.83309400  0.11609000  0.96201000  1
  H  214  1  0.86921100  0.08257600  0.79352100  1
  H  215  1  0.83993500  0.03235400  0.90331300  1
  H  216  1  0.78609600  0.08323500  0.85252700  1
  H  221  1  0.91657300  0.04303700  0.81730800  1
  H  222  1  0.85288700  0.02690300  0.94542200  1
  H  223  1  0.78467700  0.15900600  0.93507100  1
  H  224  1  0.78036400  0.09759600  0.81051600  1
  H  231  1  0.88235600  0.55693900  0.13168700  1
  H  240  1  0.81297900  0.63015500  0.12297000  1
  H  241  1  0.86976600  0.57971000  0.21167500  1
  H  242  1  0.83667400  0.61559600  0.04312200  1
  H  243  1  0.78618600  0.58637500  0.15286900  1
  H  244  1  0.83702800  0.53249400  0.10214300  1
  H  249  1  0.79726500  0.66312600  0.06694200  1
  H  250  1  0.78100400  0.59977700  0.19507900  1
  H  251  1  0.91275600  0.53116800  0.18478600  1
  H  252  1  0.85093600  0.52624700  0.06025000  1
  H  259  1  0.62329100  0.44135300  0.63166000  1
  H  268  1  0.69263300  0.36806400  0.62297500  1
  H  269  1  0.63578100  0.41858200  0.71164900  1
  H  270  1  0.66896300  0.38261500  0.54312100  1
  H  271  1  0.71940300  0.41179300  0.65288300  1
  H  272  1  0.66863700  0.46573500  0.60213600  1
  H  277  1  0.70835600  0.33507800  0.56694900  1
  H  278  1  0.72449900  0.39838700  0.69511500  1
  H  279  1  0.59285000  0.46708600  0.68478600  1
  H  280  1  0.65473800  0.47199600  0.56026200  1
  H  287  1  0.19552900  0.12909400  0.88182700  1
  H  296  1  0.12330400  0.05659800  0.87358400  1
  H  297  1  0.17355300  0.11667100  0.96191200  1
  H  298  1  0.13558900  0.07843500  0.79345600  1
  H  299  1  0.16706400  0.03276300  0.90328400  1
  H  300  1  0.21949800  0.08537400  0.85205600  1
  H  305  1  0.09265900  0.03036200  0.82057000  1
  H  306  1  0.15369100  0.02779800  0.94543400  1
  H  307  1  0.22151600  0.15978700  0.93488100  1
  H  308  1  0.22488800  0.09816800  0.80999800  1
  H  315  1  0.31010000  0.86909800  0.38182000  1
  H  324  1  0.38232700  0.94158300  0.37358100  1
  H  325  1  0.33202000  0.88157800  0.46190500  1
  H  326  1  0.37006500  0.91975800  0.29344400  1
  H  327  1  0.33855200  0.96544100  0.40325900  1
  H  328  1  0.28613200  0.91283400  0.35203700  1
  H  333  1  0.41298800  0.96785100  0.32058700  1
  H  334  1  0.35189400  0.97042200  0.44541300  1
  H  335  1  0.28405800  0.83844400  0.43486900  1
  H  336  1  0.28072400  0.90005800  0.30999400  1
  H  343  1  0.62325300  0.55710500  0.37357000  1
  H  352  1  0.69286400  0.63014500  0.38226600  1
  H  353  1  0.63574800  0.57982500  0.29355300  1
  H  354  1  0.66906100  0.61560300  0.46208600  1
  H  355  1  0.71944500  0.58629500  0.35230200  1
  H  356  1  0.66845800  0.53253900  0.40304900  1
  H  361  1  0.70862500  0.66299800  0.43831900  1
  H  362  1  0.72503900  0.59928200  0.31022400  1
  H  363  1  0.59265400  0.53152500  0.32042500  1
  H  364  1  0.65408300  0.52676400  0.44507500  1
  H  371  1  0.88234100  0.44111700  0.87357200  1
  H  380  1  0.81282100  0.36803600  0.88227800  1
  H  381  1  0.86981300  0.41841800  0.79355600  1
  H  382  1  0.83662900  0.38264000  0.96209500  1
  H  383  1  0.78615600  0.41188300  0.85231900  1
  H  384  1  0.83707800  0.46568500  0.90304400  1
  H  389  1  0.79711700  0.33517800  0.93834300  1
  H  390  1  0.78058500  0.39889600  0.81021900  1
  H  391  1  0.91291700  0.46672200  0.82042800  1
  H  392  1  0.85146600  0.47150900  0.94505000  1
  H  399  1  0.31031100  0.12908600  0.62341800  1
  H  408  1  0.38229100  0.05631800  0.63163300  1
  H  409  1  0.33217600  0.11670100  0.54329700  1
  H  410  1  0.37005700  0.07821700  0.71174100  1
  H  411  1  0.33842900  0.03270300  0.60188600  1
  H  412  1  0.28618900  0.08548900  0.65313800  1
  H  417  1  0.41279000  0.02994100  0.68463600  1
  H  418  1  0.35136600  0.02729500  0.55987200  1
  H  419  1  0.28435900  0.15994800  0.57039300  1
  H  420  1  0.28128100  0.09868900  0.69532800  1
  H  427  1  0.19528300  0.86912500  0.12343000  1
  H  436  1  0.12324100  0.94180600  0.13166700  1
  H  437  1  0.17342400  0.88152500  0.04331200  1
  H  438  1  0.13557000  0.91992200  0.21177100  1
  H  439  1  0.16708600  0.96549100  0.10191000  1
  H  440  1  0.21940200  0.91277200  0.15313600  1
  H  445  1  0.09277600  0.96822200  0.18464400  1
  H  446  1  0.15416000  0.97088100  0.05987700  1
  H  447  1  0.22120400  0.83828600  0.07037200  1
  H  448  1  0.22436900  0.89956600  0.19531100  1
  H  459  1  0.23413800  0.54946800  0.77118100  1
  H  460  1  0.27014400  0.38475200  0.73631000  1
  H  461  1  0.23648300  0.38446300  0.76977600  1
  H  463  1  0.28490400  0.50065000  0.72058600  1
  H  476  1  0.27146000  0.44873600  0.27118000  1
  H  477  1  0.23546000  0.61345200  0.23630300  1
  H  478  1  0.26910000  0.61374100  0.26977900  1
  H  480  1  0.22072300  0.49755200  0.22057100  1
  H  493  1  0.70250700  0.98072300  0.02129800  1
  H  494  1  0.86725200  0.01617200  0.98620300  1
  H  495  1  0.86752400  0.98294700  0.01985000  1
  H  497  1  0.75133000  0.03080900  0.97040500  1
  H  510  1  0.80308500  0.01745300  0.52132100  1
  H  511  1  0.63833200  0.98207300  0.48621300  1
  H  512  1  0.63806500  0.01529400  0.51986300  1
  H  514  1  0.75424700  0.96739100  0.47042200  1
  H  527  1  0.77120600  0.44905000  0.23430300  1
  H  528  1  0.73568100  0.61378300  0.26937500  1
  H  529  1  0.76896100  0.61406200  0.23574700  1
  H  531  1  0.72102500  0.49786800  0.28515400  1
  H  544  1  0.73435800  0.54917100  0.73431100  1
  H  545  1  0.76990500  0.38444000  0.76938000  1
  H  546  1  0.73663300  0.38415900  0.73574900  1
  H  548  1  0.78453700  0.50035800  0.78516800  1
  H  561  1  0.30457900  0.01777200  0.98442700  1
  H  562  1  0.13983400  0.98175200  0.01925400  1
  H  563  1  0.13955700  0.01551000  0.98586800  1
  H  565  1  0.25575600  0.96688700  0.03496100  1
  H  578  1  0.20098800  0.98048700  0.48439500  1
  H  579  1  0.36573400  0.01646300  0.51923600  1
  H  580  1  0.36600800  0.98271100  0.48584800  1
  H  582  1  0.24981400  0.03135400  0.53493600  1
  H  595  1  0.73405200  0.05072500  0.27115400  1
  H  596  1  0.77024200  0.88599900  0.23637400  1
  H  597  1  0.73640200  0.88570800  0.26973700  1
  H  599  1  0.78505700  0.00190700  0.22066600  1
  H  612  1  0.77153500  0.94745000  0.77113400  1
  H  613  1  0.73537000  0.11219100  0.73637400  1
  H  614  1  0.76923500  0.11246800  0.76972700  1
  H  616  1  0.72050700  0.99629100  0.72066600  1
  H  629  1  0.20289200  0.48059800  0.52125500  1
  H  630  1  0.36761500  0.51625500  0.48623000  1
  H  631  1  0.36789800  0.48288500  0.51983100  1
  H  633  1  0.25171400  0.53090700  0.47045700  1
  H  646  1  0.30270600  0.51757800  0.02125400  1
  H  647  1  0.13797600  0.48196800  0.98622000  1
  H  648  1  0.13770000  0.51534400  0.01982100  1
  H  650  1  0.25387600  0.46727700  0.97045600  1
  H  663  1  0.27126400  0.94774100  0.73431800  1
  H  664  1  0.23565600  0.11248900  0.76933500  1
  H  665  1  0.26911000  0.11276600  0.73580700  1
  H  667  1  0.22087500  0.99656400  0.78507500  1
  H  680  1  0.23428000  0.05046700  0.23435700  1
  H  681  1  0.27002900  0.88571500  0.26930300  1
  H  682  1  0.23654400  0.88544200  0.23578900  1
  H  684  1  0.28474300  0.00163600  0.28507800  1
  H  697  1  0.80421200  0.51793200  0.48446400  1
  H  698  1  0.63950100  0.48164700  0.51922100  1
  H  699  1  0.63920000  0.51556000  0.48588500  1
  H  701  1  0.75540700  0.46679200  0.53489500  1
  H  714  1  0.70139700  0.48035700  0.98446400  1
  H  715  1  0.86613000  0.51652600  0.01923300  1
  H  716  1  0.86640900  0.48262100  0.98589400  1
  H  718  1  0.75023000  0.53145900  0.03490100  1
  H  731  1  0.30325900  0.21689000  0.93270500  1
  H  732  1  0.14529100  0.27864500  0.89988700  1
  H  733  1  0.14506000  0.21879100  0.90080200  1
  H  735  1  0.25685600  0.30704700  0.92100800  1
  H  748  1  0.20234600  0.78132100  0.43272100  1
  H  749  1  0.36030900  0.71957300  0.39988500  1
  H  750  1  0.36053700  0.77942800  0.40079900  1
  H  752  1  0.24874900  0.69116600  0.42101300  1
  H  765  1  0.03592900  0.04995600  0.18283800  1
  H  766  1  0.97350200  0.89236600  0.14975400  1
  H  767  1  0.03335500  0.89188600  0.15063600  1
  H  769  1  0.94557700  0.00396300  0.17108600  1
  H  782  1  0.46975200  0.94825100  0.68292800  1
  H  783  1  0.53198400  0.10585900  0.64971300  1
  H  784  1  0.47213000  0.10625100  0.65055800  1
  H  786  1  0.56005000  0.99434500  0.67116600  1
  H  799  1  0.20245400  0.21682300  0.57260100  1
  H  800  1  0.36012800  0.27872300  0.60594600  1
  H  801  1  0.36051000  0.21887700  0.60482500  1
  H  803  1  0.24854100  0.30700000  0.58477500  1
  H  816  1  0.30312800  0.78134800  0.07260500  1
  H  817  1  0.14541500  0.71954100  0.10594200  1
  H  818  1  0.14506700  0.77938800  0.10481800  1
  H  820  1  0.25698900  0.69119900  0.08478300  1
  H  833  1  0.46964400  0.04983500  0.32258200  1
  H  834  1  0.53212000  0.89242600  0.35601400  1
  H  835  1  0.47227500  0.89184900  0.35495600  1
  H  837  1  0.55999400  0.00404200  0.33467800  1
  H  850  1  0.03596300  0.94837600  0.82259900  1
  H  851  1  0.97354700  0.10582200  0.85599900  1
  H  852  1  0.03339300  0.10637800  0.85493500  1
  H  854  1  0.94562700  0.99420700  0.83468800  1
  H  867  1  0.70244100  0.78256900  0.07288600  1
  H  868  1  0.86010700  0.71998800  0.10565300  1
  H  869  1  0.86061200  0.77984200  0.10482800  1
  H  871  1  0.74843500  0.69216300  0.08444500  1
  H  884  1  0.80317800  0.21565100  0.57287800  1
  H  885  1  0.64551900  0.27822100  0.60566900  1
  H  886  1  0.64501700  0.21836600  0.60484200  1
  H  888  1  0.75718200  0.30605300  0.58445100  1
  H  901  1  0.80298500  0.78265600  0.43296000  1
  H  902  1  0.64560500  0.71990500  0.39971400  1
  H  903  1  0.64492700  0.77974900  0.40077900  1
  H  905  1  0.75732500  0.69222300  0.42091000  1
  H  918  1  0.70259400  0.21565800  0.93306400  1
  H  919  1  0.85998400  0.27822100  0.89967000  1
  H  920  1  0.86057700  0.21837100  0.90069800  1
  H  922  1  0.74835200  0.30603800  0.92100100  1
  H  935  1  0.53595600  0.54896500  0.68282100  1
  H  936  1  0.47357800  0.39125400  0.64997700  1
  H  937  1  0.53343800  0.39083200  0.65079000  1
  H  939  1  0.44561300  0.50287600  0.67122000  1
  H  952  1  0.96954800  0.44926100  0.18277500  1
  H  953  1  0.03210900  0.60693200  0.15000100  1
  H  954  1  0.97224900  0.60743100  0.15083700  1
  H  956  1  0.05994400  0.49524400  0.17117100  1
  H  969  1  0.96956300  0.54889800  0.82269400  1
  H  970  1  0.03210500  0.39133700  0.85572200  1
  H  971  1  0.97225200  0.39076700  0.85470800  1
  H  973  1  0.05994100  0.50305500  0.83460900  1
  H  986  1  0.53604400  0.44932600  0.32273900  1
  H  987  1  0.47345300  0.60689200  0.35570800  1
  H  988  1  0.53330500  0.60748200  0.35468400  1
  H  990  1  0.44565300  0.49514900  0.33463800  1
  C  1  1  0.17223600  0.42681400  0.86641800  1
  C  2  1  0.13914300  0.43616800  0.86062300  1
  C  3  1  0.12870600  0.43957300  0.83784400  1
  C  4  1  0.15290100  0.43447100  0.82049700  1
  C  5  1  0.18666400  0.42586700  0.82576700  1
  C  6  1  0.19554000  0.42135800  0.84875000  1
  C  9  1  0.18007200  0.41898100  0.88939200  1
  C  10  1  0.17457900  0.44223400  0.90708500  1
  C  11  1  0.17915100  0.43332600  0.93006000  1
  C  12  1  0.18786800  0.39957400  0.93528700  1
  C  13  1  0.19301900  0.37543300  0.91791500  1
  C  14  1  0.18955600  0.38591200  0.89515000  1
  C  21  1  0.21030400  0.41918700  0.80895900  1
  C  22  1  0.09510900  0.44599700  0.83254300  1
  C  23  1  0.17262500  0.45698300  0.94689300  1
  C  24  1  0.19955800  0.34184400  0.92317200  1
  C  29  1  0.33333333  0.57137200  0.36642400  1
  C  30  1  0.36642700  0.56198300  0.36063300  1
  C  31  1  0.37686600  0.55860300  0.33785300  1
  C  32  1  0.35267200  0.56371800  0.32050600  1
  C  33  1  0.31891200  0.57232900  0.32577500  1
  C  34  1  0.31004000  0.57684500  0.34875800  1
  C  37  1  0.32554500  0.57924300  0.38940000  1
  C  38  1  0.33100300  0.55597500  0.40708900  1
  C  39  1  0.32641900  0.56487700  0.43006500  1
  C  40  1  0.31773000  0.59863900  0.43529200  1
  C  41  1  0.31259600  0.62278400  0.41791900  1
  C  42  1  0.31606000  0.61231000  0.39515500  1
  C  49  1  0.29527300  0.57901200  0.30896900  1
  C  50  1  0.41046800  0.55219100  0.33255100  1
  C  51  1  0.33295600  0.54122300  0.44689800  1
  C  52  1  0.30605300  0.65637200  0.42317900  1
  C  57  1  0.82512500  0.91942500  0.11673400  1
  C  58  1  0.81383000  0.88683000  0.11121500  1
  C  59  1  0.80907500  0.87662400  0.08854300  1
  C  60  1  0.81495700  0.90018400  0.07097600  1
  C  61  1  0.82572000  0.93340800  0.07597400  1
  C  62  1  0.83134100  0.94223600  0.09886800  1
  C  65  1  0.83327700  0.92729500  0.13965800  1
  C  66  1  0.81004400  0.92220900  0.15741700  1
  C  67  1  0.81907200  0.92686300  0.18035300  1
  C  68  1  0.85288200  0.93542700  0.18550000  1
  C  69  1  0.87698600  0.94030000  0.16806500  1
  C  70  1  0.86641600  0.93665500  0.14532700  1
  C  77  1  0.83299800  0.95654100  0.05897200  1
  C  78  1  0.79989700  0.84373600  0.08366300  1
  C  79  1  0.79542300  0.92050200  0.19720300  1
  C  80  1  0.91062000  0.94674500  0.17324900  1
  C  85  1  0.68046900  0.07880700  0.61674800  1
  C  86  1  0.69181200  0.11138600  0.61123000  1
  C  87  1  0.69655200  0.12158700  0.58855500  1
  C  88  1  0.69066200  0.09802500  0.57099100  1
  C  89  1  0.67987900  0.06480900  0.57599200  1
  C  90  1  0.67424000  0.05599400  0.59888500  1
  C  93  1  0.67228200  0.07097400  0.63967300  1
  C  94  1  0.69553700  0.07600100  0.65742600  1
  C  95  1  0.68650900  0.07134500  0.68036300  1
  C  96  1  0.65268200  0.06285300  0.68551200  1
  C  97  1  0.62856500  0.05802700  0.66808100  1
  C  98  1  0.63913000  0.06166500  0.64534100  1
  C  105  1  0.67260100  0.04167000  0.55899500  1
  C  106  1  0.70573000  0.15447500  0.58367200  1
  C  107  1  0.71016900  0.07769600  0.69720800  1
  C  108  1  0.59492400  0.05163700  0.67327100  1
  C  113  1  0.33333333  0.42673100  0.63955700  1
  C  114  1  0.36647000  0.43596500  0.64532100  1
  C  115  1  0.37696700  0.43935200  0.66808800  1
  C  116  1  0.35278700  0.43434300  0.68545800  1
  C  117  1  0.31897500  0.42586000  0.68022400  1
  C  118  1  0.31004500  0.42137600  0.65724500  1
  C  121  1  0.32542500  0.41896100  0.61658400  1
  C  122  1  0.33101600  0.44221400  0.59890200  1
  C  123  1  0.32642100  0.43334100  0.57592600  1
  C  124  1  0.31758900  0.39962900  0.57067700  1
  C  125  1  0.31234500  0.37549000  0.58803600  1
  C  126  1  0.31582400  0.38592900  0.61080800  1
  C  133  1  0.29527500  0.41939000  0.69703900  1
  C  134  1  0.41059800  0.44569300  0.67334500  1
  C  135  1  0.33315700  0.45692300  0.55909300  1
  C  136  1  0.30573900  0.34192700  0.58275000  1
  C  141  1  0.17227400  0.57144800  0.13954800  1
  C  142  1  0.13915700  0.56213300  0.14530600  1
  C  143  1  0.12866100  0.55875400  0.16807400  1
  C  144  1  0.15283300  0.56379300  0.18544500  1
  C  145  1  0.18663000  0.57232900  0.18021400  1
  C  146  1  0.19555400  0.57684300  0.15723600  1
  C  149  1  0.18013900  0.57926300  0.11657400  1
  C  150  1  0.17459900  0.55599200  0.09889700  1
  C  151  1  0.17919600  0.56486500  0.07591900  1
  C  152  1  0.18797200  0.59858900  0.07066900  1
  C  153  1  0.19318100  0.62273800  0.08802700  1
  C  154  1  0.18970800  0.61230200  0.11080000  1
  C  161  1  0.21032200  0.57881900  0.19703200  1
  C  162  1  0.09503600  0.55236200  0.17332800  1
  C  163  1  0.17245900  0.54127600  0.05908900  1
  C  164  1  0.19975500  0.65630700  0.08273600  1
  C  169  1  0.68035300  0.91944200  0.38926000  1
  C  170  1  0.69153000  0.88680500  0.39476400  1
  C  171  1  0.69624800  0.87655700  0.41743100  1
  C  172  1  0.69045300  0.90012300  0.43500800  1
  C  173  1  0.67980900  0.93339600  0.43002800  1
  C  174  1  0.67422300  0.94225800  0.40713400  1
  C  177  1  0.67227900  0.92736800  0.36633100  1
  C  178  1  0.69554000  0.92220100  0.34859700  1
  C  179  1  0.68656500  0.92685600  0.32565500  1
  C  180  1  0.65279200  0.93549200  0.32046700  1
  C  181  1  0.62866300  0.94044100  0.33787500  1
  C  182  1  0.63917000  0.93680000  0.36062600  1
  C  189  1  0.67272900  0.95660900  0.44702700  1
  C  190  1  0.70534900  0.84363300  0.42229000  1
  C  191  1  0.71016400  0.92029600  0.30881800  1
  C  192  1  0.59505200  0.94689500  0.33263900  1
  C  197  1  0.82523600  0.07875600  0.88924000  1
  C  198  1  0.81397600  0.11137000  0.89472900  1
  C  199  1  0.80925300  0.12163600  0.91739300  1
  C  200  1  0.81507300  0.09808700  0.93497800  1
  C  201  1  0.82577500  0.06482800  0.93001100  1
  C  202  1  0.83139700  0.05596200  0.90712100  1
  C  205  1  0.83335200  0.07085200  0.86631300  1
  C  206  1  0.81007900  0.07596600  0.84858100  1
  C  207  1  0.81905700  0.07130200  0.82563800  1
  C  208  1  0.85284400  0.06271700  0.82045300  1
  C  209  1  0.87697800  0.05780700  0.83786300  1
  C  210  1  0.86646900  0.06145000  0.86061400  1
  C  217  1  0.83286300  0.04162600  0.94701300  1
  C  218  1  0.80008700  0.15455000  0.92222600  1
  C  219  1  0.79546000  0.07786600  0.80880100  1
  C  220  1  0.91059500  0.05137900  0.83262900  1
  C  225  1  0.83263900  0.57166800  0.13886500  1
  C  226  1  0.86526200  0.56048900  0.14441600  1
  C  227  1  0.87544400  0.55579700  0.16709900  1
  C  228  1  0.85183000  0.56161100  0.18464400  1
  C  229  1  0.81857800  0.57226300  0.17962000  1
  C  230  1  0.80978100  0.57783900  0.15671300  1
  C  233  1  0.82479600  0.57978000  0.11592700  1
  C  234  1  0.82986300  0.55650500  0.09818900  1
  C  235  1  0.82525100  0.56549200  0.07523900  1
  C  236  1  0.81677300  0.59931700  0.07006200  1
  C  237  1  0.81194500  0.62346900  0.08747500  1
  C  238  1  0.81553000  0.61293200  0.11022400  1
  C  245  1  0.79539000  0.57949900  0.19660500  1
  C  246  1  0.90835800  0.54673100  0.17201400  1
  C  247  1  0.83159000  0.54179800  0.05840400  1
  C  248  1  0.80559800  0.65711300  0.08225900  1
  C  253  1  0.67298700  0.42657800  0.63886100  1
  C  254  1  0.64038300  0.43782800  0.64439300  1
  C  255  1  0.63017500  0.44250700  0.66707400  1
  C  256  1  0.65376600  0.43666300  0.68462900  1
  C  257  1  0.68701100  0.42596800  0.67962000  1
  C  258  1  0.69581800  0.42037200  0.65671600  1
  C  261  1  0.68081000  0.41843100  0.61592300  1
  C  262  1  0.67578400  0.44171700  0.59818400  1
  C  263  1  0.68041400  0.43272900  0.57523500  1
  C  264  1  0.68885900  0.39889600  0.57006200  1
  C  265  1  0.69366700  0.37474200  0.58747700  1
  C  266  1  0.69007200  0.38527700  0.61022500  1
  C  273  1  0.71017600  0.41871500  0.69661400  1
  C  274  1  0.59726400  0.45162300  0.67196300  1
  C  275  1  0.67405900  0.45641800  0.55840000  1
  C  276  1  0.70001100  0.34109800  0.58226200  1
  C  281  1  0.18115600  0.07931600  0.88913000  1
  C  282  1  0.19220200  0.11201800  0.89459200  1
  C  283  1  0.19706700  0.12229600  0.91724600  1
  C  284  1  0.19152400  0.09871300  0.93485300  1
  C  285  1  0.18103200  0.06539300  0.92990900  1
  C  286  1  0.17538600  0.05646700  0.90704300  1
  C  289  1  0.17301300  0.07115200  0.86624000  1
  C  290  1  0.19581700  0.07697700  0.84830900  1
  C  291  1  0.18688900  0.07124800  0.82545100  1
  C  292  1  0.15360100  0.06060200  0.82054100  1
  C  293  1  0.13006700  0.05499600  0.83816700  1
  C  294  1  0.14035900  0.05993800  0.86080700  1
  C  301  1  0.17395800  0.04221500  0.94691400  1
  C  302  1  0.20605600  0.15525700  0.92207600  1
  C  303  1  0.21009900  0.07818600  0.80843000  1
  C  304  1  0.09714000  0.04584400  0.83337200  1
  C  309  1  0.32445100  0.91888500  0.38911500  1
  C  310  1  0.31337100  0.88619500  0.39458000  1
  C  311  1  0.30851600  0.87592400  0.41723500  1
  C  312  1  0.31405200  0.89951800  0.43483700  1
  C  313  1  0.32454800  0.93283300  0.42988900  1
  C  314  1  0.33021500  0.94174300  0.40702300  1
  C  317  1  0.33262700  0.92701400  0.36622500  1
  C  318  1  0.30982100  0.92121200  0.34829300  1
  C  319  1  0.31875200  0.92695600  0.32543500  1
  C  320  1  0.35204700  0.93758300  0.32053100  1
  C  321  1  0.37558100  0.94317500  0.33816000  1
  C  322  1  0.36528500  0.93822400  0.36079800  1
  C  329  1  0.33161100  0.95602400  0.44688600  1
  C  330  1  0.29954300  0.84296000  0.42207400  1
  C  331  1  0.29555100  0.92001000  0.30841100  1
  C  332  1  0.40850400  0.95233100  0.33336700  1
  C  337  1  0.67297500  0.57173900  0.36634300  1
  C  338  1  0.64032000  0.56063200  0.36082000  1
  C  339  1  0.63007200  0.55596000  0.33815000  1
  C  340  1  0.65366900  0.56171700  0.32058200  1
  C  341  1  0.68696100  0.57229100  0.32557200  1
  C  342  1  0.69581100  0.57784700  0.34847400  1
  C  345  1  0.68088800  0.57979300  0.38928000  1
  C  346  1  0.67573100  0.55651700  0.40700700  1
  C  347  1  0.68036300  0.56547200  0.42995800  1
  C  348  1  0.68894700  0.59925700  0.43515700  1
  C  349  1  0.69386500  0.62341100  0.41775700  1
  C  350  1  0.69026300  0.61291200  0.39500100  1
  C  357  1  0.71020400  0.57935100  0.30857800  1
  C  358  1  0.59713300  0.54689900  0.33328800  1
  C  359  1  0.67381600  0.54185300  0.44679300  1
  C  360  1  0.70027000  0.65703300  0.42300000  1
  C  365  1  0.83261400  0.42648200  0.86635000  1
  C  366  1  0.86525700  0.43763200  0.86082700  1
  C  367  1  0.87550200  0.44228600  0.83815300  1
  C  368  1  0.85190000  0.43652500  0.82059000  1
  C  369  1  0.81861300  0.42593000  0.82558400  1
  C  370  1  0.80977600  0.42035900  0.84848600  1
  C  373  1  0.82474400  0.41839600  0.88928900  1
  C  374  1  0.82984800  0.44169900  0.90700900  1
  C  375  1  0.82522300  0.43274600  0.92996400  1
  C  376  1  0.81671000  0.39894400  0.93516700  1
  C  377  1  0.81183200  0.37477700  0.91777300  1
  C  378  1  0.81541700  0.38526900  0.89501300  1
  C  385  1  0.79536500  0.41887300  0.80859400  1
  C  386  1  0.90844100  0.45134700  0.83329000  1
  C  387  1  0.83177100  0.45637800  0.94679200  1
  C  388  1  0.80548300  0.34114800  0.92302700  1
  C  393  1  0.32453300  0.07928600  0.61607000  1
  C  394  1  0.31359000  0.11202900  0.61063400  1
  C  395  1  0.30873900  0.12236500  0.58799200  1
  C  396  1  0.31419200  0.09879000  0.57036600  1
  C  397  1  0.32458400  0.06542300  0.57527700  1
  C  398  1  0.33021200  0.05644800  0.59813900  1
  C  401  1  0.33262200  0.07105200  0.63895900  1
  C  402  1  0.30982900  0.07697100  0.65688300  1
  C  403  1  0.31872400  0.07120700  0.67974100  1
  C  404  1  0.35196100  0.06043200  0.68466600  1
  C  405  1  0.37548300  0.05473200  0.66704700  1
  C  406  1  0.36523000  0.05971100  0.64440200  1
  C  413  1  0.33145700  0.04217700  0.55826800  1
  C  414  1  0.29980200  0.15535700  0.58319900  1
  C  415  1  0.29560400  0.07834900  0.69676700  1
  C  416  1  0.40837400  0.04548900  0.67186000  1
  C  421  1  0.18103400  0.91892000  0.11608700  1
  C  422  1  0.19203300  0.88619500  0.11065100  1
  C  423  1  0.19687000  0.87586100  0.08800700  1
  C  424  1  0.19139800  0.89943800  0.07038300  1
  C  425  1  0.18098100  0.93279600  0.07529800  1
  C  426  1  0.17533500  0.94175900  0.09816000  1
  C  429  1  0.17292700  0.92712200  0.13897800  1
  C  430  1  0.19575200  0.92125000  0.15689200  1
  C  431  1  0.18687300  0.92701700  0.17975300  1
  C  432  1  0.15362100  0.93773200  0.18468900  1
  C  433  1  0.13007600  0.94339500  0.16708000  1
  C  434  1  0.14030800  0.93842000  0.14443200  1
  C  441  1  0.17410800  0.95604900  0.05829300  1
  C  442  1  0.20583200  0.84287500  0.08321700  1
  C  443  1  0.21000600  0.91987100  0.19677200  1
  C  444  1  0.09718000  0.95257900  0.17191900  1
  C  449  1  0.27259200  0.43771200  0.73274700  1
  C  450  1  0.26280900  0.46846900  0.74299000  1
  C  451  1  0.24284600  0.46791200  0.76302000  1
  C  452  1  0.23333400  0.43734100  0.77335100  1
  C  453  1  0.24346800  0.40702100  0.76299800  1
  C  454  1  0.26285100  0.40720900  0.74309600  1
  C  456  1  0.24192000  0.52785700  0.76352000  1
  C  457  1  0.26161900  0.52866200  0.74388000  1
  C  466  1  0.23301700  0.56049100  0.23273800  1
  C  467  1  0.24279600  0.52973400  0.24298300  1
  C  468  1  0.26274600  0.53029200  0.26301800  1
  C  469  1  0.27225100  0.56086300  0.27335400  1
  C  470  1  0.26212100  0.59118300  0.26299900  1
  C  471  1  0.24274900  0.59099500  0.24309100  1
  C  473  1  0.26367700  0.47034700  0.26351800  1
  C  474  1  0.24399400  0.46954100  0.24387200  1
  C  483  1  0.81428700  0.01862500  0.98263600  1
  C  484  1  0.78352000  0.00898300  0.99292700  1
  C  485  1  0.78407000  0.98928100  0.01307100  1
  C  486  1  0.81464100  0.97986100  0.02344000  1
  C  487  1  0.84496900  0.98984600  0.01303500  1
  C  488  1  0.84478800  0.00899000  0.99303000  1
  C  490  1  0.72412000  0.98839700  0.01358900  1
  C  491  1  0.72331900  0.00784000  0.99383400  1
  C  500  1  0.69129700  0.97959500  0.48265300  1
  C  501  1  0.72206400  0.98922600  0.49294700  1
  C  502  1  0.72151900  0.00892400  0.51309000  1
  C  503  1  0.69095000  0.01834700  0.52346100  1
  C  504  1  0.66062000  0.00837600  0.51305400  1
  C  505  1  0.66079600  0.98923800  0.49304500  1
  C  507  1  0.78146900  0.00978700  0.51361000  1
  C  508  1  0.78226500  0.99034800  0.49385400  1
  C  517  1  0.73322100  0.56082000  0.27294000  1
  C  518  1  0.74288700  0.53005800  0.26265100  1
  C  519  1  0.76262700  0.53061100  0.24252200  1
  C  520  1  0.77205400  0.56118200  0.23215200  1
  C  521  1  0.76204700  0.59150400  0.24255600  1
  C  522  1  0.74287900  0.59132100  0.26255300  1
  C  524  1  0.76351600  0.47066300  0.24200500  1
  C  525  1  0.74403900  0.46985700  0.26174400  1
  C  534  1  0.77234100  0.43740300  0.77295500  1
  C  535  1  0.76266700  0.46816300  0.76266800  1
  C  536  1  0.74292900  0.46761100  0.74253900  1
  C  537  1  0.73349200  0.43703900  0.73217300  1
  C  538  1  0.74353200  0.40671700  0.74256300  1
  C  539  1  0.76269500  0.40690300  0.76256400  1
  C  541  1  0.74204100  0.52755800  0.74201900  1
  C  542  1  0.76152300  0.52836400  0.76175600  1
  C  551  1  0.19280400  0.97923600  0.02280700  1
  C  552  1  0.22357000  0.98906800  0.01259600  1
  C  553  1  0.22301900  0.00909300  0.99259600  1
  C  554  1  0.19244500  0.01868800  0.98230400  1
  C  555  1  0.16211900  0.00851000  0.99262600  1
  C  556  1  0.16230200  0.98904500  0.01248700  1
  C  558  1  0.28296600  0.00998300  0.99208400  1
  C  559  1  0.28376900  0.99023300  0.01169900  1
  C  568  1  0.31276400  0.01900000  0.52278000  1
  C  569  1  0.28199700  0.00917700  0.51256800  1
  C  570  1  0.28254700  0.98915800  0.49256500  1
  C  571  1  0.31312000  0.97956800  0.48226800  1
  C  572  1  0.34344500  0.98972000  0.49260400  1
  C  573  1  0.34326500  0.00918400  0.51246300  1
  C  575  1  0.22260100  0.98827200  0.49205100  1
  C  576  1  0.22179900  0.00801600  0.51167100  1
  C  585  1  0.77269700  0.93896700  0.23281400  1
  C  586  1  0.76285800  0.96972900  0.24302400  1
  C  587  1  0.74279600  0.96917100  0.26300800  1
  C  588  1  0.73323300  0.93859300  0.27330700  1
  C  589  1  0.74341900  0.90827000  0.26298200  1
  C  590  1  0.76291300  0.90846100  0.24313700  1
  C  592  1  0.74187000  0.02911300  0.26351000  1
  C  593  1  0.76165600  0.02992200  0.24390900  1
  C  602  1  0.73289500  0.05922500  0.73281500  1
  C  603  1  0.74272800  0.02845900  0.74301900  1
  C  604  1  0.76280500  0.02900700  0.76299600  1
  C  605  1  0.77238600  0.05958200  0.77329100  1
  C  606  1  0.76220500  0.08990900  0.76297200  1
  C  607  1  0.74269600  0.08972700  0.74313500  1
  C  609  1  0.76371400  0.96906600  0.76349400  1
  C  610  1  0.74391300  0.96826500  0.74390100  1
  C  619  1  0.31465700  0.51867800  0.48266200  1
  C  620  1  0.28389500  0.50900000  0.49294500  1
  C  621  1  0.28444700  0.48921400  0.51305400  1
  C  622  1  0.31502100  0.47978900  0.52341900  1
  C  623  1  0.34534300  0.48981100  0.51302400  1
  C  624  1  0.34515800  0.50902200  0.49304500  1
  C  626  1  0.22450500  0.48831000  0.51356300  1
  C  627  1  0.22369900  0.50783700  0.49384600  1
  C  636  1  0.19093600  0.47952300  0.98266000  1
  C  637  1  0.22169900  0.48918900  0.99294500  1
  C  638  1  0.22114900  0.50897500  0.01305300  1
  C  639  1  0.19057700  0.51840700  0.02341800  1
  C  640  1  0.16025300  0.50839000  0.01302300  1
  C  641  1  0.16043500  0.48918100  0.99304300  1
  C  643  1  0.28109300  0.50986800  0.01356200  1
  C  644  1  0.28189400  0.49034100  0.99384600  1
  C  653  1  0.23315800  0.05951900  0.77288600  1
  C  654  1  0.24286100  0.02875200  0.76262300  1
  C  655  1  0.26269600  0.02930200  0.74253900  1
  C  656  1  0.27219600  0.05987800  0.73220800  1
  C  657  1  0.26215300  0.09020500  0.74259000  1
  C  658  1  0.24287700  0.09002300  0.76253200  1
  C  660  1  0.26355200  0.96935200  0.74201000  1
  C  661  1  0.24398500  0.96855100  0.76170900  1
  C  670  1  0.27247900  0.93868600  0.27287700  1
  C  671  1  0.26274600  0.96945300  0.26262900  1
  C  672  1  0.24289100  0.96890500  0.24255600  1
  C  673  1  0.23339100  0.93833200  0.23222500  1
  C  674  1  0.24348400  0.90800100  0.24257900  1
  C  675  1  0.26277800  0.90818200  0.26251300  1
  C  677  1  0.24200600  0.02885300  0.24204000  1
  C  678  1  0.26159600  0.02965400  0.26173100  1
  C  687  1  0.69246700  0.47917400  0.52277000  1
  C  688  1  0.72322100  0.48905300  0.51256900  1
  C  689  1  0.72266100  0.50916800  0.49260900  1
  C  690  1  0.69208000  0.51876600  0.48232400  1
  C  691  1  0.66176300  0.50853500  0.49263600  1
  C  692  1  0.66195800  0.48899800  0.51246500  1
  C  694  1  0.78260100  0.51009700  0.49210200  1
  C  695  1  0.78341500  0.49025600  0.51167700  1
  C  704  1  0.81316500  0.51904700  0.02277500  1
  C  705  1  0.78240300  0.50919300  0.01257100  1
  C  706  1  0.78295300  0.48908300  0.99260700  1
  C  707  1  0.81352600  0.47947800  0.98231500  1
  C  708  1  0.84384900  0.48966800  0.99263900  1
  C  709  1  0.84366600  0.50920300  0.01247000  1
  C  711  1  0.72301300  0.48818200  0.99210200  1
  C  712  1  0.72221000  0.50801600  0.01168100  1
  C  721  1  0.19545900  0.28474800  0.91118700  1
  C  722  1  0.22516100  0.26710900  0.91736700  1
  C  723  1  0.22452700  0.23125300  0.91808300  1
  C  724  1  0.19505500  0.21311400  0.91244600  1
  C  725  1  0.16647600  0.23119700  0.90550700  1
  C  726  1  0.16664200  0.26641900  0.90493100  1
  C  728  1  0.28241100  0.23055700  0.92867800  1
  C  729  1  0.28334200  0.26572300  0.92782100  1
  C  738  1  0.31014300  0.71346800  0.41118900  1
  C  739  1  0.28044300  0.73110700  0.41737400  1
  C  740  1  0.28107500  0.76696300  0.41809000  1
  C  741  1  0.31054400  0.78510200  0.41244900  1
  C  742  1  0.33912200  0.76702100  0.40550600  1
  C  743  1  0.33895700  0.73180000  0.40493000  1
  C  745  1  0.22319100  0.76765600  0.42868300  1
  C  746  1  0.22226300  0.73249000  0.42783100  1
  C  755  1  0.96762700  0.94253400  0.16110600  1
  C  756  1  0.98538700  0.97213400  0.16735200  1
  C  757  1  0.02124100  0.97135300  0.16804300  1
  C  758  1  0.03924900  0.94182900  0.16233700  1
  C  759  1  0.02104400  0.91334400  0.15536900  1
  C  760  1  0.98582400  0.91365500  0.15481200  1
  C  762  1  0.02217600  0.02918500  0.17876300  1
  C  763  1  0.98701200  0.03025500  0.17794000  1
  C  772  1  0.53791900  0.05571400  0.66110000  1
  C  773  1  0.52019400  0.02610500  0.66737000  1
  C  774  1  0.48434100  0.02683200  0.66803900  1
  C  775  1  0.46629500  0.05630400  0.66226400  1
  C  776  1  0.48446600  0.08482000  0.65531200  1
  C  777  1  0.51968700  0.08455900  0.65477800  1
  C  779  1  0.48347700  0.96903100  0.67883400  1
  C  780  1  0.51864500  0.96801200  0.67803200  1
  C  789  1  0.30996000  0.28478600  0.59463700  1
  C  790  1  0.28033700  0.26712200  0.58831100  1
  C  791  1  0.28107000  0.23127400  0.58746000  1
  C  792  1  0.31055200  0.21316800  0.59311800  1
  C  793  1  0.33907500  0.23126600  0.60014200  1
  C  794  1  0.33881600  0.26648200  0.60084400  1
  C  796  1  0.22324300  0.23051000  0.57673500  1
  C  797  1  0.22221300  0.26566600  0.57771900  1
  C  806  1  0.19557700  0.71344800  0.09462700  1
  C  807  1  0.22521100  0.73109400  0.08830700  1
  C  808  1  0.22449500  0.76694000  0.08744300  1
  C  809  1  0.19501600  0.78506400  0.09308400  1
  C  810  1  0.16649200  0.76698500  0.10013000  1
  C  811  1  0.16673200  0.73176700  0.10083400  1
  C  813  1  0.28232300  0.76767100  0.07671700  1
  C  814  1  0.28334000  0.73251500  0.07772000  1
  C  823  1  0.53798900  0.94258000  0.34462200  1
  C  824  1  0.52021900  0.97213900  0.33830400  1
  C  825  1  0.48437400  0.97129000  0.33749400  1
  C  826  1  0.46638000  0.94175400  0.34318400  1
  C  827  1  0.48458200  0.91331100  0.35023800  1
  C  828  1  0.51979800  0.91368500  0.35090000  1
  C  830  1  0.48340700  0.02909100  0.32670100  1
  C  831  1  0.51856000  0.03023400  0.32765200  1
  C  840  1  0.96765800  0.05566900  0.84461600  1
  C  841  1  0.98541500  0.02610000  0.83830200  1
  C  842  1  0.02126100  0.02693400  0.83749000  1
  C  843  1  0.03926700  0.05647400  0.84315400  1
  C  844  1  0.02107500  0.08491700  0.85021800  1
  C  845  1  0.98585900  0.08455700  0.85088500  1
  C  847  1  0.02220800  0.96912400  0.82672500  1
  C  848  1  0.98705200  0.96799400  0.82767400  1
  C  857  1  0.80991900  0.71415100  0.09433000  1
  C  858  1  0.78030200  0.73194800  0.08816800  1
  C  859  1  0.78109700  0.76780100  0.08750900  1
  C  860  1  0.81064700  0.78578700  0.09318300  1
  C  861  1  0.83914200  0.76755000  0.10009900  1
  C  862  1  0.83881500  0.73232700  0.10062200  1
  C  864  1  0.72322400  0.76879600  0.07689900  1
  C  865  1  0.72213400  0.73363000  0.07769600  1
  C  874  1  0.69570300  0.28406100  0.59433900  1
  C  875  1  0.72531800  0.26626600  0.58817100  1
  C  876  1  0.72452400  0.23041200  0.58751200  1
  C  877  1  0.69497700  0.21242400  0.59319000  1
  C  878  1  0.66648500  0.23065900  0.60011000  1
  C  879  1  0.66680900  0.26588200  0.60063400  1
  C  881  1  0.78239800  0.22942300  0.57690100  1
  C  882  1  0.78348200  0.26458900  0.57769300  1
  C  891  1  0.69579800  0.71411300  0.41103800  1
  C  892  1  0.72533500  0.73193800  0.41733700  1
  C  893  1  0.72442600  0.76778400  0.41815100  1
  C  894  1  0.69484200  0.78573200  0.41251200  1
  C  895  1  0.66642200  0.76747800  0.40547900  1
  C  896  1  0.66685400  0.73226200  0.40481100  1
  C  898  1  0.78226000  0.76885600  0.42885000  1
  C  899  1  0.78346200  0.73370300  0.42790400  1
  C  908  1  0.80981600  0.28406800  0.91103500  1
  C  909  1  0.78027100  0.26627800  0.91736000  1
  C  910  1  0.78112800  0.23043100  0.91815100  1
  C  911  1  0.81066200  0.21244800  0.91243900  1
  C  912  1  0.83910900  0.23067000  0.90542100  1
  C  913  1  0.83872500  0.26588700  0.90477600  1
  C  915  1  0.72332700  0.22943100  0.92893300  1
  C  916  1  0.72217400  0.26458600  0.92800700  1
  C  925  1  0.46767600  0.44144000  0.66128100  1
  C  926  1  0.48543600  0.47106300  0.66748300  1
  C  927  1  0.52129400  0.47031400  0.66813700  1
  C  928  1  0.53932200  0.44081500  0.66240800  1
  C  929  1  0.52111800  0.41228300  0.65552200  1
  C  930  1  0.48589200  0.41256100  0.65500800  1
  C  932  1  0.52221000  0.52817300  0.67878800  1
  C  933  1  0.48704200  0.52921200  0.67800100  1
  C  942  1  0.03795600  0.55672600  0.16128500  1
  C  943  1  0.02016100  0.52711800  0.16747000  1
  C  944  1  0.98430500  0.52791400  0.16814500  1
  C  945  1  0.96631200  0.55745400  0.16245400  1
  C  946  1  0.98454600  0.58595900  0.15555500  1
  C  947  1  0.01977200  0.58563500  0.15502800  1
  C  949  1  0.98331800  0.47004800  0.17877000  1
  C  950  1  0.01848400  0.46895600  0.17795500  1
  C  959  1  0.03797100  0.44153300  0.84441800  1
  C  960  1  0.02018100  0.47111800  0.83817500  1
  C  961  1  0.98433000  0.47027200  0.83738800  1
  C  962  1  0.96633700  0.44071500  0.84302900  1
  C  963  1  0.98455600  0.41224200  0.85000800  1
  C  964  1  0.01977800  0.41261200  0.85064500  1
  C  966  1  0.98333600  0.52813000  0.82674600  1
  C  967  1  0.01849300  0.52927500  0.82767900  1
  C  976  1  0.46760300  0.55668800  0.34441900  1
  C  977  1  0.48540000  0.52710100  0.33818700  1
  C  978  1  0.52125100  0.52796000  0.33739800  1
  C  979  1  0.53923700  0.55753600  0.34300700  1
  C  980  1  0.52100500  0.58599900  0.34999100  1
  C  981  1  0.48578700  0.58561700  0.35063300  1
  C  983  1  0.52226600  0.47008600  0.32679500  1
  C  984  1  0.48711000  0.46893100  0.32772500  1
  N  455  1  0.23338300  0.49768700  0.77230800  1
  N  458  1  0.27139200  0.49921400  0.73426200  1
  N  464  1  0.29245600  0.43836700  0.71454700  1
  N  465  1  0.21349300  0.43832200  0.79155900  1
  N  472  1  0.27220800  0.50051700  0.27230800  1
  N  475  1  0.23422100  0.49898800  0.23425200  1
  N  481  1  0.21316600  0.55983100  0.21453100  1
  N  482  1  0.29207900  0.55987900  0.29156900  1
  N  489  1  0.75428700  0.97995400  0.02241700  1
  N  492  1  0.75277100  0.01747200  0.98415700  1
  N  498  1  0.81354100  0.03816700  0.96429300  1
  N  499  1  0.81356200  0.96032400  0.04178400  1
  N  506  1  0.75130400  0.01823700  0.52243900  1
  N  509  1  0.75281100  0.98072800  0.48417700  1
  N  515  1  0.69203000  0.96003800  0.46431600  1
  N  516  1  0.69204000  0.03787500  0.54180800  1
  N  523  1  0.77196900  0.50083000  0.23318300  1
  N  526  1  0.73438600  0.49930900  0.27141300  1
  N  532  1  0.71362600  0.56008000  0.29126700  1
  N  533  1  0.79163400  0.56010500  0.21382000  1
  N  540  1  0.73358700  0.49739100  0.73319800  1
  N  543  1  0.77117300  0.49891500  0.77142600  1
  N  549  1  0.79192300  0.43814900  0.79128700  1
  N  550  1  0.71395200  0.43811900  0.71382200  1
  N  557  1  0.25279900  0.01856300  0.98331400  1
  N  560  1  0.25431800  0.98044600  0.02130800  1
  N  566  1  0.19352300  0.95950300  0.04106300  1
  N  567  1  0.19349900  0.03841400  0.96404600  1
  N  574  1  0.25276600  0.97969300  0.48328200  1
  N  577  1  0.25125000  0.01779600  0.52128200  1
  N  583  1  0.31205100  0.03874200  0.54103300  1
  N  584  1  0.31206600  0.95983500  0.46401500  1
  N  591  1  0.73328900  0.99894400  0.27227800  1
  N  594  1  0.77147700  0.00047300  0.23431300  1
  N  600  1  0.79259300  0.93961200  0.21464000  1
  N  601  1  0.71335500  0.93955700  0.29148600  1
  N  608  1  0.77231000  0.99922800  0.77226300  1
  N  611  1  0.73409200  0.99771700  0.73431000  1
  N  617  1  0.71297800  0.05859300  0.71465000  1
  N  618  1  0.79228200  0.05861400  0.79146500  1
  N  625  1  0.25467200  0.47983900  0.52238200  1
  N  628  1  0.25314800  0.51752100  0.48418900  1
  N  634  1  0.31399100  0.53842600  0.46441200  1
  N  635  1  0.31402900  0.46008100  0.54168800  1
  N  642  1  0.25092800  0.51834400  0.02238000  1
  N  645  1  0.25244200  0.48066300  0.98418700  1
  N  651  1  0.19159800  0.45978500  0.96440400  1
  N  652  1  0.19157400  0.53813200  0.04167800  1
  N  659  1  0.27206500  0.99951900  0.73321200  1
  N  662  1  0.23430400  0.99800300  0.77136400  1
  N  668  1  0.21353100  0.05879200  0.79118800  1
  N  669  1  0.29180300  0.05881000  0.71390000  1
  N  676  1  0.23349800  0.99868600  0.23324000  1
  N  679  1  0.27129900  0.00020000  0.27137400  1
  N  685  1  0.29212200  0.93940600  0.29117000  1
  N  686  1  0.21378200  0.93939400  0.21391700  1
  N  693  1  0.75243200  0.51869800  0.48334700  1
  N  696  1  0.75397100  0.48040700  0.52126500  1
  N  702  1  0.69311200  0.45923500  0.54093100  1
  N  703  1  0.69304400  0.53866500  0.46414400  1
  N  710  1  0.75317700  0.47956800  0.98334400  1
  N  713  1  0.75166100  0.51784700  0.02127100  1
  N  719  1  0.81252700  0.53897600  0.04094200  1
  N  720  1  0.81255700  0.45955200  0.96415100  1
  N  727  1  0.25328600  0.21483000  0.92360600  1
  N  730  1  0.25501800  0.28279000  0.92206500  1
  N  736  1  0.19275000  0.31789500  0.90933100  1
  N  737  1  0.19249400  0.17984000  0.91136000  1
  N  744  1  0.25231700  0.78338500  0.42361500  1
  N  747  1  0.25059000  0.71542300  0.42208100  1
  N  753  1  0.31285900  0.68032100  0.40933900  1
  N  754  1  0.31310800  0.81837700  0.41136300  1
  N  761  1  0.03778100  0.00002100  0.17362000  1
  N  764  1  0.96982700  0.00202200  0.17213500  1
  N  770  1  0.93446500  0.93993800  0.15933200  1
  N  771  1  0.07250600  0.93909000  0.16126100  1
  N  778  1  0.46783400  0.99815300  0.67364400  1
  N  781  1  0.53579500  0.99625000  0.67220000  1
  N  787  1  0.57107600  0.05835200  0.65933300  1
  N  788  1  0.43303500  0.05899800  0.66120000  1
  N  795  1  0.25238500  0.21481900  0.58181000  1
  N  798  1  0.25046300  0.28276000  0.58360300  1
  N  804  1  0.31263100  0.31793300  0.59653500  1
  N  805  1  0.31319800  0.17989200  0.59405900  1
  N  812  1  0.25319100  0.78337900  0.08179300  1
  N  815  1  0.25507900  0.71543900  0.08360200  1
  N  821  1  0.19288800  0.68030100  0.09652700  1
  N  822  1  0.19240600  0.81833900  0.09406000  1
  N  829  1  0.46781600  0.99991300  0.33183200  1
  N  832  1  0.53575700  0.00204700  0.33354300  1
  N  838  1  0.57114400  0.94002100  0.34649200  1
  N  839  1  0.43312300  0.93897700  0.34416100  1
  N  846  1  0.03780700  0.99830200  0.83183700  1
  N  849  1  0.96986700  0.99618800  0.83356200  1
  N  855  1  0.93450300  0.05824000  0.84648600  1
  N  856  1  0.07252600  0.05922400  0.84415600  1
  N  863  1  0.75241700  0.78437400  0.08200400  1
  N  866  1  0.75037800  0.71641500  0.08343300  1
  N  872  1  0.81246700  0.68098600  0.09614400  1
  N  873  1  0.81336600  0.81904700  0.09431900  1
  N  880  1  0.75320500  0.21384200  0.58200300  1
  N  883  1  0.75523600  0.28180100  0.58342700  1
  N  889  1  0.69314700  0.31722500  0.59614900  1
  N  890  1  0.69226100  0.17916600  0.59432600  1
  N  897  1  0.75303700  0.78439400  0.42377300  1
  N  900  1  0.75529100  0.71645800  0.42205200  1
  N  906  1  0.69329500  0.68094800  0.40917300  1
  N  907  1  0.69204300  0.81898900  0.41149300  1
  N  914  1  0.75251000  0.21385700  0.92380200  1
  N  917  1  0.75035300  0.28179800  0.92212600  1
  N  923  1  0.81235900  0.31723000  0.90917900  1
  N  924  1  0.81341600  0.17918500  0.91143200  1
  N  931  1  0.53782600  0.49901000  0.67365900  1
  N  934  1  0.46986500  0.50095600  0.67224700  1
  N  940  1  0.43450600  0.43884900  0.65948200  1
  N  941  1  0.57259200  0.43814900  0.66128800  1
  N  948  1  0.96773800  0.49923600  0.17365900  1
  N  951  1  0.03569500  0.49720000  0.17221300  1
  N  957  1  0.07112700  0.55927900  0.15948000  1
  N  958  1  0.93304400  0.56017300  0.16133700  1
  N  965  1  0.96775800  0.49892500  0.83181300  1
  N  968  1  0.03570400  0.50105900  0.83348400  1
  N  974  1  0.07113400  0.43900000  0.84632000  1
  N  975  1  0.93306900  0.43799800  0.84408200  1
  N  982  1  0.53783100  0.49930600  0.33183800  1
  N  985  1  0.46989000  0.49714500  0.33352300  1
  N  991  1  0.43443800  0.55920400  0.34632700  1
  N  992  1  0.57250400  0.56025300  0.34407600  1
  O  8  1  0.14338100  0.43705900  0.79838300  1
  O  15  1  0.19053800  0.38998900  0.95738500  1
  O  36  1  0.36219400  0.56113700  0.29839100  1
  O  43  1  0.31505800  0.60822200  0.45738900  1
  O  64  1  0.81095300  0.89039200  0.04901600  1
  O  71  1  0.86252300  0.93823600  0.20757800  1
  O  92  1  0.69467100  0.10781100  0.54902900  1
  O  99  1  0.64304600  0.06005900  0.70759300  1
  O  120  1  0.36237000  0.43693400  0.70755900  1
  O  127  1  0.31492500  0.39008900  0.54856900  1
  O  148  1  0.14325000  0.56118400  0.20754600  1
  O  155  1  0.19062600  0.60812900  0.04856100  1
  O  176  1  0.69445000  0.89028700  0.45695900  1
  O  183  1  0.64321700  0.93826600  0.29837200  1
  O  204  1  0.81104800  0.10792800  0.95692500  1
  O  211  1  0.86242200  0.05994700  0.79835900  1
  O  232  1  0.86159400  0.55765400  0.20661500  1
  O  239  1  0.81401600  0.60892500  0.04797500  1
  O  260  1  0.64398500  0.44062700  0.70659500  1
  O  267  1  0.69162100  0.38928600  0.54797600  1
  O  288  1  0.19559600  0.10854000  0.95679800  1
  O  295  1  0.14373700  0.05642000  0.79861100  1
  O  316  1  0.30997700  0.88970200  0.45678600  1
  O  323  1  0.36191600  0.94177100  0.29860200  1
  O  344  1  0.64384700  0.55775000  0.29862600  1
  O  351  1  0.69169600  0.60882500  0.45725300  1
  O  372  1  0.86171700  0.44049400  0.79863300  1
  O  379  1  0.81398300  0.38938600  0.95726600  1
  O  400  1  0.31010800  0.10867200  0.54843300  1
  O  407  1  0.36178800  0.05623800  0.70660300  1
  O  428  1  0.19548900  0.88956400  0.04844900  1
  O  435  1  0.14380800  0.94191200  0.20663000  1
  O  462  1  0.27054900  0.55848000  0.73472500  1
  O  479  1  0.23507600  0.43972100  0.23471200  1
  O  496  1  0.69350100  0.01667100  0.98463300  1
  O  513  1  0.81208000  0.98150800  0.48465300  1
  O  530  1  0.73519400  0.44003900  0.27093800  1
  O  547  1  0.77037200  0.55818200  0.77094700  1
  O  564  1  0.31358500  0.98125700  0.02083700  1
  O  581  1  0.19198300  0.01699000  0.52081000  1
  O  598  1  0.77062800  0.05974000  0.23477200  1
  O  615  1  0.73492800  0.93845000  0.73476400  1
  O  632  1  0.19388200  0.51669200  0.48465700  1
  O  649  1  0.31170900  0.48147900  0.98465700  1
  O  666  1  0.23508200  0.93873600  0.77087900  1
  O  683  1  0.27049600  0.05946900  0.27090200  1
  O  700  1  0.81323500  0.48126000  0.52079900  1
  O  717  1  0.69239400  0.51702100  0.02080600  1
  O  734  1  0.31228900  0.28216000  0.93238600  1
  O  751  1  0.19331800  0.71605100  0.43239800  1
  O  768  1  0.97069300  0.05924300  0.18257900  1
  O  785  1  0.53499900  0.93906000  0.68271600  1
  O  802  1  0.19324100  0.28206200  0.57316200  1
  O  819  1  0.31230700  0.71610400  0.07317800  1
  O  836  1  0.53485600  0.05924700  0.32304800  1
  O  853  1  0.97074600  0.93898400  0.82307700  1
  O  870  1  0.69312000  0.71734200  0.07309500  1
  O  887  1  0.81249700  0.28088000  0.57309000  1
  O  904  1  0.81251700  0.71746200  0.43246900  1
  O  921  1  0.69315700  0.28086700  0.93262100  1
  O  938  1  0.47071600  0.55820200  0.68261800  1
  O  955  1  0.03477700  0.43993700  0.18254200  1
  O  972  1  0.03477600  0.55832000  0.82314500  1
  O  989  1  0.47083700  0.43987900  0.32320000  1
