# generated using pymatgen
data_SiH24(C9O)4
_symmetry_space_group_name_H-M   'P 1'
_cell_length_a   22.19450000
_cell_length_b   45.23610000
_cell_length_c   45.23620000
_cell_angle_alpha   120.00021938
_cell_angle_beta   89.96610000
_cell_angle_gamma   90.00000015
_symmetry_Int_Tables_number   1
_chemical_formula_structural   SiH24(C9O)4
_chemical_formula_sum   'Si12 H288 C432 O48'
_cell_volume   39332.01597651
_cell_formula_units_Z   12
loop_
 _symmetry_equiv_pos_site_id
 _symmetry_equiv_pos_as_xyz
  1  'x, y, z'
loop_
 _atom_site_type_symbol
 _atom_site_label
 _atom_site_symmetry_multiplicity
 _atom_site_fract_x
 _atom_site_fract_y
 _atom_site_fract_z
 _atom_site_occupancy
  C  1  1  0.46011000  0.99980150  0.51295400  1
  C  3  1  0.61359400  0.52378400  0.48014400  1
  C  4  1  0.63591100  0.50345200  0.44664400  1
  C  5  1  0.68117800  0.51591250  0.43405200  1
  C  6  1  0.70367900  0.54952600  0.45414800  1
  C  7  1  0.68381900  0.56892700  0.48842400  1
  C  8  1  0.63867700  0.55645900  0.50109000  1
  C  10  1  0.81934900  0.55240650  0.45156350  1
  C  11  1  0.84369200  0.57334650  0.48458800  1
  C  12  1  0.89253700  0.56217550  0.49618050  1
  C  13  1  0.91735900  0.52939600  0.47539000  1
  C  14  1  0.89205500  0.50789350  0.44291750  1
  C  15  1  0.84285800  0.51900400  0.43148150  1
  C  16  1  0.75340900  0.54882400  0.39758250  1
  C  17  1  0.75348000  0.60601800  0.45464400  1
  C  18  1  0.80564200  0.62481300  0.45619350  1
  C  19  1  0.80153300  0.65905000  0.46423650  1
  C  20  1  0.74487900  0.67519950  0.46990850  1
  C  21  1  0.69259100  0.65657800  0.46804950  1
  C  22  1  0.69679900  0.62238850  0.46010950  1
  C  23  1  0.69664900  0.54544600  0.38185600  1
  C  24  1  0.69243400  0.53760400  0.34770750  1
  C  25  1  0.74488800  0.53368900  0.32839250  1
  C  26  1  0.80165800  0.53730350  0.34393450  1
  C  27  1  0.80579900  0.54526850  0.37815350  1
  C  44  1  0.61309800  0.96298350  0.48161750  1
  C  45  1  0.63534300  0.94980200  0.50194000  1
  C  46  1  0.68063300  0.92476200  0.48948050  1
  C  47  1  0.70321600  0.91125100  0.45587100  1
  C  48  1  0.68341800  0.92613900  0.43648150  1
  C  49  1  0.63827600  0.95127500  0.44895250  1
  C  51  1  0.81886200  0.90573200  0.45295900  1
  C  52  1  0.84338100  0.91776600  0.43199800  1
  C  53  1  0.89229000  0.94048900  0.44314850  1
  C  54  1  0.91704400  0.95247900  0.47592700  1
  C  55  1  0.89163600  0.94153250  0.49743950  1
  C  56  1  0.84237700  0.91902650  0.48634450  1
  C  57  1  0.75279600  0.85534600  0.45653250  1
  C  58  1  0.75299000  0.85521800  0.39936650  1
  C  59  1  0.80514200  0.83795350  0.38053850  1
  C  60  1  0.80107800  0.81181450  0.34627800  1
  C  61  1  0.74444100  0.80136000  0.33013300  1
  C  62  1  0.69215000  0.81811900  0.34878350  1
  C  63  1  0.69634000  0.84436700  0.38297200  1
  C  64  1  0.69600700  0.84304100  0.45997550  1
  C  65  1  0.69170800  0.81676300  0.46785950  1
  C  66  1  0.74410900  0.80136250  0.47180050  1
  C  67  1  0.80090500  0.81324350  0.46812500  1
  C  68  1  0.80512500  0.83947600  0.46013150  1
  C  85  1  0.61400000  0.52500900  0.04238700  1
  C  86  1  0.63644200  0.55844050  0.05532550  1
  C  87  1  0.68169200  0.57110750  0.08036050  1
  C  88  1  0.70399000  0.55119100  0.09412900  1
  C  89  1  0.68396200  0.51697400  0.07949900  1
  C  90  1  0.63893000  0.50420150  0.05432450  1
  C  92  1  0.81962200  0.55401500  0.09965900  1
  C  93  1  0.84393100  0.52094500  0.08742150  1
  C  94  1  0.89291900  0.50942800  0.06472700  1
  C  95  1  0.91794400  0.53034200  0.05294500  1
  C  96  1  0.89273000  0.56288050  0.06408750  1
  C  97  1  0.84341200  0.57424800  0.08658350  1
  C  98  1  0.75326500  0.60790100  0.14999200  1
  C  99  1  0.75382300  0.55090500  0.15020750  1
  C  100  1  0.80607500  0.54914900  0.16726400  1
  C  101  1  0.80211800  0.54105800  0.19343000  1
  C  102  1  0.74548300  0.53565550  0.20415150  1
  C  103  1  0.69310000  0.53768600  0.18757250  1
  C  104  1  0.69719600  0.54559600  0.16129950  1
  C  105  1  0.69638000  0.62362500  0.16207400  1
  C  106  1  0.69186600  0.65779650  0.18831300  1
  C  107  1  0.74413000  0.67716650  0.20390650  1
  C  108  1  0.80102400  0.66162400  0.19227750  1
  C  109  1  0.80544900  0.62738900  0.16608500  1
  C  126  1  0.11340200  0.48419650  0.52268250  1
  C  127  1  0.13590200  0.50461500  0.55610800  1
  C  128  1  0.18119400  0.49217750  0.56868950  1
  C  129  1  0.20349700  0.45849350  0.54868150  1
  C  130  1  0.18340600  0.43898150  0.51447750  1
  C  131  1  0.13829600  0.45144200  0.50180500  1
  C  133  1  0.31916500  0.45570800  0.55127200  1
  C  134  1  0.34336200  0.43483550  0.51817250  1
  C  135  1  0.39224800  0.44598950  0.50657050  1
  C  136  1  0.41727500  0.47868550  0.52743250  1
  C  137  1  0.39210200  0.50013300  0.55997700  1
  C  138  1  0.34289200  0.48903150  0.57143150  1
  C  139  1  0.25318000  0.45926550  0.60526600  1
  C  140  1  0.25344600  0.40207150  0.54825050  1
  C  141  1  0.30568900  0.38322800  0.54647100  1
  C  142  1  0.30168600  0.34899350  0.53844950  1
  C  143  1  0.24505600  0.33287650  0.53300650  1
  C  144  1  0.19269200  0.35151750  0.53503400  1
  C  145  1  0.19680800  0.38569700  0.54293800  1
  C  146  1  0.19642800  0.46287800  0.62110500  1
  C  147  1  0.19221000  0.47069850  0.65525150  1
  C  148  1  0.24465600  0.47449700  0.67449400  1
  C  149  1  0.30142200  0.47065850  0.65885050  1
  C  150  1  0.30555800  0.46265150  0.62461650  1
  C  167  1  0.11296800  0.04506950  0.52123150  1
  C  168  1  0.13551200  0.05810650  0.50083450  1
  C  169  1  0.18076600  0.08315050  0.51329550  1
  C  170  1  0.20298800  0.09681950  0.54698000  1
  C  171  1  0.18284300  0.08210850  0.56647550  1
  C  172  1  0.13775800  0.05695650  0.55399550  1
  C  174  1  0.31866000  0.10219750  0.54976300  1
  C  175  1  0.34283800  0.08998250  0.57063500  1
  C  176  1  0.39173400  0.06723150  0.55947250  1
  C  177  1  0.41678800  0.05538750  0.52676750  1
  C  178  1  0.39164700  0.06647850  0.50532250  1
  C  179  1  0.34242300  0.08902850  0.51643150  1
  C  180  1  0.25271600  0.15264050  0.54622850  1
  C  181  1  0.25287800  0.15280250  0.60341800  1
  C  182  1  0.30513000  0.16990100  0.62219800  1
  C  183  1  0.30115200  0.19610650  0.65643800  1
  C  184  1  0.24453000  0.20679750  0.67260000  1
  C  185  1  0.19215600  0.19018450  0.65399450  1
  C  186  1  0.19625200  0.16386750  0.61982900  1
  C  187  1  0.19597700  0.16488450  0.54265450  1
  C  188  1  0.19179200  0.19121950  0.53484650  1
  C  189  1  0.24424600  0.20665800  0.53101050  1
  C  190  1  0.30099400  0.19483300  0.53482200  1
  C  191  1  0.30510800  0.16859550  0.54281300  1
  C  208  1  0.11435100  0.48306900  0.96057400  1
  C  209  1  0.13682300  0.44962750  0.94757550  1
  C  210  1  0.18205400  0.43697650  0.92249250  1
  C  211  1  0.20429400  0.45692750  0.90874350  1
  C  212  1  0.18429400  0.49116000  0.92345200  1
  C  213  1  0.13925400  0.50390550  0.94865400  1
  C  215  1  0.31993100  0.45404950  0.90308750  1
  C  216  1  0.34419800  0.48713050  0.91536500  1
  C  217  1  0.39308900  0.49863350  0.93808750  1
  C  218  1  0.41804800  0.47769850  0.94985700  1
  C  219  1  0.39286800  0.44514950  0.93866750  1
  C  220  1  0.34365400  0.43378950  0.91613950  1
  C  221  1  0.25352600  0.40025350  0.85277600  1
  C  222  1  0.25399200  0.45731900  0.85267700  1
  C  223  1  0.30621800  0.45907450  0.83557250  1
  C  224  1  0.30217400  0.46714450  0.80939250  1
  C  225  1  0.24550300  0.47258250  0.79875750  1
  C  226  1  0.19316600  0.47056150  0.81540100  1
  C  227  1  0.19732800  0.46264450  0.84166250  1
  C  228  1  0.19665300  0.38454250  0.84073600  1
  C  229  1  0.19217000  0.35039000  0.81445450  1
  C  230  1  0.24446600  0.33104750  0.79879000  1
  C  231  1  0.30135000  0.34657350  0.81038450  1
  C  232  1  0.30574300  0.38079150  0.83661200  1
  C  249  1  0.01016800  0.50499950  0.52887750  1
  C  250  1  0.96061500  0.51572800  0.51726600  1
  C  251  1  0.96596500  0.51797150  0.48724600  1
  C  252  1  0.02090200  0.50875100  0.46901150  1
  C  253  1  0.07049100  0.49802950  0.48064850  1
  C  254  1  0.06526400  0.49592550  0.51076150  1
  C  261  1  0.00981400  0.03039550  0.50035050  1
  C  262  1  0.96029200  0.00802950  0.48959900  1
  C  263  1  0.96563700  0.97577300  0.48736100  1
  C  264  1  0.02052800  0.96679650  0.49663650  1
  C  265  1  0.07009000  0.98917850  0.50737400  1
  C  266  1  0.06486400  0.02139200  0.50947700  1
  C  273  1  0.01102200  0.47693350  0.97508200  1
  C  274  1  0.96137800  0.48854750  0.99738350  1
  C  275  1  0.96662800  0.51852850  0.02968150  1
  C  276  1  0.02156400  0.53673800  0.03875150  1
  C  277  1  0.07124400  0.52510250  0.01642550  1
  C  278  1  0.06612000  0.49501050  0.98419150  1
  C  285  1  0.51025300  0.50317200  0.47402800  1
  C  286  1  0.46062600  0.49248300  0.48564800  1
  C  287  1  0.46595000  0.49008750  0.51557950  1
  C  288  1  0.52092700  0.49914300  0.53373900  1
  C  289  1  0.57058900  0.50981550  0.52208650  1
  C  290  1  0.56538800  0.51207500  0.49206100  1
  C  297  1  0.50972200  0.97748350  0.50223850  1
  C  298  1  0.46546000  0.03212950  0.51535200  1
  C  299  1  0.52047200  0.04123350  0.50629850  1
  C  300  1  0.57011900  0.01889750  0.49559300  1
  C  301  1  0.56488900  0.98661300  0.49333300  1
  C  308  1  0.51070800  0.53109250  0.02782550  1
  C  309  1  0.46117800  0.51946650  0.00548050  1
  C  310  1  0.46660200  0.48950950  0.97317300  1
  C  311  1  0.52156600  0.47130650  0.96415150  1
  C  312  1  0.57113400  0.48295500  0.98651900  1
  C  313  1  0.56584500  0.51302950  0.01875900  1
  C  320  1  0.77030400  0.50658100  0.23616300  1
  C  321  1  0.76999300  0.50544450  0.26673500  1
  C  322  1  0.74084200  0.53157300  0.29610550  1
  C  323  1  0.71135100  0.55809650  0.29389250  1
  C  324  1  0.71173600  0.55928400  0.26343500  1
  C  325  1  0.74108600  0.53325850  0.23410850  1
  C  332  1  0.76964600  0.73628900  0.49895000  1
  C  333  1  0.76930400  0.76798700  0.50006300  1
  C  334  1  0.73998900  0.77123400  0.47399350  1
  C  335  1  0.71031100  0.74251000  0.44757300  1
  C  336  1  0.71080200  0.71086450  0.44638350  1
  C  337  1  0.74033300  0.70756200  0.47234500  1
  C  344  1  0.76951200  0.76936450  0.26907050  1
  C  345  1  0.76927200  0.73880500  0.23735050  1
  C  346  1  0.73981400  0.70948700  0.23402400  1
  C  347  1  0.70988800  0.71176200  0.26268550  1
  C  348  1  0.71020000  0.74220800  0.29434400  1
  C  349  1  0.73992700  0.77146550  0.29773650  1
  C  356  1  0.27028800  0.50162050  0.76669150  1
  C  357  1  0.26991000  0.50274450  0.73611350  1
  C  358  1  0.24062400  0.47665850  0.70680150  1
  C  359  1  0.21104800  0.45019250  0.70908250  1
  C  360  1  0.21159800  0.44898250  0.73952700  1
  C  361  1  0.24107400  0.47497000  0.76879500  1
  C  368  1  0.26991900  0.27178750  0.50395350  1
  C  369  1  0.26954000  0.24007200  0.50280400  1
  C  370  1  0.24025000  0.23682850  0.52889400  1
  C  371  1  0.21069700  0.26556650  0.55539400  1
  C  372  1  0.21116100  0.29721900  0.55660000  1
  C  373  1  0.24064200  0.30052350  0.53061050  1
  C  380  1  0.26967100  0.23881350  0.73364200  1
  C  381  1  0.26951400  0.26938900  0.76534600  1
  C  382  1  0.24014600  0.29873250  0.76867250  1
  C  383  1  0.21022800  0.29647450  0.74003550  1
  C  384  1  0.21056200  0.26602750  0.70837550  1
  C  385  1  0.24015400  0.23673100  0.70498250  1
  C  781  1  0.46011000  0.42503850  0.13714700  1
  C  783  1  0.61359400  0.94902050  0.10433650  1
  C  784  1  0.63591100  0.92868850  0.07083650  1
  C  785  1  0.68117800  0.94114900  0.05824450  1
  C  786  1  0.70367900  0.97476250  0.07834050  1
  C  787  1  0.68381900  0.99416354  0.11261654  1
  C  788  1  0.63867700  0.98169550  0.12528250  1
  C  790  1  0.81934900  0.97764300  0.07575570  1
  C  791  1  0.84369200  0.99858304  0.10878054  1
  C  792  1  0.89253700  0.98741200  0.12037300  1
  C  793  1  0.91735900  0.95463250  0.09958250  1
  C  794  1  0.89205500  0.93313000  0.06711000  1
  C  795  1  0.84285800  0.94424050  0.05567400  1
  C  796  1  0.75340900  0.97406050  0.02177470  1
  C  797  1  0.75348000  0.03125500  0.07883670  1
  C  798  1  0.80564200  0.05005000  0.08038620  1
  C  799  1  0.80153300  0.08428700  0.08842920  1
  C  800  1  0.74487900  0.10043650  0.09410150  1
  C  801  1  0.69259100  0.08181500  0.09224220  1
  C  802  1  0.69679900  0.04762550  0.08430220  1
  C  803  1  0.69664900  0.97068250  0.00604820  1
  C  804  1  0.69243400  0.96284050  0.97189970  1
  C  805  1  0.74488800  0.95892550  0.95258500  1
  C  806  1  0.80165800  0.96254000  0.96812670  1
  C  807  1  0.80579900  0.97050500  0.00234570  1
  C  824  1  0.61309800  0.38822050  0.10581050  1
  C  825  1  0.63534300  0.37503900  0.12613300  1
  C  826  1  0.68063300  0.34999900  0.11367350  1
  C  827  1  0.70321600  0.33648800  0.08006400  1
  C  828  1  0.68341800  0.35137600  0.06067450  1
  C  829  1  0.63827600  0.37651200  0.07314550  1
  C  831  1  0.81886200  0.33096900  0.07715200  1
  C  832  1  0.84338100  0.34300300  0.05619100  1
  C  833  1  0.89229000  0.36572600  0.06734150  1
  C  834  1  0.91704400  0.37771600  0.10012000  1
  C  835  1  0.89163600  0.36676950  0.12163250  1
  C  836  1  0.84237700  0.34426350  0.11053750  1
  C  837  1  0.75279600  0.28058300  0.08072550  1
  C  838  1  0.75299000  0.28045500  0.02355950  1
  C  839  1  0.80514200  0.26319050  0.00473150  1
  C  840  1  0.80107800  0.23705150  0.97047100  1
  C  841  1  0.74444100  0.22659700  0.95432600  1
  C  842  1  0.69215000  0.24335600  0.97297650  1
  C  843  1  0.69634000  0.26960400  0.00716500  1
  C  844  1  0.69600700  0.26827800  0.08416850  1
  C  845  1  0.69170800  0.24200000  0.09205250  1
  C  846  1  0.74410900  0.22659950  0.09599350  1
  C  847  1  0.80090500  0.23848050  0.09231800  1
  C  848  1  0.80512500  0.26471300  0.08432450  1
  C  865  1  0.61400000  0.95024550  0.66657950  1
  C  866  1  0.63644200  0.98367700  0.67951800  1
  C  867  1  0.68169200  0.99634404  0.70455304  1
  C  868  1  0.70399000  0.97642750  0.71832150  1
  C  869  1  0.68396200  0.94221050  0.70369150  1
  C  870  1  0.63893000  0.92943800  0.67851700  1
  C  872  1  0.81962200  0.97925150  0.72385150  1
  C  873  1  0.84393100  0.94618150  0.71161400  1
  C  874  1  0.89291900  0.93466450  0.68891950  1
  C  875  1  0.91794400  0.95557850  0.67713750  1
  C  876  1  0.89273000  0.98811700  0.68828000  1
  C  877  1  0.84341200  0.99948454  0.71077604  1
  C  878  1  0.75326500  0.03313800  0.77418500  1
  C  879  1  0.75382300  0.97614150  0.77440000  1
  C  880  1  0.80607500  0.97438550  0.79145650  1
  C  881  1  0.80211800  0.96629450  0.81762250  1
  C  882  1  0.74548300  0.96089200  0.82834400  1
  C  883  1  0.69310000  0.96292250  0.81176500  1
  C  884  1  0.69719600  0.97083250  0.78549200  1
  C  885  1  0.69638000  0.04886200  0.78626700  1
  C  886  1  0.69186600  0.08303350  0.81250600  1
  C  887  1  0.74413000  0.10240350  0.82809950  1
  C  888  1  0.80102400  0.08686100  0.81647050  1
  C  889  1  0.80544900  0.05262600  0.79027800  1
  C  906  1  0.11340200  0.90943300  0.14687500  1
  C  907  1  0.13590200  0.92985150  0.18030050  1
  C  908  1  0.18119400  0.91741400  0.19288200  1
  C  909  1  0.20349700  0.88373050  0.17287450  1
  C  910  1  0.18340600  0.86421850  0.13867050  1
  C  911  1  0.13829600  0.87667900  0.12599800  1
  C  913  1  0.31916500  0.88094500  0.17546500  1
  C  914  1  0.34336200  0.86007250  0.14236550  1
  C  915  1  0.39224800  0.87122650  0.13076350  1
  C  916  1  0.41727500  0.90392200  0.15162500  1
  C  917  1  0.39210200  0.92536950  0.18416950  1
  C  918  1  0.34289200  0.91426800  0.19562400  1
  C  919  1  0.25318000  0.88450250  0.22945900  1
  C  920  1  0.25344600  0.82730850  0.17244350  1
  C  921  1  0.30568900  0.80846500  0.17066400  1
  C  922  1  0.30168600  0.77423050  0.16264250  1
  C  923  1  0.24505600  0.75811350  0.15719950  1
  C  924  1  0.19269200  0.77675450  0.15922700  1
  C  925  1  0.19680800  0.81093400  0.16713100  1
  C  926  1  0.19642800  0.88811500  0.24529800  1
  C  927  1  0.19221000  0.89593550  0.27944450  1
  C  928  1  0.24465600  0.89973400  0.29868700  1
  C  929  1  0.30142200  0.89589550  0.28304350  1
  C  930  1  0.30555800  0.88788850  0.24880950  1
  C  947  1  0.11296800  0.47030650  0.14542450  1
  C  948  1  0.13551200  0.48334350  0.12502750  1
  C  949  1  0.18076600  0.50838750  0.13748850  1
  C  950  1  0.20298800  0.52205650  0.17117300  1
  C  951  1  0.18284300  0.50734550  0.19066850  1
  C  952  1  0.13775800  0.48219350  0.17818850  1
  C  954  1  0.31866000  0.52743450  0.17395600  1
  C  955  1  0.34283800  0.51521950  0.19482800  1
  C  956  1  0.39173400  0.49246850  0.18366550  1
  C  957  1  0.41678800  0.48062450  0.15096050  1
  C  958  1  0.39164700  0.49171550  0.12951550  1
  C  959  1  0.34242300  0.51426550  0.14062450  1
  C  960  1  0.25271600  0.57787750  0.17042150  1
  C  961  1  0.25287800  0.57803950  0.22761100  1
  C  962  1  0.30513000  0.59513800  0.24639100  1
  C  963  1  0.30115200  0.62134350  0.28063100  1
  C  964  1  0.24453000  0.63203450  0.29679300  1
  C  965  1  0.19215600  0.61542150  0.27818750  1
  C  966  1  0.19625200  0.58910450  0.24402200  1
  C  967  1  0.19597700  0.59012150  0.16684750  1
  C  968  1  0.19179200  0.61645650  0.15903950  1
  C  969  1  0.24424600  0.63189500  0.15520350  1
  C  970  1  0.30099400  0.62007000  0.15901500  1
  C  971  1  0.30510800  0.59383250  0.16700600  1
  C  988  1  0.11435100  0.90830550  0.58476650  1
  C  989  1  0.13682300  0.87486450  0.57176850  1
  C  990  1  0.18205400  0.86221350  0.54668550  1
  C  991  1  0.20429400  0.88216450  0.53293650  1
  C  992  1  0.18429400  0.91639650  0.54764450  1
  C  993  1  0.13925400  0.92914200  0.57284650  1
  C  995  1  0.31993100  0.87928650  0.52728050  1
  C  996  1  0.34419800  0.91236700  0.53955750  1
  C  997  1  0.39308900  0.92387000  0.56228000  1
  C  998  1  0.41804800  0.90293500  0.57404950  1
  C  999  1  0.39286800  0.87038650  0.56286050  1
  C  1000  1  0.34365400  0.85902650  0.54033250  1
  C  1001  1  0.25352600  0.82549050  0.47696900  1
  C  1002  1  0.25399200  0.88255600  0.47687000  1
  C  1003  1  0.30621800  0.88431150  0.45976550  1
  C  1004  1  0.30217400  0.89238150  0.43358550  1
  C  1005  1  0.24550300  0.89781950  0.42295050  1
  C  1006  1  0.19316600  0.89579850  0.43959400  1
  C  1007  1  0.19732800  0.88788150  0.46585550  1
  C  1008  1  0.19665300  0.80977950  0.46492900  1
  C  1009  1  0.19217000  0.77562700  0.43864750  1
  C  1010  1  0.24446600  0.75628450  0.42295117  1
  C  1011  1  0.30135000  0.77181050  0.43457750  1
  C  1012  1  0.30574300  0.80602850  0.46080500  1
  C  1029  1  0.01016800  0.93023600  0.15307000  1
  C  1030  1  0.96061500  0.94096450  0.14145850  1
  C  1031  1  0.96596500  0.94320800  0.11143850  1
  C  1032  1  0.02090200  0.93398750  0.09320400  1
  C  1033  1  0.07049100  0.92326600  0.10484100  1
  C  1034  1  0.06526400  0.92116200  0.13495400  1
  C  1041  1  0.00981400  0.45563250  0.12454350  1
  C  1042  1  0.96029200  0.43326650  0.11379200  1
  C  1043  1  0.96563700  0.40101000  0.11155400  1
  C  1044  1  0.02052800  0.39203350  0.12082950  1
  C  1045  1  0.07009000  0.41441550  0.13156700  1
  C  1046  1  0.06486400  0.44662900  0.13367000  1
  C  1053  1  0.01102200  0.90217000  0.59927450  1
  C  1054  1  0.96137800  0.91378400  0.62157600  1
  C  1055  1  0.96662800  0.94376500  0.65387400  1
  C  1056  1  0.02156400  0.96197450  0.66294400  1
  C  1057  1  0.07124400  0.95033900  0.64061800  1
  C  1058  1  0.06612000  0.92024700  0.60838400  1
  C  1065  1  0.51025300  0.92840850  0.09822050  1
  C  1066  1  0.46062600  0.91771950  0.10984050  1
  C  1067  1  0.46595000  0.91532400  0.13977200  1
  C  1068  1  0.52092700  0.92437950  0.15793150  1
  C  1069  1  0.57058900  0.93505200  0.14627900  1
  C  1070  1  0.56538800  0.93731150  0.11625350  1
  C  1077  1  0.50972200  0.40272050  0.12643150  1
  C  1078  1  0.46546000  0.45736650  0.13954500  1
  C  1079  1  0.52047200  0.46647050  0.13049150  1
  C  1080  1  0.57011900  0.44413450  0.11978600  1
  C  1081  1  0.56488900  0.41185000  0.11752600  1
  C  1088  1  0.51070800  0.95632900  0.65201800  1
  C  1089  1  0.46117800  0.94470300  0.62967300  1
  C  1090  1  0.46660200  0.91474600  0.59736550  1
  C  1091  1  0.52156600  0.89654350  0.58834450  1
  C  1092  1  0.57113400  0.90819150  0.61071150  1
  C  1093  1  0.56584500  0.93826600  0.64295150  1
  C  1100  1  0.77030400  0.93181750  0.86035550  1
  C  1101  1  0.76999300  0.93068100  0.89092750  1
  C  1102  1  0.74084200  0.95680950  0.92029800  1
  C  1103  1  0.71135100  0.98333300  0.91808500  1
  C  1104  1  0.71173600  0.98452050  0.88762750  1
  C  1105  1  0.74108600  0.95849500  0.85830100  1
  C  1112  1  0.76964600  0.16152600  0.12314300  1
  C  1113  1  0.76930400  0.19322400  0.12425600  1
  C  1114  1  0.73998900  0.19647100  0.09818650  1
  C  1115  1  0.71031100  0.16774700  0.07176600  1
  C  1116  1  0.71080200  0.13610150  0.07057650  1
  C  1117  1  0.74033300  0.13279900  0.09653800  1
  C  1124  1  0.76951200  0.19460150  0.89326350  1
  C  1125  1  0.76927200  0.16404200  0.86154350  1
  C  1126  1  0.73981400  0.13472400  0.85821700  1
  C  1127  1  0.70988800  0.13699900  0.88687850  1
  C  1128  1  0.71020000  0.16744500  0.91853700  1
  C  1129  1  0.73992700  0.19670250  0.92192950  1
  C  1136  1  0.27028800  0.92685700  0.39088400  1
  C  1137  1  0.26991000  0.92798100  0.36030600  1
  C  1138  1  0.24062400  0.90189500  0.33099400  1
  C  1139  1  0.21104800  0.87542950  0.33327550  1
  C  1140  1  0.21159800  0.87421950  0.36372000  1
  C  1141  1  0.24107400  0.90020650  0.39298750  1
  C  1148  1  0.26991900  0.69702450  0.12814650  1
  C  1149  1  0.26954000  0.66530900  0.12699700  1
  C  1150  1  0.24025000  0.66206550  0.15308700  1
  C  1151  1  0.21069700  0.69080350  0.17958700  1
  C  1152  1  0.21116100  0.72245600  0.18079300  1
  C  1153  1  0.24064200  0.72576050  0.15480350  1
  C  1160  1  0.26967100  0.66405050  0.35783500  1
  C  1161  1  0.26951400  0.69462600  0.38953900  1
  C  1162  1  0.24014600  0.72396950  0.39286550  1
  C  1163  1  0.21022800  0.72171150  0.36422850  1
  C  1164  1  0.21056200  0.69126450  0.33256850  1
  C  1165  1  0.24015400  0.66196800  0.32917550  1
  H  28  1  0.83993400  0.67138150  0.46379000  1
  H  29  1  0.84731800  0.61359500  0.45031750  1
  H  30  1  0.65079100  0.66725600  0.47082250  1
  H  31  1  0.65742400  0.60941500  0.45717600  1
  H  32  1  0.65734000  0.54986300  0.39529600  1
  H  33  1  0.65065400  0.53637450  0.33754950  1
  H  34  1  0.84038400  0.53657050  0.33126350  1
  H  35  1  0.84777000  0.54980700  0.38892900  1
  H  36  1  0.82448400  0.50212400  0.40830250  1
  H  37  1  0.90800100  0.48359700  0.42779550  1
  H  38  1  0.90960400  0.57812250  0.52001350  1
  H  39  1  0.82610500  0.59694150  0.50090550  1
  H  40  1  0.70078100  0.59274500  0.50452500  1
  H  41  1  0.69653900  0.50010750  0.40976950  1
  H  42  1  0.61947000  0.47935350  0.43115350  1
  H  43  1  0.62340200  0.57176250  0.52550150  1
  H  69  1  0.83947100  0.79900800  0.33394800  1
  H  70  1  0.84680500  0.84325900  0.39174650  1
  H  71  1  0.65036400  0.81030100  0.33807900  1
  H  72  1  0.65695500  0.85443850  0.39593950  1
  H  73  1  0.65672700  0.85207400  0.45556350  1
  H  74  1  0.64989600  0.80789900  0.46916050  1
  H  75  1  0.83962300  0.80133750  0.46890650  1
  H  76  1  0.84712900  0.84569100  0.45558400  1
  H  77  1  0.82392500  0.91275600  0.50323850  1
  H  78  1  0.90753100  0.95070550  0.52173600  1
  H  79  1  0.90943300  0.94835500  0.42719300  1
  H  80  1  0.82583900  0.91049700  0.40840600  1
  H  81  1  0.70040800  0.91841550  0.41265950  1
  H  82  1  0.69590200  0.91625900  0.50527300  1
  H  83  1  0.61883500  0.95839350  0.52603150  1
  H  84  1  0.62302800  0.96037200  0.43364450  1
  H  110  1  0.84057800  0.54147000  0.20613550  1
  H  111  1  0.84774700  0.55490700  0.16179800  1
  H  112  1  0.65133400  0.53501950  0.19559650  1
  H  113  1  0.65777200  0.54863050  0.15137550  1
  H  114  1  0.65715800  0.61017200  0.15287650  1
  H  115  1  0.64997700  0.66794900  0.19701600  1
  H  116  1  0.83962800  0.67432850  0.20433250  1
  H  117  1  0.84748600  0.61664900  0.16003650  1
  H  118  1  0.82510300  0.59747700  0.09299200  1
  H  119  1  0.90882000  0.57810350  0.05506800  1
  H  120  1  0.90992400  0.48555250  0.05673350  1
  H  121  1  0.82621100  0.50453800  0.09454500  1
  H  122  1  0.70080400  0.50098000  0.08738150  1
  H  123  1  0.69711000  0.59534600  0.08869200  1
  H  124  1  0.62010900  0.57382300  0.04656000  1
  H  125  1  0.62352500  0.47985050  0.04539950  1
  H  151  1  0.34016200  0.33664900  0.53875900  1
  H  152  1  0.34737500  0.39442200  0.55219300  1
  H  153  1  0.15092100  0.34086250  0.53240950  1
  H  154  1  0.15739100  0.39869300  0.54604750  1
  H  155  1  0.15711000  0.45857900  0.60772600  1
  H  156  1  0.15042000  0.47213850  0.66550750  1
  H  157  1  0.34014800  0.47132150  0.67147050  1
  H  158  1  0.34752400  0.45798700  0.61378500  1
  H  159  1  0.32464400  0.50587000  0.59467800  1
  H  160  1  0.40823600  0.52436350  0.57517150  1
  H  161  1  0.40921400  0.43008450  0.48268650  1
  H  162  1  0.32564000  0.41130050  0.50180950  1
  H  163  1  0.20025800  0.41511500  0.49842150  1
  H  164  1  0.19667600  0.50804000  0.59292000  1
  H  165  1  0.11960200  0.52876950  0.57154250  1
  H  166  1  0.12288200  0.43607600  0.47744850  1
  H  192  1  0.33962000  0.20879300  0.66873700  1
  H  193  1  0.34681000  0.16443750  0.61097100  1
  H  194  1  0.15039400  0.19818550  0.66470600  1
  H  195  1  0.15683200  0.15395750  0.60686600  1
  H  196  1  0.15664800  0.15581400  0.54697500  1
  H  197  1  0.15001000  0.20004800  0.53343950  1
  H  198  1  0.33973200  0.20678250  0.53414400  1
  H  199  1  0.34706400  0.16241800  0.54745150  1
  H  200  1  0.32420400  0.09543450  0.49959650  1
  H  201  1  0.40780400  0.05743950  0.48108750  1
  H  202  1  0.40867000  0.05925150  0.57537350  1
  H  203  1  0.32509200  0.09715750  0.59417550  1
  H  204  1  0.19964400  0.08990600  0.59034000  1
  H  205  1  0.19629200  0.09152850  0.49744100  1
  H  206  1  0.11928700  0.04938450  0.47667450  1
  H  207  1  0.12232800  0.04793900  0.56934450  1
  H  233  1  0.34060300  0.46670450  0.79662850  1
  H  234  1  0.34789800  0.45324450  0.84094050  1
  H  235  1  0.15138500  0.47325050  0.80743050  1
  H  236  1  0.15794000  0.45960050  0.85162550  1
  H  237  1  0.15742700  0.39800100  0.84997000  1
  H  238  1  0.15029900  0.34024450  0.80575650  1
  H  239  1  0.33995800  0.33387350  0.79828350  1
  H  240  1  0.34776700  0.39152950  0.84264000  1
  H  241  1  0.32536500  0.41055150  0.90969350  1
  H  242  1  0.40893000  0.42990150  0.94765850  1
  H  243  1  0.41005000  0.52252400  0.94613300  1
  H  244  1  0.32648200  0.50356550  0.90828100  1
  H  245  1  0.20112400  0.50718150  0.91559550  1
  H  246  1  0.19748200  0.41272550  0.91410800  1
  H  247  1  0.12049600  0.43421850  0.95631500  1
  H  248  1  0.12385100  0.52827150  0.95763850  1
  H  255  1  0.02560800  0.51044900  0.44737750  1
  H  257  1  0.00523500  0.50313550  0.55040950  1
  H  259  1  0.88220500  0.50349950  0.52364250  1
  H  260  1  0.14923600  0.50983900  0.47428900  1
  H  267  1  0.02524600  0.94345900  0.49491850  1
  H  269  1  0.00486300  0.05379350  0.50222900  1
  H  271  1  0.88185000  0.02660750  0.50178750  1
  H  272  1  0.14888000  0.97105550  0.49561200  1
  H  279  1  0.02620800  0.55834400  0.06210550  1
  H  281  1  0.00616000  0.45542450  0.95166950  1
  H  283  1  0.88302600  0.48226750  0.97875900  1
  H  284  1  0.14989800  0.53142000  0.03466750  1
  H  291  1  0.52563000  0.49730350  0.55529050  1
  H  293  1  0.50532000  0.50516800  0.45257400  1
  H  295  1  0.38229400  0.50494000  0.47946350  1
  H  296  1  0.64926600  0.49777550  0.52824950  1
  H  302  1  0.52518000  0.06461450  0.50811200  1
  H  304  1  0.50477800  0.95404000  0.50025800  1
  H  306  1  0.38177600  0.98116550  0.50051550  1
  H  307  1  0.64879200  0.03709750  0.50761550  1
  H  314  1  0.52635200  0.44973350  0.94077800  1
  H  316  1  0.50572500  0.55258650  0.05124550  1
  H  318  1  0.38271400  0.52570150  0.02401550  1
  H  319  1  0.64985600  0.47668200  0.96831650  1
  H  326  1  0.69170800  0.57785700  0.31506850  1
  H  328  1  0.79251300  0.48784950  0.21534750  1
  H  330  1  0.76893100  0.46328950  0.26598600  1
  H  331  1  0.71765100  0.60301500  0.26775800  1
  H  338  1  0.69068000  0.74389500  0.42780550  1
  H  340  1  0.79201300  0.73420100  0.51762300  1
  H  342  1  0.76846900  0.80942650  0.54219050  1
  H  343  1  0.71660700  0.67147900  0.40262550  1
  H  350  1  0.69002800  0.69062200  0.26122250  1
  H  352  1  0.79200700  0.79012150  0.27121950  1
  H  354  1  0.76891600  0.73948500  0.19590500  1
  H  355  1  0.71552100  0.73776100  0.33369900  1
  H  362  1  0.19143600  0.43041950  0.68792550  1
  H  364  1  0.29258600  0.52032350  0.78746300  1
  H  366  1  0.26893600  0.54489300  0.73684800  1
  H  367  1  0.21756100  0.40524750  0.73519300  1
  H  374  1  0.19095400  0.26414650  0.57512850  1
  H  376  1  0.29221200  0.27386850  0.48524450  1
  H  378  1  0.26861200  0.19867600  0.46063800  1
  H  379  1  0.21697800  0.33662150  0.60033950  1
  H  386  1  0.19055700  0.31765200  0.74148400  1
  H  388  1  0.29207600  0.21803150  0.73149500  1
  H  390  1  0.26905600  0.26869950  0.80678450  1
  H  391  1  0.21609900  0.27041350  0.66898850  1
  H  808  1  0.83993400  0.09661850  0.08798300  1
  H  809  1  0.84731800  0.03883200  0.07451020  1
  H  810  1  0.65079100  0.09249300  0.09501520  1
  H  811  1  0.65742400  0.03465200  0.08136870  1
  H  812  1  0.65734000  0.97509950  0.01948820  1
  H  813  1  0.65065400  0.96161100  0.96174170  1
  H  814  1  0.84038400  0.96180700  0.95545600  1
  H  815  1  0.84777000  0.97504350  0.01312120  1
  H  816  1  0.82448400  0.92736050  0.03249500  1
  H  817  1  0.90800100  0.90883350  0.05198800  1
  H  818  1  0.90960400  0.00335950  0.14420650  1
  H  819  1  0.82610500  0.02217850  0.12509850  1
  H  820  1  0.70078100  0.01798200  0.12871800  1
  H  821  1  0.69653900  0.92534400  0.03396200  1
  H  822  1  0.61947000  0.90459000  0.05534600  1
  H  823  1  0.62340200  0.99699904  0.14969404  1
  H  849  1  0.83947100  0.22424500  0.95814100  1
  H  850  1  0.84680500  0.26849600  0.01593950  1
  H  851  1  0.65036400  0.23553800  0.96227200  1
  H  852  1  0.65695500  0.27967550  0.02013250  1
  H  853  1  0.65672700  0.27731100  0.07975650  1
  H  854  1  0.64989600  0.23313600  0.09335350  1
  H  855  1  0.83962300  0.22657450  0.09309950  1
  H  856  1  0.84712900  0.27092800  0.07977700  1
  H  857  1  0.82392500  0.33799300  0.12743150  1
  H  858  1  0.90753100  0.37594250  0.14592900  1
  H  859  1  0.90943300  0.37359200  0.05138600  1
  H  860  1  0.82583900  0.33573400  0.03259900  1
  H  861  1  0.70040800  0.34365250  0.03685250  1
  H  862  1  0.69590200  0.34149600  0.12946600  1
  H  863  1  0.61883500  0.38363050  0.15022450  1
  H  864  1  0.62302800  0.38560900  0.05783750  1
  H  890  1  0.84057800  0.96670650  0.83032800  1
  H  891  1  0.84774700  0.98014350  0.78599050  1
  H  892  1  0.65133400  0.96025600  0.81978900  1
  H  893  1  0.65777200  0.97386700  0.77556800  1
  H  894  1  0.65715800  0.03540900  0.77706950  1
  H  895  1  0.64997700  0.09318600  0.82120900  1
  H  896  1  0.83962800  0.09956550  0.82852550  1
  H  897  1  0.84748600  0.04188600  0.78422950  1
  H  898  1  0.82510300  0.02271400  0.71718500  1
  H  899  1  0.90882000  0.00334050  0.67926100  1
  H  900  1  0.90992400  0.91078900  0.68092600  1
  H  901  1  0.82621100  0.92977450  0.71873750  1
  H  902  1  0.70080400  0.92621650  0.71157400  1
  H  903  1  0.69711000  0.02058300  0.71288500  1
  H  904  1  0.62010900  0.99905954  0.67075254  1
  H  905  1  0.62352500  0.90508700  0.66959200  1
  H  931  1  0.34016200  0.76188600  0.16295200  1
  H  932  1  0.34737500  0.81965900  0.17638600  1
  H  933  1  0.15092100  0.76609950  0.15660250  1
  H  934  1  0.15739100  0.82393000  0.17024050  1
  H  935  1  0.15711000  0.88381600  0.23191900  1
  H  936  1  0.15042000  0.89737550  0.28970050  1
  H  937  1  0.34014800  0.89655850  0.29566350  1
  H  938  1  0.34752400  0.88322400  0.23797800  1
  H  939  1  0.32464400  0.93110650  0.21887050  1
  H  940  1  0.40823600  0.94960000  0.19936400  1
  H  941  1  0.40921400  0.85532150  0.10687950  1
  H  942  1  0.32564000  0.83653750  0.12600250  1
  H  943  1  0.20025800  0.84035200  0.12261450  1
  H  944  1  0.19667600  0.93327650  0.21711250  1
  H  945  1  0.11960200  0.95400600  0.19573500  1
  H  946  1  0.12288200  0.86131300  0.10164150  1
  H  972  1  0.33962000  0.63403000  0.29293000  1
  H  973  1  0.34681000  0.58967450  0.23516400  1
  H  974  1  0.15039400  0.62342250  0.28889900  1
  H  975  1  0.15683200  0.57919450  0.23105900  1
  H  976  1  0.15664800  0.58105100  0.17116800  1
  H  977  1  0.15001000  0.62528500  0.15763250  1
  H  978  1  0.33973200  0.63201950  0.15833700  1
  H  979  1  0.34706400  0.58765500  0.17164450  1
  H  980  1  0.32420400  0.52067150  0.12378950  1
  H  981  1  0.40780400  0.48267650  0.10528050  1
  H  982  1  0.40867000  0.48448850  0.19956650  1
  H  983  1  0.32509200  0.52239450  0.21836850  1
  H  984  1  0.19964400  0.51514300  0.21453300  1
  H  985  1  0.19629200  0.51676550  0.12163400  1
  H  986  1  0.11928700  0.47462150  0.10086750  1
  H  987  1  0.12232800  0.47317600  0.19353750  1
  H  1013  1  0.34060300  0.89194150  0.42082150  1
  H  1014  1  0.34789800  0.87848150  0.46513350  1
  H  1015  1  0.15138500  0.89848750  0.43162350  1
  H  1016  1  0.15794000  0.88483750  0.47581850  1
  H  1017  1  0.15742700  0.82323800  0.47416300  1
  H  1018  1  0.15029900  0.76548150  0.42994950  1
  H  1019  1  0.33995800  0.75911050  0.42247650  1
  H  1020  1  0.34776700  0.81676650  0.46683300  1
  H  1021  1  0.32536500  0.83578850  0.53388650  1
  H  1022  1  0.40893000  0.85513850  0.57185150  1
  H  1023  1  0.41005000  0.94776050  0.57032550  1
  H  1024  1  0.32648200  0.92880200  0.53247350  1
  H  1025  1  0.20112400  0.93241800  0.53978800  1
  H  1026  1  0.19748200  0.83796250  0.53830100  1
  H  1027  1  0.12049600  0.85945550  0.58050800  1
  H  1028  1  0.12385100  0.95350800  0.58183100  1
  H  1035  1  0.02560800  0.93568550  0.07157000  1
  H  1037  1  0.00523500  0.92837200  0.17460200  1
  H  1039  1  0.88220500  0.92873600  0.14783500  1
  H  1040  1  0.14923600  0.93507550  0.09848150  1
  H  1047  1  0.02524600  0.36869600  0.11911150  1
  H  1049  1  0.00486300  0.47903050  0.12642200  1
  H  1051  1  0.88185000  0.45184450  0.12598050  1
  H  1052  1  0.14888000  0.39629250  0.11980500  1
  H  1059  1  0.02620800  0.98358050  0.68629800  1
  H  1061  1  0.00616000  0.88066150  0.57586250  1
  H  1063  1  0.88302600  0.90750400  0.60295150  1
  H  1064  1  0.14989800  0.95665650  0.65886000  1
  H  1071  1  0.52563000  0.92254000  0.17948300  1
  H  1073  1  0.50532000  0.93040450  0.07676650  1
  H  1075  1  0.38229400  0.93017650  0.10365600  1
  H  1076  1  0.64926600  0.92301200  0.15244200  1
  H  1082  1  0.52518000  0.48985150  0.13230500  1
  H  1084  1  0.50477800  0.37927700  0.12445100  1
  H  1086  1  0.38177600  0.40640250  0.12470850  1
  H  1087  1  0.64879200  0.46233450  0.13180850  1
  H  1094  1  0.52635200  0.87497050  0.56497100  1
  H  1096  1  0.50572500  0.97782300  0.67543800  1
  H  1098  1  0.38271400  0.95093800  0.64820800  1
  H  1099  1  0.64985600  0.90191850  0.59250900  1
  H  1106  1  0.69170800  0.00309400  0.93926150  1
  H  1108  1  0.79251300  0.91308600  0.83954000  1
  H  1110  1  0.76893100  0.88852650  0.89017870  1
  H  1111  1  0.71765100  0.02825200  0.89195100  1
  H  1118  1  0.69068000  0.16913200  0.05199850  1
  H  1120  1  0.79201300  0.15943800  0.14181600  1
  H  1122  1  0.76846900  0.23466350  0.16638350  1
  H  1123  1  0.71660700  0.09671600  0.02681850  1
  H  1130  1  0.69002800  0.11585900  0.88541550  1
  H  1132  1  0.79200700  0.21535850  0.89541250  1
  H  1134  1  0.76891600  0.16472200  0.82009800  1
  H  1135  1  0.71552100  0.16299800  0.95789200  1
  H  1142  1  0.19143600  0.85565650  0.31211850  1
  H  1144  1  0.29258600  0.94556000  0.41165550  1
  H  1146  1  0.26893600  0.97012950  0.36104050  1
  H  1147  1  0.21756100  0.83048450  0.35938600  1
  H  1154  1  0.19095400  0.68938350  0.19932150  1
  H  1156  1  0.29221200  0.69910550  0.10943750  1
  H  1158  1  0.26861200  0.62391300  0.08483100  1
  H  1159  1  0.21697800  0.76185850  0.22453250  1
  H  1166  1  0.19055700  0.74288900  0.36567700  1
  H  1168  1  0.29207600  0.64326850  0.35568800  1
  H  1170  1  0.26905600  0.69393650  0.43097750  1
  H  1171  1  0.21609900  0.69565050  0.29318150  1
  O  256  1  0.90848200  0.52360000  0.53558700  1
  O  258  1  0.12250800  0.48996400  0.46222750  1
  O  268  1  0.90819400  0.01845350  0.48169750  1
  O  270  1  0.12207200  0.97884900  0.51546950  1
  O  280  1  0.90925800  0.47025450  0.98686050  1
  O  282  1  0.12325200  0.54349500  0.02682700  1
  O  292  1  0.40845800  0.48479100  0.46741350  1
  O  294  1  0.62264700  0.51769750  0.54041850  1
  O  303  1  0.40791700  0.98926450  0.52065800  1
  O  305  1  0.62219700  0.02934350  0.48769850  1
  O  315  1  0.40901200  0.53774350  0.01596600  1
  O  317  1  0.62320400  0.46459450  0.97614850  1
  O  327  1  0.79991600  0.47946900  0.26733400  1
  O  329  1  0.68519200  0.58659950  0.26372750  1
  O  339  1  0.79936900  0.79454700  0.52595600  1
  O  341  1  0.68420600  0.68383400  0.41911450  1
  O  351  1  0.79963900  0.73815150  0.21086250  1
  O  353  1  0.68329700  0.74195250  0.32130850  1
  O  363  1  0.29988600  0.52867000  0.73544500  1
  O  365  1  0.18509200  0.42167550  0.73926750  1
  O  375  1  0.29954300  0.21349450  0.47685950  1
  O  377  1  0.18456000  0.32424450  0.58390000  1
  O  387  1  0.29981800  0.27002950  0.79182550  1
  O  389  1  0.18378000  0.26632050  0.68141700  1
  O  1036  1  0.90848200  0.94883650  0.15977950  1
  O  1038  1  0.12250800  0.91520050  0.08642000  1
  O  1048  1  0.90819400  0.44369050  0.10589050  1
  O  1050  1  0.12207200  0.40408600  0.13966250  1
  O  1060  1  0.90925800  0.89549150  0.61105350  1
  O  1062  1  0.12325200  0.96873150  0.65101950  1
  O  1072  1  0.40845800  0.91002750  0.09160600  1
  O  1074  1  0.62264700  0.94293400  0.16461100  1
  O  1083  1  0.40791700  0.41450150  0.14485100  1
  O  1085  1  0.62219700  0.45458050  0.11189150  1
  O  1095  1  0.40901200  0.96298000  0.64015850  1
  O  1097  1  0.62320400  0.88983150  0.60034150  1
  O  1107  1  0.79991600  0.90470550  0.89152650  1
  O  1109  1  0.68519200  0.01183650  0.88792050  1
  O  1119  1  0.79936900  0.21978400  0.15014900  1
  O  1121  1  0.68420600  0.10907100  0.04330750  1
  O  1131  1  0.79963900  0.16338850  0.83505550  1
  O  1133  1  0.68329700  0.16718950  0.94550150  1
  O  1143  1  0.29988600  0.95390650  0.35963750  1
  O  1145  1  0.18509200  0.84691250  0.36346050  1
  O  1155  1  0.29954300  0.63873150  0.10105250  1
  O  1157  1  0.18456000  0.74948150  0.20809300  1
  O  1167  1  0.29981800  0.69526650  0.41601850  1
  O  1169  1  0.18378000  0.69155750  0.30561000  1
  Si  9  1  0.75764700  0.56415900  0.43946150  1
  Si  50  1  0.75713300  0.88190250  0.44121750  1
  Si  91  1  0.75784200  0.56602800  0.12348200  1
  Si  132  1  0.25749400  0.44392050  0.56338750  1
  Si  173  1  0.25698800  0.12609850  0.56156350  1
  Si  214  1  0.25812800  0.44211550  0.87933150  1
  Si  789  1  0.75764700  0.98939550  0.06365370  1
  Si  830  1  0.75713300  0.30713950  0.06541050  1
  Si  871  1  0.75784200  0.99126454  0.74767454  1
  Si  912  1  0.25749400  0.86915750  0.18758050  1
  Si  953  1  0.25698800  0.55133550  0.18575650  1
  Si  994  1  0.25812800  0.86735250  0.50352450  1
