# generated using pymatgen
data_H23C40(NO)4
_symmetry_space_group_name_H-M   'P 1'
_cell_length_a   59.88400000
_cell_length_b   59.88400000
_cell_length_c   59.88400000
_cell_angle_alpha   90.00000000
_cell_angle_beta   90.00000000
_cell_angle_gamma   90.00000000
_symmetry_Int_Tables_number   1
_chemical_formula_structural   H23C40(NO)4
_chemical_formula_sum   'H552 C960 N96 O96'
_cell_volume   214749.62051910
_cell_formula_units_Z   24
loop_
 _symmetry_equiv_pos_site_id
 _symmetry_equiv_pos_as_xyz
  1  'x, y, z'
loop_
 _atom_site_type_symbol
 _atom_site_label
 _atom_site_symmetry_multiplicity
 _atom_site_fract_x
 _atom_site_fract_y
 _atom_site_fract_z
 _atom_site_occupancy
  H  73  1  0.98559400  0.30796400  0.47894800  1
  H  74  1  0.98588300  0.34787300  0.47859200  1
  H  75  1  0.02859000  0.30803900  0.53473900  1
  H  76  1  0.02843900  0.34794600  0.53488200  1
  H  77  1  0.04192200  0.38032500  0.51294800  1
  H  78  1  0.04184200  0.42022100  0.51321200  1
  H  79  1  0.97248200  0.38038000  0.50041700  1
  H  80  1  0.97260400  0.42027600  0.50027400  1
  H  81  1  0.00818800  0.43205900  0.46193500  1
  H  82  1  0.00797800  0.46197500  0.43206000  1
  H  83  1  0.00661300  0.49281800  0.49285100  1
  H  84  1  0.00660600  0.52049600  0.52046600  1
  H  85  1  0.00657900  0.43135600  0.55195400  1
  H  86  1  0.00674500  0.46135700  0.58193300  1
  H  87  1  0.04188400  0.51199100  0.59300000  1
  H  88  1  0.04194000  0.51193100  0.63290000  1
  H  89  1  0.97228600  0.50112700  0.59297500  1
  H  90  1  0.97215600  0.50146900  0.63287000  1
  H  91  1  0.00780900  0.55135100  0.58125000  1
  H  92  1  0.00809300  0.58124700  0.55139800  1
  H  93  1  0.00629400  0.55191900  0.43137900  1
  H  94  1  0.00607300  0.58194000  0.46133700  1
  H  95  1  0.97277600  0.59304300  0.51451100  1
  H  96  1  0.97265400  0.63296400  0.51456600  1
  H  97  1  0.04141300  0.59318300  0.49865700  1
  H  98  1  0.04144600  0.63310100  0.49891300  1
  H  99  1  0.02597600  0.66542100  0.47707400  1
  H  100  1  0.02606100  0.70536000  0.47731300  1
  H  101  1  0.98780500  0.70518800  0.53646500  1
  H  102  1  0.98802000  0.66524800  0.53655400  1
  H  103  1  0.04216300  0.50316800  0.42038800  1
  H  104  1  0.04227300  0.50341200  0.38050200  1
  H  105  1  0.98308600  0.53258500  0.34802300  1
  H  106  1  0.98286300  0.53236800  0.30815100  1
  H  107  1  0.03146800  0.48138900  0.30804100  1
  H  108  1  0.03124500  0.48100300  0.34791800  1
  H  109  1  0.97201400  0.51005100  0.38047400  1
  H  110  1  0.97209600  0.51036700  0.42035800  1
  H  111  1  0.98495200  0.47924100  0.66534100  1
  H  112  1  0.98468500  0.47958500  0.70524800  1
  H  113  1  0.02908600  0.53430600  0.66527400  1
  H  114  1  0.02925000  0.53413600  0.70518500  1
  H  187  1  0.47884100  0.98572700  0.30796700  1
  H  188  1  0.47848500  0.98602100  0.34788100  1
  H  189  1  0.53500600  0.02823700  0.30804700  1
  H  190  1  0.53513000  0.02810100  0.34795800  1
  H  191  1  0.51319000  0.04180500  0.38030500  1
  H  192  1  0.51342800  0.04174800  0.42020400  1
  H  193  1  0.50028400  0.97243700  0.38039200  1
  H  194  1  0.50013500  0.97257700  0.42029100  1
  H  195  1  0.46196800  0.00815700  0.43206500  1
  H  196  1  0.43209500  0.00797000  0.46198100  1
  H  197  1  0.49288500  0.00658300  0.49282300  1
  H  198  1  0.52049800  0.00665400  0.52050500  1
  H  199  1  0.55199200  0.00649400  0.43136600  1
  H  200  1  0.58196700  0.00669100  0.46136900  1
  H  201  1  0.59303000  0.04188900  0.51197000  1
  H  202  1  0.63293000  0.04194500  0.51190800  1
  H  203  1  0.59300600  0.97228100  0.50116600  1
  H  204  1  0.63290200  0.97215100  0.50151000  1
  H  205  1  0.58128400  0.00781300  0.55135900  1
  H  206  1  0.55142900  0.00811900  0.58125500  1
  H  207  1  0.43141200  0.00635700  0.55192700  1
  H  208  1  0.46137000  0.00616000  0.58194800  1
  H  209  1  0.51447800  0.97282200  0.59306500  1
  H  210  1  0.51454800  0.97272100  0.63298500  1
  H  211  1  0.49876600  0.04149200  0.59317700  1
  H  212  1  0.49904500  0.04154700  0.63309400  1
  H  213  1  0.47721800  0.02619500  0.66544300  1
  H  214  1  0.47747600  0.02629300  0.70538200  1
  H  215  1  0.53647500  0.98780500  0.70519300  1
  H  216  1  0.53655200  0.98801200  0.66525400  1
  H  217  1  0.42041800  0.04216500  0.50313800  1
  H  218  1  0.38053200  0.04227000  0.50338000  1
  H  219  1  0.34805800  0.98310700  0.53261300  1
  H  220  1  0.30818600  0.98287800  0.53239400  1
  H  221  1  0.30807100  0.03143700  0.48137400  1
  H  222  1  0.34794600  0.03122000  0.48098800  1
  H  223  1  0.38051100  0.97201900  0.51009300  1
  H  224  1  0.42039300  0.97210600  0.51041000  1
  H  225  1  0.66537000  0.98492600  0.47927200  1
  H  226  1  0.70527700  0.98466000  0.47961200  1
  H  227  1  0.66531000  0.02911500  0.53429100  1
  H  228  1  0.70521800  0.02928000  0.53411800  1
  H  301  1  0.30797900  0.47900100  0.98546200  1
  H  302  1  0.34789100  0.47863700  0.98574400  1
  H  303  1  0.30807700  0.53482200  0.02842100  1
  H  304  1  0.34798800  0.53494600  0.02827200  1
  H  305  1  0.38033200  0.51289700  0.04179700  1
  H  306  1  0.42022900  0.51311500  0.04174000  1
  H  307  1  0.38041000  0.50053300  0.97233000  1
  H  308  1  0.42030900  0.50036900  0.97246700  1
  H  309  1  0.43207200  0.46191500  0.00744800  1
  H  310  1  0.46196500  0.43204000  0.00721900  1
  H  311  1  0.49284600  0.49282600  0.00702700  1
  H  312  1  0.52050300  0.52046000  0.00667800  1
  H  313  1  0.43137100  0.55193700  0.00666400  1
  H  314  1  0.46136500  0.58192300  0.00683600  1
  H  315  1  0.51207000  0.59300300  0.04183300  1
  H  316  1  0.51200300  0.63290200  0.04189800  1
  H  317  1  0.50105900  0.59299100  0.97226100  1
  H  318  1  0.50140100  0.63288700  0.97213600  1
  H  319  1  0.55136100  0.58125000  0.00761600  1
  H  320  1  0.58125500  0.55139600  0.00793000  1
  H  321  1  0.55197500  0.43136900  0.00687300  1
  H  322  1  0.58196500  0.46133900  0.00661300  1
  H  323  1  0.59306300  0.51426800  0.97278400  1
  H  324  1  0.63298200  0.51435800  0.97268900  1
  H  325  1  0.59316800  0.49892800  0.04153700  1
  H  326  1  0.63308600  0.49922000  0.04159700  1
  H  327  1  0.66544300  0.47732100  0.02635700  1
  H  328  1  0.70538200  0.47758500  0.02645100  1
  H  329  1  0.70518500  0.53637900  0.98764800  1
  H  330  1  0.66524400  0.53645400  0.98786000  1
  H  331  1  0.50081700  0.42030400  0.04182500  1
  H  332  1  0.50095200  0.38040400  0.04193800  1
  H  333  1  0.53464700  0.34798300  0.98553500  1
  H  334  1  0.53445800  0.30807600  0.98533300  1
  H  335  1  0.47920000  0.30800400  0.02901400  1
  H  336  1  0.47888700  0.34791400  0.02878400  1
  H  337  1  0.51249100  0.38035700  0.97232600  1
  H  338  1  0.51274100  0.42025200  0.97240300  1
  H  339  1  0.47923000  0.66536600  0.98494400  1
  H  340  1  0.47957400  0.70527200  0.98468000  1
  H  341  1  0.53431500  0.66529800  0.02905000  1
  H  342  1  0.53414300  0.70520700  0.02921900  1
  H  415  1  0.49529100  0.80830400  0.97350200  1
  H  416  1  0.49542300  0.84820100  0.97339300  1
  H  417  1  0.51886800  0.80841000  0.03994800  1
  H  418  1  0.51892800  0.84830300  0.03986200  1
  H  419  1  0.54074500  0.88002500  0.01760900  1
  H  420  1  0.54085900  0.92000900  0.01741600  1
  H  421  1  0.47376300  0.88015700  0.99553600  1
  H  422  1  0.47377100  0.92014200  0.99584000  1
  H  423  1  0.50777800  0.93207900  0.96175400  1
  H  424  1  0.50709000  0.96188500  0.93197500  1
  H  425  1  0.50713200  0.99280600  0.99274400  1
  H  426  1  0.50718900  0.02043700  0.02042300  1
  H  427  1  0.50694800  0.93133700  0.05189700  1
  H  428  1  0.50751600  0.96121000  0.08181600  1
  H  429  1  0.54076500  0.01727700  0.09311600  1
  H  430  1  0.54070200  0.01767500  0.13310300  1
  H  431  1  0.47367600  0.99570800  0.09318100  1
  H  432  1  0.47372100  0.99559600  0.13316300  1
  H  433  1  0.50698200  0.05136300  0.08118900  1
  H  434  1  0.50759000  0.08116600  0.05141800  1
  H  435  1  0.50727400  0.05203500  0.93135200  1
  H  436  1  0.50670300  0.08190800  0.96127500  1
  H  437  1  0.47364700  0.09307200  0.01741900  1
  H  438  1  0.47365100  0.13305600  0.01787200  1
  H  439  1  0.54069400  0.09327000  0.99571300  1
  H  440  1  0.54059000  0.13325300  0.99567000  1
  H  441  1  0.51882600  0.16511400  0.97364900  1
  H  442  1  0.51880800  0.20500000  0.97377800  1
  H  443  1  0.49517700  0.20477300  0.04020500  1
  H  444  1  0.49530400  0.16488300  0.04011000  1
  H  445  1  0.54076400  0.99624800  0.92003700  1
  H  446  1  0.54071200  0.99595900  0.88004600  1
  H  447  1  0.49536300  0.04001000  0.84827500  1
  H  448  1  0.49538100  0.04009100  0.80835400  1
  H  449  1  0.51890800  0.97363400  0.80822400  1
  H  450  1  0.51894000  0.97356200  0.84814600  1
  H  451  1  0.47356600  0.01751900  0.88002500  1
  H  452  1  0.47351200  0.01730500  0.92001400  1
  H  453  1  0.49548600  0.97345500  0.16503500  1
  H  454  1  0.49540300  0.97355500  0.20492500  1
  H  455  1  0.51894000  0.03994100  0.16491200  1
  H  456  1  0.51894500  0.04001300  0.20480600  1
  H  529  1  0.97351400  0.49531100  0.80826600  1
  H  530  1  0.97340500  0.49544600  0.84816300  1
  H  531  1  0.03997000  0.51886100  0.80836800  1
  H  532  1  0.03988700  0.51892200  0.84826200  1
  H  533  1  0.01765000  0.54075000  0.87997300  1
  H  534  1  0.01745900  0.54086600  0.91995700  1
  H  535  1  0.99553500  0.47377900  0.88011000  1
  H  536  1  0.99583500  0.47379100  0.92009500  1
  H  537  1  0.96177600  0.50787700  0.93200300  1
  H  538  1  0.93198700  0.50718600  0.96179900  1
  H  539  1  0.99274800  0.50708200  0.99273900  1
  H  540  1  0.02043200  0.50713900  0.02036200  1
  H  541  1  0.05191200  0.50686800  0.93127900  1
  H  542  1  0.08183300  0.50744800  0.96114800  1
  H  543  1  0.09313400  0.54083200  0.01713200  1
  H  544  1  0.13312100  0.54076200  0.01753900  1
  H  545  1  0.09319400  0.47368700  0.99573700  1
  H  546  1  0.13317700  0.47372800  0.99563100  1
  H  547  1  0.08119100  0.50717900  0.05130800  1
  H  548  1  0.05140500  0.50779500  0.08109800  1
  H  549  1  0.93134900  0.50716700  0.05195600  1
  H  550  1  0.96127500  0.50662100  0.08182600  1
  H  551  1  0.01744700  0.47371100  0.09298800  1
  H  552  1  0.01788100  0.47372100  0.13296700  1
  H  553  1  0.99567800  0.54073700  0.09316200  1
  H  554  1  0.99564700  0.54065500  0.13313900  1
  H  555  1  0.97376900  0.51924700  0.16503200  1
  H  556  1  0.97391300  0.51928900  0.20489400  1
  H  557  1  0.04005300  0.49485300  0.20467400  1
  H  558  1  0.03997800  0.49503000  0.16480700  1
  H  559  1  0.92002700  0.54077900  0.99622900  1
  H  560  1  0.88003600  0.54072400  0.99595400  1
  H  561  1  0.84828700  0.49532100  0.03994300  1
  H  562  1  0.80836400  0.49533900  0.04004200  1
  H  563  1  0.80820400  0.51894500  0.97361400  1
  H  564  1  0.84813000  0.51897800  0.97352400  1
  H  565  1  0.88002800  0.47354000  0.01739800  1
  H  566  1  0.92001500  0.47348900  0.01716800  1
  H  567  1  0.16505000  0.49544100  0.97344200  1
  H  568  1  0.20494000  0.49534900  0.97354400  1
  H  569  1  0.16492700  0.51902500  0.03988000  1
  H  570  1  0.20482100  0.51902300  0.03995500  1
  H  643  1  0.80829400  0.97352400  0.49529400  1
  H  644  1  0.84819100  0.97341900  0.49542100  1
  H  645  1  0.80839800  0.03997500  0.51886100  1
  H  646  1  0.84829200  0.03989400  0.51891300  1
  H  647  1  0.88001100  0.01765100  0.54072900  1
  H  648  1  0.91999500  0.01745700  0.54083400  1
  H  649  1  0.88012800  0.99555500  0.47375100  1
  H  650  1  0.92011500  0.99585200  0.47375400  1
  H  651  1  0.93201800  0.96177800  0.50780700  1
  H  652  1  0.96180400  0.93198000  0.50710700  1
  H  653  1  0.99276300  0.99273100  0.50705500  1
  H  654  1  0.02039800  0.02040200  0.50710400  1
  H  655  1  0.93132400  0.05191400  0.50684000  1
  H  656  1  0.96120500  0.08182500  0.50740800  1
  H  657  1  0.01719900  0.09311100  0.54077400  1
  H  658  1  0.01762200  0.13309800  0.54069200  1
  H  659  1  0.99579300  0.09315800  0.47363200  1
  H  660  1  0.99570800  0.13314100  0.47365700  1
  H  661  1  0.05136300  0.08115000  0.50711000  1
  H  662  1  0.08114400  0.05135600  0.50773200  1
  H  663  1  0.05195800  0.93130900  0.50713500  1
  H  664  1  0.08184200  0.96122300  0.50659100  1
  H  665  1  0.09302700  0.01739100  0.47366400  1
  H  666  1  0.13300500  0.01783100  0.47368200  1
  H  667  1  0.09318900  0.99563500  0.54069400  1
  H  668  1  0.13316600  0.99560800  0.54062000  1
  H  669  1  0.16506800  0.97372400  0.51922000  1
  H  670  1  0.20493100  0.97387400  0.51927100  1
  H  671  1  0.20470200  0.04001900  0.49484300  1
  H  672  1  0.16483700  0.03993600  0.49501200  1
  H  673  1  0.99621800  0.92000000  0.54071200  1
  H  674  1  0.99591200  0.88001000  0.54064000  1
  H  675  1  0.03989800  0.84825300  0.49524600  1
  H  676  1  0.03997300  0.80833100  0.49525600  1
  H  677  1  0.97352900  0.80820400  0.51881600  1
  H  678  1  0.97346500  0.84813000  0.51886500  1
  H  679  1  0.01737300  0.88001600  0.47346200  1
  H  680  1  0.01717200  0.92000400  0.47342900  1
  H  681  1  0.97355200  0.16503300  0.49532900  1
  H  682  1  0.97367200  0.20492100  0.49523100  1
  H  683  1  0.03996700  0.16488500  0.51897700  1
  H  684  1  0.04005700  0.20477600  0.51897700  1
  H  690  1  0.03765800  0.52418500  0.23653400  1
  H  692  1  0.97645300  0.48982000  0.23658200  1
  H  704  1  0.97720900  0.52586700  0.77656800  1
  H  706  1  0.03642800  0.48817200  0.77678200  1
  H  718  1  0.23655400  0.03762700  0.52418300  1
  H  720  1  0.23662700  0.97643400  0.48979700  1
  H  732  1  0.77660300  0.97721400  0.52586200  1
  H  734  1  0.77681000  0.03643400  0.48816900  1
  H  746  1  0.52536400  0.23654700  0.03693300  1
  H  748  1  0.48849100  0.23660400  0.97719900  1
  H  760  1  0.52585300  0.77660300  0.97718900  1
  H  762  1  0.48817400  0.77681200  0.03641600  1
  H  774  1  0.52729800  0.03562800  0.77677800  1
  H  776  1  0.48690800  0.97821800  0.77674200  1
  H  788  1  0.52570800  0.97708200  0.23664900  1
  H  790  1  0.48852400  0.03662400  0.23644200  1
  H  802  1  0.03683000  0.23642400  0.48862800  1
  H  804  1  0.97706400  0.23665100  0.52544700  1
  H  816  1  0.97815300  0.77672700  0.48673800  1
  H  818  1  0.03546200  0.77676700  0.52726800  1
  H  830  1  0.23667100  0.52564300  0.97700200  1
  H  832  1  0.23645500  0.48860100  0.03663100  1
  H  844  1  0.77678800  0.52726100  0.03563000  1
  H  846  1  0.77672300  0.48695000  0.97816600  1
  H  925  1  0.10248700  0.42485700  0.62923900  1
  H  926  1  0.10277600  0.46476600  0.62888300  1
  H  927  1  0.14548300  0.42493200  0.68503000  1
  H  928  1  0.14533200  0.46483900  0.68517300  1
  H  929  1  0.15881500  0.49721800  0.66323900  1
  H  930  1  0.15873500  0.53711400  0.66350300  1
  H  931  1  0.08937470  0.49727300  0.65070800  1
  H  932  1  0.08949670  0.53716900  0.65056500  1
  H  933  1  0.12508100  0.54895200  0.61222600  1
  H  934  1  0.12487100  0.57886800  0.58235100  1
  H  935  1  0.12350600  0.60971100  0.64314200  1
  H  936  1  0.12349900  0.63738900  0.67075700  1
  H  937  1  0.12347200  0.54824900  0.70224500  1
  H  938  1  0.12363800  0.57825000  0.73222400  1
  H  939  1  0.15877700  0.62888400  0.74329100  1
  H  940  1  0.15883300  0.62882400  0.78319100  1
  H  941  1  0.08917870  0.61802000  0.74326600  1
  H  942  1  0.08904870  0.61836200  0.78316100  1
  H  943  1  0.12470200  0.66824400  0.73154100  1
  H  944  1  0.12498600  0.69814000  0.70168900  1
  H  945  1  0.12318700  0.66881200  0.58167000  1
  H  946  1  0.12296600  0.69883300  0.61162800  1
  H  947  1  0.08966870  0.70993600  0.66480200  1
  H  948  1  0.08954670  0.74985700  0.66485700  1
  H  949  1  0.15830600  0.71007600  0.64894800  1
  H  950  1  0.15833900  0.74999400  0.64920400  1
  H  951  1  0.14286900  0.78231400  0.62736500  1
  H  952  1  0.14295400  0.82225300  0.62760400  1
  H  953  1  0.10469800  0.82208100  0.68675600  1
  H  954  1  0.10491300  0.78214100  0.68684500  1
  H  955  1  0.15905600  0.62006100  0.57067900  1
  H  956  1  0.15916600  0.62030500  0.53079300  1
  H  957  1  0.09997870  0.64947800  0.49831400  1
  H  958  1  0.09975570  0.64926100  0.45844200  1
  H  959  1  0.14836100  0.59828200  0.45833200  1
  H  960  1  0.14813800  0.59789600  0.49820900  1
  H  961  1  0.08890670  0.62694400  0.53076500  1
  H  962  1  0.08898870  0.62726000  0.57064900  1
  H  963  1  0.10184500  0.59613400  0.81563200  1
  H  964  1  0.10157800  0.59647800  0.85553900  1
  H  965  1  0.14597900  0.65119900  0.81556500  1
  H  966  1  0.14614300  0.65102900  0.85547600  1
  H  1039  1  0.59573400  0.10262000  0.45825800  1
  H  1040  1  0.59537800  0.10291400  0.49817200  1
  H  1041  1  0.65189900  0.14513000  0.45833800  1
  H  1042  1  0.65202300  0.14499400  0.49824900  1
  H  1043  1  0.63008300  0.15869800  0.53059600  1
  H  1044  1  0.63032100  0.15864100  0.57049500  1
  H  1045  1  0.61717700  0.08932970  0.53068300  1
  H  1046  1  0.61702800  0.08946970  0.57058200  1
  H  1047  1  0.57886100  0.12505000  0.58235600  1
  H  1048  1  0.54898800  0.12486300  0.61227200  1
  H  1049  1  0.60977800  0.12347600  0.64311400  1
  H  1050  1  0.63739100  0.12354700  0.67079600  1
  H  1051  1  0.66888500  0.12338700  0.58165700  1
  H  1052  1  0.69886000  0.12358400  0.61166000  1
  H  1053  1  0.70992300  0.15878200  0.66226100  1
  H  1054  1  0.74982300  0.15883800  0.66219900  1
  H  1055  1  0.70989900  0.08917370  0.65145700  1
  H  1056  1  0.74979500  0.08904370  0.65180100  1
  H  1057  1  0.69817700  0.12470600  0.70165000  1
  H  1058  1  0.66832200  0.12501200  0.73154600  1
  H  1059  1  0.54830500  0.12325000  0.70221800  1
  H  1060  1  0.57826300  0.12305300  0.73223900  1
  H  1061  1  0.63137100  0.08971470  0.74335600  1
  H  1062  1  0.63144100  0.08961370  0.78327600  1
  H  1063  1  0.61565900  0.15838500  0.74346800  1
  H  1064  1  0.61593800  0.15844000  0.78338500  1
  H  1065  1  0.59411100  0.14308800  0.81573400  1
  H  1066  1  0.59436900  0.14318600  0.85567300  1
  H  1067  1  0.65336800  0.10469800  0.85548400  1
  H  1068  1  0.65344500  0.10490500  0.81554500  1
  H  1069  1  0.53731100  0.15905800  0.65342900  1
  H  1070  1  0.49742500  0.15916300  0.65367100  1
  H  1071  1  0.46495100  0.09999970  0.68290400  1
  H  1072  1  0.42507900  0.09977070  0.68268500  1
  H  1073  1  0.42496400  0.14833000  0.63166500  1
  H  1074  1  0.46483900  0.14811300  0.63127900  1
  H  1075  1  0.49740400  0.08891170  0.66038400  1
  H  1076  1  0.53728600  0.08899870  0.66070100  1
  H  1077  1  0.78226300  0.10181900  0.62956300  1
  H  1078  1  0.82217000  0.10155300  0.62990300  1
  H  1079  1  0.78220300  0.14600800  0.68458200  1
  H  1080  1  0.82211100  0.14617300  0.68440900  1
  H  1153  1  0.42487200  0.59589400  0.13575300  1
  H  1154  1  0.46478400  0.59553000  0.13603500  1
  H  1155  1  0.42497000  0.65171500  0.17871200  1
  H  1156  1  0.46488100  0.65183900  0.17856300  1
  H  1157  1  0.49722500  0.62979000  0.19208800  1
  H  1158  1  0.53712200  0.63000800  0.19203100  1
  H  1159  1  0.49730300  0.61742600  0.12262100  1
  H  1160  1  0.53720200  0.61726200  0.12275800  1
  H  1161  1  0.54896500  0.57880800  0.15773900  1
  H  1162  1  0.57885800  0.54893300  0.15751000  1
  H  1163  1  0.60973900  0.60971900  0.15731800  1
  H  1164  1  0.63739600  0.63735300  0.15696900  1
  H  1165  1  0.54826400  0.66883000  0.15695500  1
  H  1166  1  0.57825800  0.69881600  0.15712700  1
  H  1167  1  0.62896300  0.70989600  0.19212400  1
  H  1168  1  0.62889600  0.74979500  0.19218900  1
  H  1169  1  0.61795200  0.70988400  0.12255200  1
  H  1170  1  0.61829400  0.74978000  0.12242700  1
  H  1171  1  0.66825400  0.69814300  0.15790700  1
  H  1172  1  0.69814800  0.66828900  0.15822100  1
  H  1173  1  0.66886800  0.54826200  0.15716400  1
  H  1174  1  0.69885800  0.57823200  0.15690400  1
  H  1175  1  0.70995600  0.63116100  0.12307500  1
  H  1176  1  0.74987500  0.63125100  0.12298000  1
  H  1177  1  0.71006100  0.61582100  0.19182800  1
  H  1178  1  0.74997900  0.61611300  0.19188800  1
  H  1179  1  0.78233600  0.59421400  0.17664800  1
  H  1180  1  0.82227500  0.59447800  0.17674200  1
  H  1181  1  0.82207800  0.65327200  0.13793900  1
  H  1182  1  0.78213700  0.65334700  0.13815100  1
  H  1183  1  0.61771000  0.53719700  0.19211600  1
  H  1184  1  0.61784500  0.49729700  0.19222900  1
  H  1185  1  0.65154000  0.46487600  0.13582600  1
  H  1186  1  0.65135100  0.42496900  0.13562400  1
  H  1187  1  0.59609300  0.42489700  0.17930500  1
  H  1188  1  0.59578000  0.46480700  0.17907500  1
  H  1189  1  0.62938400  0.49725000  0.12261700  1
  H  1190  1  0.62963400  0.53714500  0.12269400  1
  H  1191  1  0.59612300  0.78225900  0.13523500  1
  H  1192  1  0.59646700  0.82216500  0.13497100  1
  H  1193  1  0.65120800  0.78219100  0.17934100  1
  H  1194  1  0.65103600  0.82210000  0.17951000  1
  H  1267  1  0.61218400  0.92519700  0.12379300  1
  H  1268  1  0.61231600  0.96509400  0.12368400  1
  H  1269  1  0.63576100  0.92530300  0.19023900  1
  H  1270  1  0.63582100  0.96519600  0.19015300  1
  H  1271  1  0.65763800  0.99691800  0.16790000  1
  H  1272  1  0.65775200  0.03690170  0.16770700  1
  H  1273  1  0.59065600  0.99705000  0.14582700  1
  H  1274  1  0.59066400  0.03703470  0.14613100  1
  H  1275  1  0.62467100  0.04897170  0.11204500  1
  H  1276  1  0.62398300  0.07877770  0.08226560  1
  H  1277  1  0.62402500  0.10969900  0.14303500  1
  H  1278  1  0.62408200  0.13733000  0.17071400  1
  H  1279  1  0.62384100  0.04822970  0.20218800  1
  H  1280  1  0.62440900  0.07810270  0.23210700  1
  H  1281  1  0.65765800  0.13417000  0.24340700  1
  H  1282  1  0.65759500  0.13456800  0.28339400  1
  H  1283  1  0.59056900  0.11260100  0.24347200  1
  H  1284  1  0.59061400  0.11248900  0.28345400  1
  H  1285  1  0.62387500  0.16825600  0.23148000  1
  H  1286  1  0.62448300  0.19805900  0.20170900  1
  H  1287  1  0.62416700  0.16892800  0.08164260  1
  H  1288  1  0.62359600  0.19880100  0.11156600  1
  H  1289  1  0.59054000  0.20996500  0.16771000  1
  H  1290  1  0.59054400  0.24994900  0.16816300  1
  H  1291  1  0.65758700  0.21016300  0.14600400  1
  H  1292  1  0.65748300  0.25014600  0.14596100  1
  H  1293  1  0.63571900  0.28200700  0.12394000  1
  H  1294  1  0.63570100  0.32189300  0.12406900  1
  H  1295  1  0.61207000  0.32166600  0.19049600  1
  H  1296  1  0.61219700  0.28177600  0.19040100  1
  H  1297  1  0.65765700  0.11314100  0.07032760  1
  H  1298  1  0.65760500  0.11285200  0.03033660  1
  H  1299  1  0.61225600  0.15690300  0.99856600  1
  H  1300  1  0.61227400  0.15698400  0.95864500  1
  H  1301  1  0.63580100  0.09052670  0.95851500  1
  H  1302  1  0.63583300  0.09045470  0.99843700  1
  H  1303  1  0.59045900  0.13441200  0.03031560  1
  H  1304  1  0.59040500  0.13419800  0.07030460  1
  H  1305  1  0.61237900  0.09034770  0.31532600  1
  H  1306  1  0.61229600  0.09044770  0.35521600  1
  H  1307  1  0.63583300  0.15683400  0.31520300  1
  H  1308  1  0.63583800  0.15690600  0.35509700  1
  H  1381  1  0.09040670  0.61220400  0.95855700  1
  H  1382  1  0.09029770  0.61233900  0.99845400  1
  H  1383  1  0.15686300  0.63575400  0.95865900  1
  H  1384  1  0.15678000  0.63581500  0.99855300  1
  H  1385  1  0.13454300  0.65764300  0.03026360  1
  H  1386  1  0.13435200  0.65775900  0.07024760  1
  H  1387  1  0.11242800  0.59067200  0.03040060  1
  H  1388  1  0.11272800  0.59068400  0.07038560  1
  H  1389  1  0.07866870  0.62477000  0.08229360  1
  H  1390  1  0.04887970  0.62407900  0.11209000  1
  H  1391  1  0.10964100  0.62397500  0.14303000  1
  H  1392  1  0.13732500  0.62403200  0.17065300  1
  H  1393  1  0.16880500  0.62376100  0.08156960  1
  H  1394  1  0.19872600  0.62434100  0.11143900  1
  H  1395  1  0.21002700  0.65772500  0.16742300  1
  H  1396  1  0.25001400  0.65765500  0.16783000  1
  H  1397  1  0.21008700  0.59058000  0.14602800  1
  H  1398  1  0.25007000  0.59062100  0.14592200  1
  H  1399  1  0.19808400  0.62407200  0.20159900  1
  H  1400  1  0.16829800  0.62468800  0.23138900  1
  H  1401  1  0.04824170  0.62406000  0.20224700  1
  H  1402  1  0.07816770  0.62351400  0.23211700  1
  H  1403  1  0.13434000  0.59060400  0.24327900  1
  H  1404  1  0.13477400  0.59061400  0.28325800  1
  H  1405  1  0.11257100  0.65763000  0.24345300  1
  H  1406  1  0.11254000  0.65754800  0.28343000  1
  H  1407  1  0.09066170  0.63614000  0.31532300  1
  H  1408  1  0.09080570  0.63618200  0.35518500  1
  H  1409  1  0.15694600  0.61174600  0.35496500  1
  H  1410  1  0.15687100  0.61192300  0.31509800  1
  H  1411  1  0.03691970  0.65767200  0.14652000  1
  H  1412  1  0.99692900  0.65761700  0.14624500  1
  H  1413  1  0.96518000  0.61221400  0.19023400  1
  H  1414  1  0.92525700  0.61223200  0.19033300  1
  H  1415  1  0.92509700  0.63583800  0.12390500  1
  H  1416  1  0.96502300  0.63587100  0.12381500  1
  H  1417  1  0.99692100  0.59043300  0.16768900  1
  H  1418  1  0.03690770  0.59038200  0.16745900  1
  H  1419  1  0.28194300  0.61233400  0.12373300  1
  H  1420  1  0.32183300  0.61224200  0.12383500  1
  H  1421  1  0.28182000  0.63591800  0.19017100  1
  H  1422  1  0.32171400  0.63591600  0.19024600  1
  H  1495  1  0.92518700  0.09041670  0.64558500  1
  H  1496  1  0.96508400  0.09031170  0.64571200  1
  H  1497  1  0.92529100  0.15686800  0.66915200  1
  H  1498  1  0.96518500  0.15678700  0.66920400  1
  H  1499  1  0.99690400  0.13454400  0.69102000  1
  H  1500  1  0.03688770  0.13435000  0.69112500  1
  H  1501  1  0.99702100  0.11244800  0.62404200  1
  H  1502  1  0.03700770  0.11274500  0.62404500  1
  H  1503  1  0.04891070  0.07867070  0.65809800  1
  H  1504  1  0.07869670  0.04887270  0.65739800  1
  H  1505  1  0.10965600  0.10962400  0.65734600  1
  H  1506  1  0.13729100  0.13729500  0.65739500  1
  H  1507  1  0.04821670  0.16880700  0.65713100  1
  H  1508  1  0.07809770  0.19871800  0.65769900  1
  H  1509  1  0.13409200  0.21000400  0.69106500  1
  H  1510  1  0.13451500  0.24999100  0.69098300  1
  H  1511  1  0.11268600  0.21005100  0.62392300  1
  H  1512  1  0.11260100  0.25003400  0.62394800  1
  H  1513  1  0.16825600  0.19804300  0.65740100  1
  H  1514  1  0.19803700  0.16824900  0.65802300  1
  H  1515  1  0.16885100  0.04820170  0.65742600  1
  H  1516  1  0.19873500  0.07811570  0.65688200  1
  H  1517  1  0.20992000  0.13428400  0.62395500  1
  H  1518  1  0.24989800  0.13472400  0.62397300  1
  H  1519  1  0.21008200  0.11252800  0.69098500  1
  H  1520  1  0.25005900  0.11250100  0.69091100  1
  H  1521  1  0.28196100  0.09061670  0.66951100  1
  H  1522  1  0.32182400  0.09076670  0.66956200  1
  H  1523  1  0.32159500  0.15691200  0.64513400  1
  H  1524  1  0.28173000  0.15682900  0.64530300  1
  H  1525  1  0.11311100  0.03689270  0.69100300  1
  H  1526  1  0.11280500  0.99690300  0.69093100  1
  H  1527  1  0.15679100  0.96514600  0.64553700  1
  H  1528  1  0.15686600  0.92522400  0.64554700  1
  H  1529  1  0.09042170  0.92509700  0.66910700  1
  H  1530  1  0.09035770  0.96502300  0.66915600  1
  H  1531  1  0.13426600  0.99690900  0.62375300  1
  H  1532  1  0.13406500  0.03689670  0.62372000  1
  H  1533  1  0.09044470  0.28192600  0.64562000  1
  H  1534  1  0.09056470  0.32181400  0.64552200  1
  H  1535  1  0.15686000  0.28177800  0.66926800  1
  H  1536  1  0.15695000  0.32166900  0.66926800  1
  H  1542  1  0.15455100  0.64107800  0.38682500  1
  H  1544  1  0.09334570  0.60671300  0.38687300  1
  H  1556  1  0.09410170  0.64276000  0.92685900  1
  H  1558  1  0.15332100  0.60506500  0.92707300  1
  H  1570  1  0.35344700  0.15452000  0.67447400  1
  H  1572  1  0.35352000  0.09332670  0.64008800  1
  H  1584  1  0.89349600  0.09410670  0.67615300  1
  H  1586  1  0.89370300  0.15332700  0.63846000  1
  H  1598  1  0.64225700  0.35344000  0.18722400  1
  H  1600  1  0.60538400  0.35349700  0.12749000  1
  H  1612  1  0.64274600  0.89349600  0.12748000  1
  H  1614  1  0.60506700  0.89370500  0.18670700  1
  H  1626  1  0.64419100  0.15252100  0.92706900  1
  H  1628  1  0.60380100  0.09511070  0.92703300  1
  H  1640  1  0.64260100  0.09397470  0.38694000  1
  H  1642  1  0.60541700  0.15351700  0.38673300  1
  H  1654  1  0.15372300  0.35331700  0.63891900  1
  H  1656  1  0.09395670  0.35354400  0.67573800  1
  H  1668  1  0.09504570  0.89362000  0.63702900  1
  H  1670  1  0.15235500  0.89366000  0.67755900  1
  H  1682  1  0.35356400  0.64253600  0.12729300  1
  H  1684  1  0.35334800  0.60549400  0.18692200  1
  H  1696  1  0.89368100  0.64415400  0.18592100  1
  H  1698  1  0.89361600  0.60384300  0.12845700  1
  C  1  1  0.00784300  0.44881900  0.46512800  1
  C  2  1  0.00775900  0.46513800  0.44883100  1
  C  3  1  0.00737300  0.48599000  0.45930600  1
  C  5  1  0.00734500  0.45926000  0.48599600  1
  C  6  1  0.00720600  0.44790900  0.50691200  1
  C  7  1  0.00707200  0.45870500  0.52806100  1
  C  9  1  0.00697800  0.48523300  0.55456400  1
  C  10  1  0.00682300  0.46444600  0.56514900  1
  C  11  1  0.00676600  0.44813600  0.54885400  1
  C  12  1  0.00711200  0.50638900  0.56534500  1
  C  13  1  0.00731300  0.52731800  0.55401400  1
  C  15  1  0.00727400  0.55405600  0.52731600  1
  C  16  1  0.00775700  0.56449000  0.54819000  1
  C  17  1  0.00763600  0.54817500  0.56448500  1
  C  18  1  0.00711000  0.56542500  0.50640200  1
  C  19  1  0.00697500  0.55461700  0.48525500  1
  C  21  1  0.00692800  0.52807600  0.45876500  1
  C  22  1  0.00655800  0.54884900  0.44816500  1
  C  23  1  0.00646700  0.56516800  0.46445300  1
  C  24  1  0.00713000  0.50692000  0.44799300  1
  C  25  1  0.00712500  0.50674300  0.42411800  1
  C  26  1  0.98697100  0.50885000  0.41206800  1
  C  27  1  0.98702300  0.50885400  0.38854300  1
  C  28  1  0.00714500  0.50672100  0.37622900  1
  C  29  1  0.02725300  0.50455900  0.38856000  1
  C  30  1  0.02728900  0.50460400  0.41208500  1
  C  31  1  0.00715700  0.50677600  0.35223300  1
  C  32  1  0.02115800  0.49220300  0.33987900  1
  C  33  1  0.02122600  0.49226700  0.31635200  1
  C  34  1  0.00716700  0.50688700  0.30434000  1
  C  35  1  0.99311000  0.52145800  0.31641300  1
  C  36  1  0.99316800  0.52141300  0.33993900  1
  C  37  1  0.00710200  0.58932800  0.50658800  1
  C  38  1  0.98735200  0.60135800  0.51124800  1
  C  39  1  0.98737900  0.62488500  0.51143000  1
  C  40  1  0.00704700  0.63720500  0.50676100  1
  C  41  1  0.02674800  0.62496500  0.50202400  1
  C  42  1  0.02682800  0.60143900  0.50202600  1
  C  43  1  0.00701200  0.66116300  0.50681100  1
  C  44  1  0.99591900  0.67339400  0.52378100  1
  C  45  1  0.99590200  0.69692100  0.52388100  1
  C  46  1  0.00693000  0.70898100  0.50689800  1
  C  47  1  0.01800000  0.69702100  0.48987200  1
  C  48  1  0.01806900  0.67349400  0.48989000  1
  C  49  1  0.00708500  0.50656800  0.58922700  1
  C  50  1  0.02709600  0.50978200  0.60128600  1
  C  51  1  0.02702800  0.50992100  0.62481100  1
  C  52  1  0.00704400  0.50671800  0.63710700  1
  C  53  1  0.98708200  0.50344700  0.62479600  1
  C  54  1  0.98705500  0.50343000  0.60127200  1
  C  55  1  0.00702300  0.50676500  0.66108600  1
  C  56  1  0.99416700  0.49115300  0.67340900  1
  C  57  1  0.99409300  0.49119000  0.69693400  1
  C  58  1  0.00696300  0.50686800  0.70892900  1
  C  59  1  0.01986800  0.52249300  0.69689700  1
  C  60  1  0.01986100  0.52242300  0.67337200  1
  C  61  1  0.00722700  0.42401800  0.50672800  1
  C  62  1  0.02713700  0.41194300  0.51047700  1
  C  63  1  0.98731000  0.41197500  0.50292400  1
  C  64  1  0.98734400  0.38844800  0.50284500  1
  C  65  1  0.00720100  0.37612200  0.50667500  1
  C  66  1  0.02707700  0.38841600  0.51049700  1
  C  67  1  0.00717200  0.35213900  0.50672300  1
  C  68  1  0.01954800  0.33985000  0.52274700  1
  C  69  1  0.01954800  0.31632300  0.52282900  1
  C  70  1  0.00708900  0.30428500  0.50685200  1
  C  71  1  0.99467300  0.31628000  0.49080900  1
  C  72  1  0.99474800  0.33980900  0.49076700  1
  C  115  1  0.46516100  0.00781200  0.44882600  1
  C  116  1  0.44886400  0.00774000  0.46514300  1
  C  117  1  0.45934100  0.00736000  0.48599600  1
  C  119  1  0.48603100  0.00730600  0.45926500  1
  C  120  1  0.50694700  0.00715900  0.44791300  1
  C  121  1  0.52809400  0.00703500  0.45871200  1
  C  123  1  0.55459600  0.00696500  0.48524100  1
  C  124  1  0.56518400  0.00678800  0.46445600  1
  C  125  1  0.54888900  0.00671100  0.44814500  1
  C  126  1  0.56537600  0.00711200  0.50639900  1
  C  127  1  0.55404600  0.00732200  0.52732600  1
  C  129  1  0.52734800  0.00730500  0.55406400  1
  C  130  1  0.54822200  0.00777600  0.56449800  1
  C  131  1  0.56451600  0.00764400  0.54818300  1
  C  132  1  0.50643400  0.00716000  0.56543300  1
  C  133  1  0.48528700  0.00702000  0.55462600  1
  C  135  1  0.45879900  0.00695700  0.52808300  1
  C  136  1  0.44819800  0.00660900  0.54885800  1
  C  137  1  0.46448500  0.00653300  0.56517600  1
  C  138  1  0.44802600  0.00713700  0.50692700  1
  C  139  1  0.42415200  0.00713200  0.50675000  1
  C  140  1  0.41210300  0.98697800  0.50888000  1
  C  141  1  0.38857800  0.98702800  0.50888200  1
  C  142  1  0.37626200  0.00714700  0.50673000  1
  C  143  1  0.38859100  0.02725500  0.50455400  1
  C  144  1  0.41211700  0.02729100  0.50458700  1
  C  145  1  0.35226600  0.00715500  0.50678300  1
  C  146  1  0.33990900  0.02113900  0.49219500  1
  C  147  1  0.31638300  0.02120600  0.49226000  1
  C  148  1  0.30437300  0.00715700  0.50689200  1
  C  149  1  0.31644800  0.99311000  0.52147100  1
  C  150  1  0.33997200  0.99318000  0.52143500  1
  C  151  1  0.50661900  0.00716200  0.58933600  1
  C  152  1  0.51124200  0.98740700  0.60137400  1
  C  153  1  0.51142500  0.98744600  0.62490100  1
  C  154  1  0.50681100  0.00713000  0.63721500  1
  C  155  1  0.50210200  0.02683300  0.62496500  1
  C  156  1  0.50210100  0.02690300  0.60143900  1
  C  157  1  0.50687500  0.00710700  0.66117300  1
  C  158  1  0.52380300  0.99594700  0.67340200  1
  C  159  1  0.52391800  0.99594400  0.69693100  1
  C  160  1  0.50698500  0.00704500  0.70899400  1
  C  161  1  0.48999700  0.01817700  0.69703800  1
  C  162  1  0.48999900  0.01822700  0.67351000  1
  C  163  1  0.58925900  0.00708500  0.50657800  1
  C  164  1  0.60131700  0.02709900  0.50977900  1
  C  165  1  0.62484100  0.02703100  0.50991400  1
  C  166  1  0.63713800  0.00704400  0.50673000  1
  C  167  1  0.62482800  0.98707700  0.50348300  1
  C  168  1  0.60130400  0.98705200  0.50345800  1
  C  169  1  0.66111600  0.00702500  0.50677300  1
  C  170  1  0.67343900  0.99415500  0.49117000  1
  C  171  1  0.69696400  0.99408200  0.49120500  1
  C  172  1  0.70895900  0.00696800  0.50687000  1
  C  173  1  0.69693100  0.01989200  0.52248000  1
  C  174  1  0.67340400  0.01987700  0.52241800  1
  C  175  1  0.50676300  0.00717000  0.42402000  1
  C  176  1  0.51061900  0.02705300  0.41193300  1
  C  177  1  0.50286200  0.98726500  0.41198500  1
  C  178  1  0.50279900  0.98728500  0.38845600  1
  C  179  1  0.50673100  0.00711700  0.37612500  1
  C  180  1  0.51064600  0.02698100  0.38840800  1
  C  181  1  0.50679000  0.00707500  0.35214200  1
  C  182  1  0.52292400  0.01930900  0.33985900  1
  C  183  1  0.52301800  0.01929500  0.31633200  1
  C  184  1  0.50693200  0.00697700  0.30429300  1
  C  185  1  0.49077400  0.99470800  0.31628600  1
  C  186  1  0.49072900  0.99479000  0.33981400  1
  C  229  1  0.44883600  0.46510800  0.00733700  1
  C  230  1  0.46514800  0.44880800  0.00724700  1
  C  231  1  0.48601100  0.45927000  0.00722200  1
  C  233  1  0.45928500  0.48597600  0.00715900  1
  C  234  1  0.44793300  0.50689500  0.00711200  1
  C  235  1  0.45872700  0.52804800  0.00705700  1
  C  237  1  0.48524600  0.55455900  0.00696000  1
  C  238  1  0.46445600  0.56514100  0.00688000  1
  C  239  1  0.44815100  0.54883900  0.00682000  1
  C  240  1  0.50639900  0.56534800  0.00706700  1
  C  241  1  0.52732600  0.55401300  0.00723900  1
  C  243  1  0.55406100  0.52731300  0.00722600  1
  C  244  1  0.56449600  0.54818800  0.00762300  1
  C  245  1  0.54818300  0.56448300  0.00748900  1
  C  246  1  0.56542800  0.50639700  0.00715200  1
  C  247  1  0.55462400  0.48524500  0.00708500  1
  C  249  1  0.52809300  0.45873200  0.00703500  1
  C  250  1  0.54888100  0.44815100  0.00692800  1
  C  251  1  0.56518800  0.46444800  0.00682000  1
  C  252  1  0.50694000  0.44793600  0.00712200  1
  C  253  1  0.50676500  0.42404600  0.00710900  1
  C  254  1  0.51022300  0.41197300  0.98714500  1
  C  255  1  0.51025500  0.38844800  0.98720500  1
  C  256  1  0.50671800  0.37615600  0.00713500  1
  C  257  1  0.50318100  0.38847600  0.02704700  1
  C  258  1  0.50326000  0.41200300  0.02708100  1
  C  259  1  0.50675800  0.35217400  0.00715500  1
  C  260  1  0.49094700  0.33984700  0.01976500  1
  C  261  1  0.49096200  0.31632000  0.01980800  1
  C  262  1  0.50683800  0.30432300  0.00717700  1
  C  263  1  0.52267500  0.31636000  0.99454100  1
  C  264  1  0.52261900  0.33988700  0.99457100  1
  C  265  1  0.58933100  0.50658900  0.00716400  1
  C  266  1  0.60137100  0.51111600  0.98738900  1
  C  267  1  0.62489600  0.51132500  0.98743200  1
  C  268  1  0.63721000  0.50681300  0.00714200  1
  C  269  1  0.62495800  0.50220600  0.02686700  1
  C  270  1  0.60143100  0.50219100  0.02693300  1
  C  271  1  0.66116800  0.50688200  0.00712200  1
  C  272  1  0.67339500  0.52375400  0.99587500  1
  C  273  1  0.69692200  0.52386600  0.99585900  1
  C  274  1  0.70899100  0.50699300  0.00704900  1
  C  275  1  0.69703600  0.49006700  0.01827800  1
  C  276  1  0.67350900  0.49007100  0.01833600  1
  C  277  1  0.50657400  0.58923400  0.00704500  1
  C  278  1  0.50983400  0.60129200  0.02705000  1
  C  279  1  0.50996300  0.62481800  0.02698700  1
  C  280  1  0.50672100  0.63712200  0.00701300  1
  C  281  1  0.50342200  0.62481100  0.98705500  1
  C  282  1  0.50339300  0.60128600  0.98702500  1
  C  283  1  0.50676600  0.66110500  0.00699700  1
  C  284  1  0.49115300  0.67343200  0.99414500  1
  C  285  1  0.49118500  0.69695700  0.99407800  1
  C  286  1  0.50686700  0.70895400  0.00694500  1
  C  287  1  0.52249500  0.69692100  0.01984200  1
  C  288  1  0.52243000  0.67339400  0.01982700  1
  C  289  1  0.42404000  0.50671600  0.00711200  1
  C  290  1  0.41195600  0.51042300  0.02702400  1
  C  291  1  0.41200300  0.50298400  0.98717700  1
  C  292  1  0.38847600  0.50291400  0.98720000  1
  C  293  1  0.37614600  0.50670800  0.00705900  1
  C  294  1  0.38843100  0.51047500  0.02695100  1
  C  295  1  0.35216400  0.50677100  0.00702300  1
  C  296  1  0.33988400  0.52280900  0.01939000  1
  C  297  1  0.31635700  0.52290800  0.01938100  1
  C  298  1  0.30431200  0.50692200  0.00693800  1
  C  299  1  0.31630100  0.49086400  0.99453400  1
  C  300  1  0.33982900  0.49081200  0.99461100  1
  C  343  1  0.50751800  0.94882400  0.96501100  1
  C  344  1  0.50720400  0.96512400  0.94872600  1
  C  345  1  0.50725600  0.98599600  0.95917300  1
  C  347  1  0.50729100  0.95924600  0.98589400  1
  C  348  1  0.50731400  0.94784100  0.00680300  1
  C  349  1  0.50729400  0.95867300  0.02795400  1
  C  351  1  0.50723400  0.98519300  0.05451400  1
  C  352  1  0.50736900  0.96438100  0.06505300  1
  C  353  1  0.50711900  0.94810500  0.04875000  1
  C  354  1  0.50724100  0.00632700  0.06537800  1
  C  355  1  0.50727200  0.02724700  0.05399500  1
  C  357  1  0.50721900  0.05399800  0.02727200  1
  C  358  1  0.50741900  0.06442000  0.04815600  1
  C  359  1  0.50713500  0.04811900  0.06444000  1
  C  360  1  0.50719200  0.06540400  0.00636600  1
  C  361  1  0.50717000  0.05457200  0.98521500  1
  C  363  1  0.50712200  0.02805200  0.95865500  1
  C  364  1  0.50718700  0.04886400  0.94811600  1
  C  365  1  0.50692700  0.06514100  0.96441900  1
  C  366  1  0.50716500  0.00691800  0.94779200  1
  C  367  1  0.50713000  0.00675800  0.92385300  1
  C  368  1  0.48778800  0.01282800  0.91174600  1
  C  369  1  0.48788700  0.01306900  0.88822400  1
  C  370  1  0.50713700  0.00673100  0.87605400  1
  C  371  1  0.52637800  0.00038100  0.88823600  1
  C  372  1  0.52647100  0.00065500  0.91176100  1
  C  373  1  0.50715500  0.00678000  0.85220300  1
  C  374  1  0.51406000  0.98776500  0.83998400  1
  C  375  1  0.51379700  0.98771600  0.81645700  1
  C  376  1  0.50714700  0.00687200  0.80432800  1
  C  377  1  0.50050900  0.02598300  0.81653000  1
  C  378  1  0.50026500  0.02584700  0.84005700  1
  C  379  1  0.50718100  0.08934300  0.00656300  1
  C  380  1  0.48788500  0.10138500  0.01290100  1
  C  381  1  0.48795300  0.12490700  0.01327800  1
  C  382  1  0.50711700  0.13714200  0.00679600  1
  C  383  1  0.52631600  0.12502200  0.00020900  1
  C  384  1  0.52644600  0.10150000  0.00035100  1
  C  385  1  0.50707400  0.16099600  0.00687000  1
  C  386  1  0.50017500  0.17311800  0.02594600  1
  C  387  1  0.50035100  0.19664300  0.02608800  1
  C  388  1  0.50698200  0.20890900  0.00700200  1
  C  389  1  0.51365600  0.19677400  0.98784600  1
  C  390  1  0.51392500  0.17325000  0.98786000  1
  C  391  1  0.50721900  0.00649200  0.08931900  1
  C  392  1  0.52651000  0.01276900  0.10140100  1
  C  393  1  0.52640600  0.01310700  0.12492400  1
  C  394  1  0.50721200  0.00664400  0.13712000  1
  C  395  1  0.48802200  0.00010500  0.12496100  1
  C  396  1  0.48792200  0.00029900  0.10143800  1
  C  397  1  0.50721100  0.00669300  0.16097400  1
  C  398  1  0.50034100  0.98766900  0.17319500  1
  C  399  1  0.50055300  0.98763800  0.19672200  1
  C  400  1  0.50716900  0.00679300  0.20888400  1
  C  401  1  0.51381300  0.02589500  0.19665200  1
  C  402  1  0.51406000  0.02576700  0.17312500  1
  C  403  1  0.50732700  0.92390300  0.00661100  1
  C  404  1  0.52660500  0.91176400  0.01282500  1
  C  405  1  0.48801800  0.91184300  0.00034700  1
  C  406  1  0.48808400  0.88832100  0.00005200  1
  C  407  1  0.50724900  0.87610500  0.00656300  1
  C  408  1  0.52646600  0.88824400  0.01306400  1
  C  409  1  0.50718700  0.85225100  0.00661600  1
  C  410  1  0.51403000  0.84009600  0.02569200  1
  C  411  1  0.51373500  0.81657000  0.02583400  1
  C  412  1  0.50706500  0.80435000  0.00673600  1
  C  413  1  0.50044600  0.81651000  0.98758300  1
  C  414  1  0.50027000  0.84003700  0.98760600  1
  C  457  1  0.96502700  0.50762800  0.94875100  1
  C  458  1  0.94873600  0.50730700  0.96504600  1
  C  459  1  0.95917600  0.50730900  0.98592100  1
  C  461  1  0.98590800  0.50734900  0.95918100  1
  C  462  1  0.00682000  0.50732900  0.94778600  1
  C  463  1  0.02797000  0.50728600  0.95861500  1
  C  465  1  0.05453100  0.50723700  0.98513100  1
  C  466  1  0.06507000  0.50731900  0.96432100  1
  C  467  1  0.04876600  0.50706700  0.94804600  1
  C  468  1  0.06539300  0.50728100  0.00626500  1
  C  469  1  0.05400400  0.50734900  0.02718200  1
  C  471  1  0.02727300  0.50730400  0.05392100  1
  C  472  1  0.04815200  0.50757100  0.06435100  1
  C  473  1  0.06444200  0.50730100  0.04805700  1
  C  474  1  0.00636200  0.50723600  0.06531700  1
  C  475  1  0.98521100  0.50716700  0.05448800  1
  C  477  1  0.95865000  0.50709500  0.02797200  1
  C  478  1  0.94811100  0.50711200  0.04878300  1
  C  479  1  0.96441800  0.50686500  0.06505900  1
  C  480  1  0.94778900  0.50716700  0.00683800  1
  C  481  1  0.92384900  0.50712500  0.00667400  1
  C  482  1  0.91174600  0.48777300  0.01271700  1
  C  483  1  0.88822400  0.48786800  0.01296500  1
  C  484  1  0.87605000  0.50712900  0.00666300  1
  C  485  1  0.88822900  0.52637600  0.00032700  1
  C  486  1  0.91175300  0.52647400  0.00060600  1
  C  487  1  0.85219900  0.50714400  0.00672100  1
  C  488  1  0.83997200  0.51406900  0.98772000  1
  C  489  1  0.81644500  0.51382200  0.98768600  1
  C  490  1  0.80432500  0.50714200  0.00683600  1
  C  491  1  0.81653500  0.50047300  0.02593200  1
  C  492  1  0.84006200  0.50022400  0.02578400  1
  C  493  1  0.00655600  0.50723200  0.08925200  1
  C  494  1  0.01291100  0.48794500  0.10129700  1
  C  495  1  0.01328600  0.48802300  0.12481700  1
  C  496  1  0.00679100  0.50718600  0.13704900  1
  C  497  1  0.00019400  0.52637800  0.12491800  1
  C  498  1  0.00032600  0.52649600  0.10139700  1
  C  499  1  0.00686500  0.50715200  0.16090700  1
  C  500  1  0.02586400  0.50005500  0.17303500  1
  C  501  1  0.02599700  0.50021200  0.19656000  1
  C  502  1  0.00699500  0.50706500  0.20884200  1
  C  503  1  0.98792800  0.51396700  0.19668700  1
  C  504  1  0.98793700  0.51421600  0.17316300  1
  C  505  1  0.08933400  0.50725700  0.00643600  1
  C  506  1  0.10141800  0.52656100  0.01266800  1
  C  507  1  0.12494000  0.52645100  0.01302400  1
  C  508  1  0.13713500  0.50724200  0.00660300  1
  C  509  1  0.12497500  0.48803900  0.00010700  1
  C  510  1  0.10145200  0.48794300  0.00029400  1
  C  511  1  0.16098900  0.50724100  0.00665100  1
  C  512  1  0.17321000  0.50033400  0.98764100  1
  C  513  1  0.19673700  0.50053300  0.98761400  1
  C  514  1  0.20890100  0.50718600  0.00675800  1
  C  515  1  0.19666700  0.51387700  0.02584200  1
  C  516  1  0.17314000  0.51413400  0.02571100  1
  C  517  1  0.00663100  0.50734100  0.92384900  1
  C  518  1  0.01285900  0.52661500  0.91171400  1
  C  519  1  0.00035200  0.48803300  0.91179400  1
  C  520  1  0.00006500  0.48809500  0.88827200  1
  C  521  1  0.00658300  0.50725900  0.87605900  1
  C  522  1  0.01309200  0.52647400  0.88819400  1
  C  523  1  0.00663400  0.50719600  0.85220800  1
  C  524  1  0.02571400  0.51403000  0.84005400  1
  C  525  1  0.02585500  0.51373700  0.81653000  1
  C  526  1  0.00675300  0.50707400  0.80431200  1
  C  527  1  0.98759400  0.50046400  0.81647200  1
  C  528  1  0.98761900  0.50028700  0.83999700  1
  C  571  1  0.94876600  0.96502400  0.50756100  1
  C  572  1  0.96505600  0.94872700  0.50723700  1
  C  573  1  0.98593400  0.95916100  0.50725200  1
  C  575  1  0.95920300  0.98589900  0.50729600  1
  C  576  1  0.94781400  0.00681600  0.50729100  1
  C  577  1  0.95865200  0.02796300  0.50726200  1
  C  579  1  0.98517800  0.05451300  0.50720600  1
  C  580  1  0.96437100  0.06506000  0.50730200  1
  C  581  1  0.94809000  0.04876200  0.50704700  1
  C  582  1  0.00631700  0.06536600  0.50723200  1
  C  583  1  0.02722900  0.05397100  0.50729100  1
  C  585  1  0.05396000  0.02723200  0.50724700  1
  C  586  1  0.06439600  0.04810800  0.50750100  1
  C  587  1  0.04810800  0.06440300  0.50723200  1
  C  588  1  0.06534900  0.00631700  0.50718700  1
  C  589  1  0.05451200  0.98517000  0.50711900  1
  C  591  1  0.02798600  0.95862000  0.50705000  1
  C  592  1  0.04879300  0.94807500  0.50706500  1
  C  593  1  0.06507500  0.96437300  0.50683000  1
  C  594  1  0.00684600  0.94776900  0.50711400  1
  C  595  1  0.00667400  0.92382900  0.50706500  1
  C  596  1  0.01270800  0.91173100  0.48770600  1
  C  597  1  0.01294400  0.88820900  0.48779300  1
  C  598  1  0.00662900  0.87603200  0.50704700  1
  C  599  1  0.00030900  0.88820500  0.52630100  1
  C  600  1  0.00059800  0.91172900  0.52640900  1
  C  601  1  0.00667300  0.85218200  0.50705400  1
  C  602  1  0.98765800  0.83996600  0.51395900  1
  C  603  1  0.98760900  0.81643800  0.51370600  1
  C  604  1  0.00676000  0.80431200  0.50703900  1
  C  605  1  0.02587100  0.81651000  0.50039600  1
  C  606  1  0.02573400  0.84003600  0.50014500  1
  C  607  1  0.08928500  0.00650400  0.50718600  1
  C  608  1  0.10133300  0.01285300  0.48789800  1
  C  609  1  0.12485300  0.01322200  0.48798000  1
  C  610  1  0.13708200  0.00673800  0.50714700  1
  C  611  1  0.12494800  0.00013400  0.52633400  1
  C  612  1  0.10142700  0.00027500  0.52645300  1
  C  613  1  0.16094000  0.00681800  0.50711900  1
  C  614  1  0.17306600  0.02581700  0.50001800  1
  C  615  1  0.19659200  0.02595700  0.50019000  1
  C  616  1  0.20887400  0.00695800  0.50704900  1
  C  617  1  0.19672200  0.98789000  0.51394900  1
  C  618  1  0.17319800  0.98788800  0.51417600  1
  C  619  1  0.00649400  0.08930600  0.50720200  1
  C  620  1  0.01273200  0.10139300  0.52650300  1
  C  621  1  0.01310300  0.12491400  0.52638400  1
  C  622  1  0.00668800  0.13710500  0.50717000  1
  C  623  1  0.00019200  0.12494100  0.48796800  1
  C  624  1  0.00035900  0.10141900  0.48788300  1
  C  625  1  0.00675000  0.16095900  0.50715900  1
  C  626  1  0.98775100  0.17318800  0.50023400  1
  C  627  1  0.98773800  0.19671400  0.50041900  1
  C  628  1  0.00687700  0.20887000  0.50709500  1
  C  629  1  0.02595300  0.19662800  0.51379700  1
  C  630  1  0.02580900  0.17310300  0.51406000  1
  C  631  1  0.92387800  0.00663600  0.50730600  1
  C  632  1  0.91174800  0.01285500  0.52658600  1
  C  633  1  0.91181800  0.00036700  0.48800000  1
  C  634  1  0.88829600  0.00009000  0.48806400  1
  C  635  1  0.87608700  0.00659300  0.50723600  1
  C  636  1  0.88822700  0.01308700  0.52645400  1
  C  637  1  0.85223800  0.00664400  0.50718100  1
  C  638  1  0.84008200  0.02572100  0.51402200  1
  C  639  1  0.81656000  0.02585900  0.51373700  1
  C  640  1  0.80434200  0.00676000  0.50706900  1
  C  641  1  0.81650000  0.98760400  0.50044700  1
  C  642  1  0.84002600  0.98762800  0.50027700  1
  C  685  1  0.00705000  0.50700900  0.23273300  1
  C  686  1  0.02480200  0.51665900  0.24492200  1
  C  687  1  0.02504100  0.51685600  0.26857800  1
  C  688  1  0.00713700  0.50691800  0.28053900  1
  C  689  1  0.98919200  0.49702100  0.26860600  1
  C  691  1  0.98934900  0.49730000  0.24495000  1
  C  699  1  0.00680800  0.50702500  0.78044900  1
  C  700  1  0.98967300  0.51767200  0.76821500  1
  C  701  1  0.98957500  0.51791100  0.74455900  1
  C  702  1  0.00691800  0.50692800  0.73270300  1
  C  703  1  0.02420900  0.49599600  0.74468300  1
  C  705  1  0.02400100  0.49633300  0.76833700  1
  C  713  1  0.23276700  0.00701800  0.50700300  1
  C  714  1  0.24494700  0.02476600  0.51667200  1
  C  715  1  0.26860400  0.02501800  0.51686300  1
  C  716  1  0.28057100  0.00712000  0.50692000  1
  C  717  1  0.26864600  0.98917600  0.49701600  1
  C  719  1  0.24499000  0.98932300  0.49729500  1
  C  727  1  0.78047900  0.00681500  0.50702200  1
  C  728  1  0.76824700  0.98968300  0.51767600  1
  C  729  1  0.74459100  0.98958000  0.51791100  1
  C  730  1  0.73273300  0.00692300  0.50692800  1
  C  731  1  0.74471100  0.02421300  0.49599400  1
  C  733  1  0.76836700  0.02400300  0.49632300  1
  C  741  1  0.50693000  0.23278300  0.00706000  1
  C  742  1  0.51733700  0.24495000  0.02439300  1
  C  743  1  0.51757900  0.26860800  0.02460100  1
  C  744  1  0.50685500  0.28054600  0.00715200  1
  C  745  1  0.49616600  0.26864100  0.98966000  1
  C  747  1  0.49647500  0.24498400  0.98978200  1
  C  755  1  0.50701900  0.78048400  0.00679300  1
  C  756  1  0.51766200  0.76824900  0.98965700  1
  C  757  1  0.51790500  0.74459100  0.98955600  1
  C  758  1  0.50692500  0.73273200  0.00690200  1
  C  759  1  0.49599600  0.74471300  0.02419300  1
  C  761  1  0.49633300  0.76836900  0.02398700  1
  C  769  1  0.50711700  0.00691000  0.78048900  1
  C  770  1  0.51858600  0.02356700  0.76835200  1
  C  771  1  0.51887100  0.02372300  0.74469300  1
  C  772  1  0.50703200  0.00700000  0.73276700  1
  C  773  1  0.49523200  0.99023400  0.74467300  1
  C  775  1  0.49561000  0.99029600  0.76833000  1
  C  783  1  0.50712700  0.00684600  0.23275800  1
  C  784  1  0.51762600  0.98962300  0.24500000  1
  C  785  1  0.51784100  0.98950500  0.26865800  1
  C  786  1  0.50700000  0.00693500  0.28051700  1
  C  787  1  0.49622800  0.02432300  0.26853700  1
  C  789  1  0.49656800  0.02411700  0.24488000  1
  C  797  1  0.00694000  0.23274700  0.50705000  1
  C  798  1  0.02428300  0.24486500  0.49660500  1
  C  799  1  0.02449600  0.26852100  0.49626100  1
  C  800  1  0.00704200  0.28050700  0.50692200  1
  C  801  1  0.98954000  0.26865300  0.51765100  1
  C  803  1  0.98965500  0.24499500  0.51743900  1
  C  811  1  0.00679800  0.78047400  0.50701200  1
  C  812  1  0.99021100  0.76831500  0.49546800  1
  C  813  1  0.99015100  0.74465800  0.49509200  1
  C  814  1  0.00688500  0.73275300  0.50693700  1
  C  815  1  0.02357700  0.74468100  0.51882000  1
  C  817  1  0.02343100  0.76833900  0.51851700  1
  C  825  1  0.23277300  0.50713700  0.00681300  1
  C  826  1  0.24501900  0.51759200  0.98956500  1
  C  827  1  0.26867600  0.51779800  0.98944300  1
  C  828  1  0.28053400  0.50699700  0.00689800  1
  C  829  1  0.26855100  0.49627300  0.02431500  1
  C  831  1  0.24489300  0.49662300  0.02411200  1
  C  839  1  0.78048600  0.50711500  0.00688700  1
  C  840  1  0.76835500  0.51856100  0.02356600  1
  C  841  1  0.74469600  0.51885100  0.02373000  1
  C  842  1  0.73276300  0.50703700  0.00699500  1
  C  843  1  0.74466000  0.49526100  0.99020800  1
  C  845  1  0.76831700  0.49562800  0.99026400  1
  C  853  1  0.12473600  0.56571200  0.61541900  1
  C  854  1  0.12465200  0.58203100  0.59912200  1
  C  855  1  0.12426600  0.60288300  0.60959700  1
  C  857  1  0.12423800  0.57615300  0.63628700  1
  C  858  1  0.12409900  0.56480200  0.65720300  1
  C  859  1  0.12396500  0.57559800  0.67835200  1
  C  861  1  0.12387100  0.60212600  0.70485500  1
  C  862  1  0.12371600  0.58133900  0.71544000  1
  C  863  1  0.12365900  0.56502900  0.69914500  1
  C  864  1  0.12400500  0.62328200  0.71563600  1
  C  865  1  0.12420600  0.64421100  0.70430500  1
  C  867  1  0.12416700  0.67094900  0.67760700  1
  C  868  1  0.12465000  0.68138300  0.69848100  1
  C  869  1  0.12452900  0.66506800  0.71477600  1
  C  870  1  0.12400300  0.68231800  0.65669300  1
  C  871  1  0.12386800  0.67151000  0.63554600  1
  C  873  1  0.12382100  0.64496900  0.60905600  1
  C  874  1  0.12345100  0.66574200  0.59845600  1
  C  875  1  0.12336000  0.68206100  0.61474400  1
  C  876  1  0.12402300  0.62381300  0.59828400  1
  C  877  1  0.12401800  0.62363600  0.57440900  1
  C  878  1  0.10386400  0.62574300  0.56235900  1
  C  879  1  0.10391600  0.62574700  0.53883400  1
  C  880  1  0.12403800  0.62361400  0.52652000  1
  C  881  1  0.14414600  0.62145200  0.53885100  1
  C  882  1  0.14418200  0.62149700  0.56237600  1
  C  883  1  0.12405000  0.62366900  0.50252400  1
  C  884  1  0.13805100  0.60909600  0.49017000  1
  C  885  1  0.13811900  0.60916000  0.46664300  1
  C  886  1  0.12406000  0.62378000  0.45463100  1
  C  887  1  0.11000300  0.63835100  0.46670400  1
  C  888  1  0.11006100  0.63830600  0.49023000  1
  C  889  1  0.12399500  0.70622100  0.65687900  1
  C  890  1  0.10424500  0.71825100  0.66153900  1
  C  891  1  0.10427200  0.74177800  0.66172100  1
  C  892  1  0.12394000  0.75409800  0.65705200  1
  C  893  1  0.14364100  0.74185800  0.65231500  1
  C  894  1  0.14372100  0.71833200  0.65231700  1
  C  895  1  0.12390500  0.77805600  0.65710200  1
  C  896  1  0.11281200  0.79028700  0.67407200  1
  C  897  1  0.11279500  0.81381400  0.67417200  1
  C  898  1  0.12382300  0.82587400  0.65718900  1
  C  899  1  0.13489300  0.81391400  0.64016300  1
  C  900  1  0.13496200  0.79038700  0.64018100  1
  C  901  1  0.12397800  0.62346100  0.73951800  1
  C  902  1  0.14398900  0.62667500  0.75157700  1
  C  903  1  0.14392100  0.62681400  0.77510200  1
  C  904  1  0.12393700  0.62361100  0.78739800  1
  C  905  1  0.10397500  0.62034000  0.77508700  1
  C  906  1  0.10394800  0.62032300  0.75156300  1
  C  907  1  0.12391600  0.62365800  0.81137700  1
  C  908  1  0.11106000  0.60804600  0.82370000  1
  C  909  1  0.11098600  0.60808300  0.84722500  1
  C  910  1  0.12385600  0.62376100  0.85922000  1
  C  911  1  0.13676100  0.63938600  0.84718800  1
  C  912  1  0.13675400  0.63931600  0.82366300  1
  C  913  1  0.12412000  0.54091100  0.65701900  1
  C  914  1  0.14403000  0.52883600  0.66076800  1
  C  915  1  0.10420300  0.52886800  0.65321500  1
  C  916  1  0.10423700  0.50534100  0.65313600  1
  C  917  1  0.12409400  0.49301500  0.65696600  1
  C  918  1  0.14397000  0.50530900  0.66078800  1
  C  919  1  0.12406500  0.46903200  0.65701400  1
  C  920  1  0.13644100  0.45674300  0.67303800  1
  C  921  1  0.13644100  0.43321600  0.67312000  1
  C  922  1  0.12398200  0.42117800  0.65714300  1
  C  923  1  0.11156600  0.43317300  0.64110000  1
  C  924  1  0.11164100  0.45670200  0.64105800  1
  C  967  1  0.58205400  0.12470500  0.59911700  1
  C  968  1  0.56575700  0.12463300  0.61543400  1
  C  969  1  0.57623400  0.12425300  0.63628700  1
  C  971  1  0.60292400  0.12419900  0.60955600  1
  C  972  1  0.62384000  0.12405200  0.59820400  1
  C  973  1  0.64498700  0.12392800  0.60900300  1
  C  975  1  0.67148900  0.12385800  0.63553200  1
  C  976  1  0.68207700  0.12368100  0.61474700  1
  C  977  1  0.66578200  0.12360400  0.59843600  1
  C  978  1  0.68226900  0.12400500  0.65669000  1
  C  979  1  0.67093900  0.12421500  0.67761700  1
  C  981  1  0.64424100  0.12419800  0.70435500  1
  C  982  1  0.66511500  0.12466900  0.71478900  1
  C  983  1  0.68140900  0.12453700  0.69847400  1
  C  984  1  0.62332700  0.12405300  0.71572400  1
  C  985  1  0.60218000  0.12391300  0.70491700  1
  C  987  1  0.57569200  0.12385000  0.67837400  1
  C  988  1  0.56509100  0.12350200  0.69914900  1
  C  989  1  0.58137800  0.12342600  0.71546700  1
  C  990  1  0.56491900  0.12403000  0.65721800  1
  C  991  1  0.54104500  0.12402500  0.65704100  1
  C  992  1  0.52899600  0.10387100  0.65917100  1
  C  993  1  0.50547100  0.10392100  0.65917300  1
  C  994  1  0.49315500  0.12404000  0.65702100  1
  C  995  1  0.50548400  0.14414800  0.65484500  1
  C  996  1  0.52901000  0.14418400  0.65487800  1
  C  997  1  0.46915900  0.12404800  0.65707400  1
  C  998  1  0.45680200  0.13803200  0.64248600  1
  C  999  1  0.43327600  0.13809900  0.64255100  1
  C  1000  1  0.42126600  0.12405000  0.65718300  1
  C  1001  1  0.43334100  0.11000300  0.67176200  1
  C  1002  1  0.45686500  0.11007300  0.67172600  1
  C  1003  1  0.62351200  0.12405500  0.73962700  1
  C  1004  1  0.62813500  0.10430000  0.75166500  1
  C  1005  1  0.62831800  0.10433900  0.77519200  1
  C  1006  1  0.62370400  0.12402300  0.78750600  1
  C  1007  1  0.61899500  0.14372600  0.77525600  1
  C  1008  1  0.61899400  0.14379600  0.75173000  1
  C  1009  1  0.62376800  0.12400000  0.81146400  1
  C  1010  1  0.64069600  0.11284000  0.82369300  1
  C  1011  1  0.64081100  0.11283700  0.84722200  1
  C  1012  1  0.62387800  0.12393800  0.85928500  1
  C  1013  1  0.60689000  0.13507000  0.84732900  1
  C  1014  1  0.60689200  0.13512000  0.82380100  1
  C  1015  1  0.70615200  0.12397800  0.65686900  1
  C  1016  1  0.71821000  0.14399200  0.66007000  1
  C  1017  1  0.74173400  0.14392400  0.66020500  1
  C  1018  1  0.75403100  0.12393700  0.65702100  1
  C  1019  1  0.74172100  0.10397000  0.65377400  1
  C  1020  1  0.71819700  0.10394500  0.65374900  1
  C  1021  1  0.77800900  0.12391800  0.65706400  1
  C  1022  1  0.79033200  0.11104800  0.64146100  1
  C  1023  1  0.81385700  0.11097500  0.64149600  1
  C  1024  1  0.82585200  0.12386100  0.65716100  1
  C  1025  1  0.81382400  0.13678500  0.67277100  1
  C  1026  1  0.79029700  0.13677000  0.67270900  1
  C  1027  1  0.62365600  0.12406300  0.57431100  1
  C  1028  1  0.62751200  0.14394600  0.56222400  1
  C  1029  1  0.61975500  0.10415800  0.56227600  1
  C  1030  1  0.61969200  0.10417800  0.53874700  1
  C  1031  1  0.62362400  0.12401000  0.52641600  1
  C  1032  1  0.62753900  0.14387400  0.53869900  1
  C  1033  1  0.62368300  0.12396800  0.50243300  1
  C  1034  1  0.63981700  0.13620200  0.49015000  1
  C  1035  1  0.63991100  0.13618800  0.46662300  1
  C  1036  1  0.62382500  0.12387000  0.45458400  1
  C  1037  1  0.60766700  0.11160100  0.46657700  1
  C  1038  1  0.60762200  0.11168300  0.49010500  1
  C  1081  1  0.56572900  0.58200100  0.15762800  1
  C  1082  1  0.58204100  0.56570100  0.15753800  1
  C  1083  1  0.60290400  0.57616300  0.15751300  1
  C  1085  1  0.57617800  0.60286900  0.15745000  1
  C  1086  1  0.56482600  0.62378800  0.15740300  1
  C  1087  1  0.57562000  0.64494100  0.15734800  1
  C  1089  1  0.60213900  0.67145200  0.15725100  1
  C  1090  1  0.58134900  0.68203400  0.15717100  1
  C  1091  1  0.56504400  0.66573200  0.15711100  1
  C  1092  1  0.62329200  0.68224100  0.15735800  1
  C  1093  1  0.64421900  0.67090600  0.15753000  1
  C  1095  1  0.67095400  0.64420600  0.15751700  1
  C  1096  1  0.68138900  0.66508100  0.15791400  1
  C  1097  1  0.66507600  0.68137600  0.15778000  1
  C  1098  1  0.68232100  0.62329000  0.15744300  1
  C  1099  1  0.67151700  0.60213800  0.15737600  1
  C  1101  1  0.64498600  0.57562500  0.15732600  1
  C  1102  1  0.66577400  0.56504400  0.15721900  1
  C  1103  1  0.68208100  0.58134100  0.15711100  1
  C  1104  1  0.62383300  0.56482900  0.15741300  1
  C  1105  1  0.62365800  0.54093900  0.15740000  1
  C  1106  1  0.62711600  0.52886600  0.13743600  1
  C  1107  1  0.62714800  0.50534100  0.13749600  1
  C  1108  1  0.62361100  0.49304900  0.15742600  1
  C  1109  1  0.62007400  0.50536900  0.17733800  1
  C  1110  1  0.62015300  0.52889600  0.17737200  1
  C  1111  1  0.62365100  0.46906700  0.15744600  1
  C  1112  1  0.60784000  0.45674000  0.17005600  1
  C  1113  1  0.60785500  0.43321300  0.17009900  1
  C  1114  1  0.62373100  0.42121600  0.15746800  1
  C  1115  1  0.63956800  0.43325300  0.14483200  1
  C  1116  1  0.63951200  0.45678000  0.14486200  1
  C  1117  1  0.70622400  0.62348200  0.15745500  1
  C  1118  1  0.71826400  0.62800900  0.13768000  1
  C  1119  1  0.74178900  0.62821800  0.13772300  1
  C  1120  1  0.75410300  0.62370600  0.15743300  1
  C  1121  1  0.74185100  0.61909900  0.17715800  1
  C  1122  1  0.71832400  0.61908400  0.17722400  1
  C  1123  1  0.77806100  0.62377500  0.15741300  1
  C  1124  1  0.79028800  0.64064700  0.14616600  1
  C  1125  1  0.81381500  0.64075900  0.14615000  1
  C  1126  1  0.82588400  0.62388600  0.15734000  1
  C  1127  1  0.81392900  0.60696000  0.16856900  1
  C  1128  1  0.79040200  0.60696400  0.16862700  1
  C  1129  1  0.62346700  0.70612700  0.15733600  1
  C  1130  1  0.62672700  0.71818500  0.17734100  1
  C  1131  1  0.62685600  0.74171100  0.17727800  1
  C  1132  1  0.62361400  0.75401500  0.15730400  1
  C  1133  1  0.62031500  0.74170400  0.13734600  1
  C  1134  1  0.62028600  0.71817900  0.13731600  1
  C  1135  1  0.62365900  0.77799800  0.15728800  1
  C  1136  1  0.60804600  0.79032500  0.14443600  1
  C  1137  1  0.60807800  0.81385000  0.14436900  1
  C  1138  1  0.62376000  0.82584700  0.15723600  1
  C  1139  1  0.63938800  0.81381400  0.17013300  1
  C  1140  1  0.63932300  0.79028700  0.17011800  1
  C  1141  1  0.54093300  0.62360900  0.15740300  1
  C  1142  1  0.52884900  0.62731600  0.17731500  1
  C  1143  1  0.52889600  0.61987700  0.13746800  1
  C  1144  1  0.50536900  0.61980700  0.13749100  1
  C  1145  1  0.49303900  0.62360100  0.15735000  1
  C  1146  1  0.50532400  0.62736800  0.17724200  1
  C  1147  1  0.46905700  0.62366400  0.15731400  1
  C  1148  1  0.45677700  0.63970200  0.16968100  1
  C  1149  1  0.43325000  0.63980100  0.16967200  1
  C  1150  1  0.42120500  0.62381500  0.15722900  1
  C  1151  1  0.43319400  0.60775700  0.14482500  1
  C  1152  1  0.45672200  0.60770500  0.14490200  1
  C  1195  1  0.62441100  0.06571670  0.11530200  1
  C  1196  1  0.62409700  0.08201670  0.09901660  1
  C  1197  1  0.62414900  0.10288900  0.10946400  1
  C  1199  1  0.62418400  0.07613870  0.13618500  1
  C  1200  1  0.62420700  0.06473370  0.15709400  1
  C  1201  1  0.62418700  0.07556570  0.17824500  1
  C  1203  1  0.62412700  0.10208600  0.20480500  1
  C  1204  1  0.62426200  0.08127370  0.21534400  1
  C  1205  1  0.62401200  0.06499770  0.19904100  1
  C  1206  1  0.62413400  0.12322000  0.21566900  1
  C  1207  1  0.62416500  0.14414000  0.20428600  1
  C  1209  1  0.62411200  0.17089100  0.17756300  1
  C  1210  1  0.62431200  0.18131300  0.19844700  1
  C  1211  1  0.62402800  0.16501200  0.21473100  1
  C  1212  1  0.62408500  0.18229700  0.15665700  1
  C  1213  1  0.62406300  0.17146500  0.13550600  1
  C  1215  1  0.62401500  0.14494500  0.10894600  1
  C  1216  1  0.62408000  0.16575700  0.09840660  1
  C  1217  1  0.62382000  0.18203400  0.11471000  1
  C  1218  1  0.62405800  0.12381100  0.09808260  1
  C  1219  1  0.62402300  0.12365100  0.07414360  1
  C  1220  1  0.60468100  0.12972100  0.06203660  1
  C  1221  1  0.60478000  0.12996200  0.03851460  1
  C  1222  1  0.62403000  0.12362400  0.02634460  1
  C  1223  1  0.64327100  0.11727400  0.03852660  1
  C  1224  1  0.64336400  0.11754800  0.06205160  1
  C  1225  1  0.62404800  0.12367300  0.00249356  1
  C  1226  1  0.63095300  0.10465800  0.99027500  1
  C  1227  1  0.63069000  0.10460900  0.96674800  1
  C  1228  1  0.62404000  0.12376500  0.95461900  1
  C  1229  1  0.61740200  0.14287600  0.96682100  1
  C  1230  1  0.61715800  0.14274000  0.99034800  1
  C  1231  1  0.62407400  0.20623600  0.15685400  1
  C  1232  1  0.60477800  0.21827800  0.16319200  1
  C  1233  1  0.60484600  0.24180000  0.16356900  1
  C  1234  1  0.62401000  0.25403500  0.15708700  1
  C  1235  1  0.64320900  0.24191500  0.15050000  1
  C  1236  1  0.64333900  0.21839300  0.15064200  1
  C  1237  1  0.62396700  0.27788900  0.15716100  1
  C  1238  1  0.61706800  0.29001100  0.17623700  1
  C  1239  1  0.61724400  0.31353600  0.17637900  1
  C  1240  1  0.62387500  0.32580200  0.15729300  1
  C  1241  1  0.63054900  0.31366700  0.13813700  1
  C  1242  1  0.63081800  0.29014300  0.13815100  1
  C  1243  1  0.62411200  0.12338500  0.23961000  1
  C  1244  1  0.64340300  0.12966200  0.25169200  1
  C  1245  1  0.64329900  0.13000000  0.27521500  1
  C  1246  1  0.62410500  0.12353700  0.28741100  1
  C  1247  1  0.60491500  0.11699800  0.27525200  1
  C  1248  1  0.60481500  0.11719200  0.25172900  1
  C  1249  1  0.62410400  0.12358600  0.31126500  1
  C  1250  1  0.61723400  0.10456200  0.32348600  1
  C  1251  1  0.61744600  0.10453100  0.34701300  1
  C  1252  1  0.62406200  0.12368600  0.35917500  1
  C  1253  1  0.63070600  0.14278800  0.34694300  1
  C  1254  1  0.63095300  0.14266000  0.32341600  1
  C  1255  1  0.62422000  0.04079570  0.15690200  1
  C  1256  1  0.64349800  0.02865670  0.16311600  1
  C  1257  1  0.60491100  0.02873570  0.15063800  1
  C  1258  1  0.60497700  0.00521366  0.15034300  1
  C  1259  1  0.62414200  0.99299800  0.15685400  1
  C  1260  1  0.64335900  0.00513666  0.16335500  1
  C  1261  1  0.62408000  0.96914400  0.15690700  1
  C  1262  1  0.63092300  0.95698900  0.17598300  1
  C  1263  1  0.63062800  0.93346300  0.17612500  1
  C  1264  1  0.62395800  0.92124300  0.15702700  1
  C  1265  1  0.61733900  0.93340300  0.13787400  1
  C  1266  1  0.61716300  0.95693000  0.13789700  1
  C  1309  1  0.08191970  0.62452100  0.09904160  1
  C  1310  1  0.06562870  0.62420000  0.11533700  1
  C  1311  1  0.07606870  0.62420200  0.13621200  1
  C  1313  1  0.10280100  0.62424200  0.10947200  1
  C  1314  1  0.12371300  0.62422200  0.09807660  1
  C  1315  1  0.14486300  0.62417900  0.10890600  1
  C  1317  1  0.17142400  0.62413000  0.13542200  1
  C  1318  1  0.18196300  0.62421200  0.11461200  1
  C  1319  1  0.16565900  0.62396000  0.09833660  1
  C  1320  1  0.18228600  0.62417400  0.15655600  1
  C  1321  1  0.17089700  0.62424200  0.17747300  1
  C  1323  1  0.14416600  0.62419700  0.20421200  1
  C  1324  1  0.16504500  0.62446400  0.21464200  1
  C  1325  1  0.18133500  0.62419400  0.19834800  1
  C  1326  1  0.12325500  0.62412900  0.21560800  1
  C  1327  1  0.10210400  0.62406000  0.20477900  1
  C  1329  1  0.07554270  0.62398800  0.17826300  1
  C  1330  1  0.06500370  0.62400500  0.19907400  1
  C  1331  1  0.08131070  0.62375800  0.21535000  1
  C  1332  1  0.06468170  0.62406000  0.15712900  1
  C  1333  1  0.04074170  0.62401800  0.15696500  1
  C  1334  1  0.02863870  0.60466600  0.16300800  1
  C  1335  1  0.00511666  0.60476100  0.16325600  1
  C  1336  1  0.99294300  0.62402200  0.15695400  1
  C  1337  1  0.00512166  0.64326900  0.15061800  1
  C  1338  1  0.02864570  0.64336700  0.15089700  1
  C  1339  1  0.96909200  0.62403700  0.15701200  1
  C  1340  1  0.95686500  0.63096200  0.13801100  1
  C  1341  1  0.93333800  0.63071500  0.13797700  1
  C  1342  1  0.92121800  0.62403500  0.15712700  1
  C  1343  1  0.93342800  0.61736600  0.17622300  1
  C  1344  1  0.95695500  0.61711700  0.17607500  1
  C  1345  1  0.12344900  0.62412500  0.23954300  1
  C  1346  1  0.12980400  0.60483800  0.25158800  1
  C  1347  1  0.13017900  0.60491600  0.27510800  1
  C  1348  1  0.12368400  0.62407900  0.28734000  1
  C  1349  1  0.11708700  0.64327100  0.27520900  1
  C  1350  1  0.11721900  0.64338900  0.25168800  1
  C  1351  1  0.12375800  0.62404500  0.31119800  1
  C  1352  1  0.14275700  0.61694800  0.32332600  1
  C  1353  1  0.14289000  0.61710500  0.34685100  1
  C  1354  1  0.12388800  0.62395800  0.35913300  1
  C  1355  1  0.10482100  0.63086000  0.34697800  1
  C  1356  1  0.10483000  0.63110900  0.32345400  1
  C  1357  1  0.20622700  0.62415000  0.15672700  1
  C  1358  1  0.21831100  0.64345400  0.16295900  1
  C  1359  1  0.24183300  0.64334400  0.16331500  1
  C  1360  1  0.25402800  0.62413500  0.15689400  1
  C  1361  1  0.24186800  0.60493200  0.15039800  1
  C  1362  1  0.21834500  0.60483600  0.15058500  1
  C  1363  1  0.27788200  0.62413400  0.15694200  1
  C  1364  1  0.29010300  0.61722700  0.13793200  1
  C  1365  1  0.31363000  0.61742600  0.13790500  1
  C  1366  1  0.32579400  0.62407900  0.15704900  1
  C  1367  1  0.31356000  0.63077000  0.17613300  1
  C  1368  1  0.29003300  0.63102700  0.17600200  1
  C  1369  1  0.12352400  0.62423400  0.07413960  1
  C  1370  1  0.12975200  0.64350800  0.06200460  1
  C  1371  1  0.11724500  0.60492600  0.06208460  1
  C  1372  1  0.11695800  0.60498800  0.03856260  1
  C  1373  1  0.12347600  0.62415200  0.02634960  1
  C  1374  1  0.12998500  0.64336700  0.03848460  1
  C  1375  1  0.12352700  0.62408900  0.00249856  1
  C  1376  1  0.14260700  0.63092300  0.99034500  1
  C  1377  1  0.14274800  0.63063000  0.96682100  1
  C  1378  1  0.12364600  0.62396700  0.95460300  1
  C  1379  1  0.10448700  0.61735700  0.96676300  1
  C  1380  1  0.10451200  0.61718000  0.99028800  1
  C  1423  1  0.06565870  0.08191670  0.65785200  1
  C  1424  1  0.08194870  0.06561970  0.65752800  1
  C  1425  1  0.10282700  0.07605370  0.65754300  1
  C  1427  1  0.07609570  0.10279200  0.65758700  1
  C  1428  1  0.06470670  0.12370900  0.65758200  1
  C  1429  1  0.07554470  0.14485600  0.65755300  1
  C  1431  1  0.10207100  0.17140600  0.65749700  1
  C  1432  1  0.08126370  0.18195300  0.65759300  1
  C  1433  1  0.06498270  0.16565500  0.65733800  1
  C  1434  1  0.12321000  0.18225900  0.65752300  1
  C  1435  1  0.14412200  0.17086400  0.65758200  1
  C  1437  1  0.17085300  0.14412500  0.65753800  1
  C  1438  1  0.18128900  0.16500100  0.65779200  1
  C  1439  1  0.16500100  0.18129600  0.65752300  1
  C  1440  1  0.18224200  0.12321000  0.65747800  1
  C  1441  1  0.17140500  0.10206300  0.65741000  1
  C  1443  1  0.14487900  0.07551270  0.65734100  1
  C  1444  1  0.16568600  0.06496770  0.65735600  1
  C  1445  1  0.18196800  0.08126570  0.65712100  1
  C  1446  1  0.12373900  0.06466170  0.65740500  1
  C  1447  1  0.12356700  0.04072170  0.65735600  1
  C  1448  1  0.12960100  0.02862370  0.63799700  1
  C  1449  1  0.12983700  0.00510166  0.63808400  1
  C  1450  1  0.12352200  0.99292500  0.65733800  1
  C  1451  1  0.11720200  0.00509766  0.67659200  1
  C  1452  1  0.11749100  0.02862170  0.67670000  1
  C  1453  1  0.12356600  0.96907500  0.65734500  1
  C  1454  1  0.10455100  0.95685900  0.66425000  1
  C  1455  1  0.10450200  0.93333100  0.66399700  1
  C  1456  1  0.12365300  0.92120500  0.65733000  1
  C  1457  1  0.14276400  0.93340300  0.65068700  1
  C  1458  1  0.14262700  0.95692900  0.65043600  1
  C  1459  1  0.20617800  0.12339700  0.65747700  1
  C  1460  1  0.21822600  0.12974600  0.63818900  1
  C  1461  1  0.24174600  0.13011500  0.63827100  1
  C  1462  1  0.25397500  0.12363100  0.65743800  1
  C  1463  1  0.24184100  0.11702700  0.67662500  1
  C  1464  1  0.21832000  0.11716800  0.67674400  1
  C  1465  1  0.27783300  0.12371100  0.65741000  1
  C  1466  1  0.28995900  0.14271000  0.65030900  1
  C  1467  1  0.31348500  0.14285000  0.65048100  1
  C  1468  1  0.32576700  0.12385100  0.65734000  1
  C  1469  1  0.31361500  0.10478300  0.66424000  1
  C  1470  1  0.29009100  0.10478100  0.66446700  1
  C  1471  1  0.12338700  0.20619900  0.65749300  1
  C  1472  1  0.12962500  0.21828600  0.67679400  1
  C  1473  1  0.12999600  0.24180700  0.67667500  1
  C  1474  1  0.12358100  0.25399800  0.65746100  1
  C  1475  1  0.11708500  0.24183400  0.63825900  1
  C  1476  1  0.11725200  0.21831200  0.63817400  1
  C  1477  1  0.12364300  0.27785200  0.65745000  1
  C  1478  1  0.10464400  0.29008100  0.65052500  1
  C  1479  1  0.10463100  0.31360700  0.65071000  1
  C  1480  1  0.12377000  0.32576300  0.65738600  1
  C  1481  1  0.14284600  0.31352100  0.66408800  1
  C  1482  1  0.14270200  0.28999600  0.66435100  1
  C  1483  1  0.04077070  0.12352900  0.65759700  1
  C  1484  1  0.02864070  0.12974800  0.67687700  1
  C  1485  1  0.02871070  0.11726000  0.63829100  1
  C  1486  1  0.00518866  0.11698300  0.63835500  1
  C  1487  1  0.99298000  0.12348600  0.65752700  1
  C  1488  1  0.00511966  0.12998000  0.67674500  1
  C  1489  1  0.96913100  0.12353700  0.65747200  1
  C  1490  1  0.95697500  0.14261400  0.66431300  1
  C  1491  1  0.93345300  0.14275200  0.66402800  1
  C  1492  1  0.92123500  0.12365300  0.65736000  1
  C  1493  1  0.93339300  0.10449700  0.65073800  1
  C  1494  1  0.95691900  0.10452100  0.65056800  1
  C  1537  1  0.12394300  0.62390200  0.38302400  1
  C  1538  1  0.14169500  0.63355200  0.39521300  1
  C  1539  1  0.14193400  0.63374900  0.41886900  1
  C  1540  1  0.12403000  0.62381100  0.43083000  1
  C  1541  1  0.10608500  0.61391400  0.41889700  1
  C  1543  1  0.10624200  0.61419300  0.39524100  1
  C  1551  1  0.12370100  0.62391800  0.93074000  1
  C  1552  1  0.10656600  0.63456500  0.91850600  1
  C  1553  1  0.10646800  0.63480400  0.89485000  1
  C  1554  1  0.12381100  0.62382100  0.88299400  1
  C  1555  1  0.14110200  0.61288900  0.89497400  1
  C  1557  1  0.14089400  0.61322600  0.91862800  1
  C  1565  1  0.34966000  0.12391100  0.65729400  1
  C  1566  1  0.36184000  0.14165900  0.66696300  1
  C  1567  1  0.38549700  0.14191100  0.66715400  1
  C  1568  1  0.39746400  0.12401300  0.65721100  1
  C  1569  1  0.38553900  0.10606900  0.64730700  1
  C  1571  1  0.36188300  0.10621600  0.64758600  1
  C  1579  1  0.89737200  0.12370800  0.65731300  1
  C  1580  1  0.88514000  0.10657600  0.66796700  1
  C  1581  1  0.86148400  0.10647300  0.66820200  1
  C  1582  1  0.84962600  0.12381600  0.65721900  1
  C  1583  1  0.86160400  0.14110600  0.64628500  1
  C  1585  1  0.88526000  0.14089600  0.64661400  1
  C  1593  1  0.62382300  0.34967600  0.15735100  1
  C  1594  1  0.63423000  0.36184300  0.17468400  1
  C  1595  1  0.63447200  0.38550100  0.17489200  1
  C  1596  1  0.62374800  0.39743900  0.15744300  1
  C  1597  1  0.61305900  0.38553400  0.13995100  1
  C  1599  1  0.61336800  0.36187700  0.14007300  1
  C  1607  1  0.62391200  0.89737700  0.15708400  1
  C  1608  1  0.63455500  0.88514200  0.13994800  1
  C  1609  1  0.63479800  0.86148400  0.13984700  1
  C  1610  1  0.62381800  0.84962500  0.15719300  1
  C  1611  1  0.61288900  0.86160600  0.17448400  1
  C  1613  1  0.61322600  0.88526200  0.17427800  1
  C  1621  1  0.62401000  0.12380300  0.93078000  1
  C  1622  1  0.63547900  0.14046000  0.91864300  1
  C  1623  1  0.63576400  0.14061600  0.89498400  1
  C  1624  1  0.62392500  0.12389300  0.88305800  1
  C  1625  1  0.61212500  0.10712700  0.89496400  1
  C  1627  1  0.61250300  0.10718900  0.91862100  1
  C  1635  1  0.62402000  0.12373900  0.38304900  1
  C  1636  1  0.63451900  0.10651600  0.39529100  1
  C  1637  1  0.63473400  0.10639800  0.41894900  1
  C  1638  1  0.62389300  0.12382800  0.43080800  1
  C  1639  1  0.61312100  0.14121600  0.41882800  1
  C  1641  1  0.61346100  0.14101000  0.39517100  1
  C  1649  1  0.12383300  0.34964000  0.65734100  1
  C  1650  1  0.14117600  0.36175800  0.64689600  1
  C  1651  1  0.14138900  0.38541400  0.64655200  1
  C  1652  1  0.12393500  0.39740000  0.65721300  1
  C  1653  1  0.10643300  0.38554600  0.66794200  1
  C  1655  1  0.10654800  0.36188800  0.66773000  1
  C  1663  1  0.12369100  0.89736700  0.65730300  1
  C  1664  1  0.10710400  0.88520800  0.64575900  1
  C  1665  1  0.10704400  0.86155100  0.64538300  1
  C  1666  1  0.12377800  0.84964600  0.65722800  1
  C  1667  1  0.14047000  0.86157400  0.66911100  1
  C  1669  1  0.14032400  0.88523200  0.66880800  1
  C  1677  1  0.34966600  0.62403000  0.15710400  1
  C  1678  1  0.36191200  0.63448500  0.13985600  1
  C  1679  1  0.38556900  0.63469100  0.13973400  1
  C  1680  1  0.39742700  0.62389000  0.15718900  1
  C  1681  1  0.38544400  0.61316600  0.17460600  1
  C  1683  1  0.36178600  0.61351600  0.17440300  1
  C  1691  1  0.89737900  0.62400800  0.15717800  1
  C  1692  1  0.88524800  0.63545400  0.17385700  1
  C  1693  1  0.86158900  0.63574400  0.17402100  1
  C  1694  1  0.84965600  0.62393000  0.15728600  1
  C  1695  1  0.86155300  0.61215400  0.14049900  1
  C  1697  1  0.88521000  0.61252100  0.14055500  1
  N  4  1  0.00712900  0.48148800  0.48152300  1
  N  8  1  0.00716900  0.48088100  0.53239400  1
  N  14  1  0.00708900  0.53182600  0.53179500  1
  N  20  1  0.00720200  0.53243900  0.48093100  1
  N  118  1  0.48155800  0.00710200  0.48149300  1
  N  122  1  0.53242600  0.00715400  0.48088800  1
  N  128  1  0.53182600  0.00710700  0.53183700  1
  N  134  1  0.48096500  0.00722600  0.53244800  1
  N  232  1  0.48151300  0.48149300  0.00714400  1
  N  236  1  0.48090100  0.53238800  0.00710400  1
  N  242  1  0.53183300  0.53179300  0.00706000  1
  N  248  1  0.53244600  0.48090500  0.00716700  1
  N  346  1  0.50722700  0.98147900  0.98140200  1
  N  350  1  0.50727700  0.98085100  0.03232900  1
  N  356  1  0.50723400  0.03176400  0.03176500  1
  N  362  1  0.50719600  0.03239400  0.98084000  1
  N  460  1  0.98140700  0.50726100  0.98141100  1
  N  464  1  0.03234600  0.50730400  0.98079300  1
  N  470  1  0.03177300  0.50727600  0.03169000  1
  N  476  1  0.98083600  0.50721600  0.03231100  1
  N  574  1  0.98143200  0.98139400  0.50721400  1
  N  578  1  0.98083000  0.03232900  0.50727100  1
  N  584  1  0.03173000  0.03173800  0.50722200  1
  N  590  1  0.03233400  0.98080400  0.50716400  1
  N  693  1  0.04269000  0.52720100  0.28047600  1
  N  694  1  0.97158200  0.48663900  0.28052700  1
  N  707  1  0.97257500  0.52916800  0.73254800  1
  N  708  1  0.04126100  0.48468900  0.73279500  1
  N  721  1  0.28049600  0.04266700  0.52721100  1
  N  722  1  0.28057400  0.97157500  0.48662400  1
  N  735  1  0.73258100  0.97258000  0.52916800  1
  N  736  1  0.73282200  0.04126700  0.48469000  1
  N  749  1  0.52858400  0.28054200  0.04181700  1
  N  750  1  0.48513500  0.28060400  0.97248000  1
  N  763  1  0.52916000  0.73258100  0.97255700  1
  N  764  1  0.48469200  0.73282300  0.04124700  1
  N  777  1  0.53083100  0.04027800  0.73274500  1
  N  778  1  0.48321800  0.97373200  0.73270500  1
  N  791  1  0.52890100  0.97238000  0.28067100  1
  N  792  1  0.48510800  0.04149500  0.28042900  1
  N  805  1  0.04173300  0.28040500  0.48523500  1
  N  806  1  0.97235500  0.28066900  0.52861200  1
  N  819  1  0.97367600  0.73268800  0.48304200  1
  N  820  1  0.04010100  0.73273500  0.53082500  1
  N  833  1  0.28069100  0.52882200  0.97229500  1
  N  834  1  0.28043900  0.48517800  0.04150500  1
  N  847  1  0.73275500  0.53080000  0.04029800  1
  N  848  1  0.73268500  0.48326600  0.97369700  1
  N  856  1  0.12402200  0.59838100  0.63181400  1
  N  860  1  0.12406200  0.59777400  0.68268500  1
  N  866  1  0.12398200  0.64871900  0.68208600  1
  N  872  1  0.12409500  0.64933200  0.63122200  1
  N  970  1  0.59845100  0.12399500  0.63178400  1
  N  974  1  0.64931900  0.12404700  0.63117900  1
  N  980  1  0.64871900  0.12400000  0.68212800  1
  N  986  1  0.59785800  0.12411900  0.68273900  1
  N  1084  1  0.59840600  0.59838600  0.15743500  1
  N  1088  1  0.59779400  0.64928100  0.15739500  1
  N  1094  1  0.64872600  0.64868600  0.15735100  1
  N  1100  1  0.64933900  0.59779800  0.15745800  1
  N  1198  1  0.62412000  0.09837170  0.13169300  1
  N  1202  1  0.62417000  0.09774370  0.18262000  1
  N  1208  1  0.62412700  0.14865700  0.18205600  1
  N  1214  1  0.62408900  0.14928700  0.13113100  1
  N  1312  1  0.09829970  0.62415400  0.13170200  1
  N  1316  1  0.14923900  0.62419700  0.13108400  1
  N  1322  1  0.14866600  0.62416900  0.18198100  1
  N  1328  1  0.09772870  0.62410900  0.18260200  1
  N  1426  1  0.09832470  0.09828670  0.65750500  1
  N  1430  1  0.09772270  0.14922200  0.65756200  1
  N  1436  1  0.14862300  0.14863100  0.65751300  1
  N  1442  1  0.14922700  0.09769670  0.65745500  1
  N  1545  1  0.15958300  0.64409400  0.43076700  1
  N  1546  1  0.08847470  0.60353200  0.43081800  1
  N  1559  1  0.08946770  0.64606100  0.88283900  1
  N  1560  1  0.15815400  0.60158200  0.88308600  1
  N  1573  1  0.39738900  0.15956000  0.67750200  1
  N  1574  1  0.39746700  0.08846770  0.63691500  1
  N  1587  1  0.84947400  0.08947270  0.67945900  1
  N  1588  1  0.84971500  0.15816000  0.63498100  1
  N  1601  1  0.64547700  0.39743500  0.19210800  1
  N  1602  1  0.60202800  0.39749700  0.12277100  1
  N  1615  1  0.64605300  0.84947400  0.12284800  1
  N  1616  1  0.60158500  0.84971600  0.19153800  1
  N  1629  1  0.64772400  0.15717100  0.88303600  1
  N  1630  1  0.60011100  0.09062470  0.88299600  1
  N  1643  1  0.64579400  0.08927270  0.43096200  1
  N  1644  1  0.60200100  0.15838800  0.43072000  1
  N  1657  1  0.15862600  0.39729800  0.63552600  1
  N  1658  1  0.08924770  0.39756200  0.67890300  1
  N  1671  1  0.09056870  0.84958100  0.63333300  1
  N  1672  1  0.15699400  0.84962800  0.68111600  1
  N  1685  1  0.39758400  0.64571500  0.12258600  1
  N  1686  1  0.39733200  0.60207100  0.19179600  1
  N  1699  1  0.84964800  0.64769300  0.19058900  1
  N  1700  1  0.84957800  0.60015900  0.12398800  1
  O  695  1  0.06116700  0.51824900  0.27615600  1
  O  696  1  0.97032900  0.46617000  0.27607900  1
  O  697  1  0.04392000  0.54768700  0.27609400  1
  O  698  1  0.95309100  0.49561300  0.27630200  1
  O  709  1  0.95362000  0.52123400  0.73678300  1
  O  710  1  0.04138200  0.46418100  0.73724200  1
  O  711  1  0.97243500  0.54969400  0.73690800  1
  O  712  1  0.06019800  0.49264100  0.73708000  1
  O  723  1  0.27616600  0.06114600  0.51826400  1
  O  724  1  0.27612500  0.97033300  0.46615300  1
  O  725  1  0.27611500  0.04389000  0.54769900  1
  O  726  1  0.27635600  0.95307900  0.49558800  1
  O  737  1  0.73681900  0.95362500  0.52123400  1
  O  738  1  0.73726500  0.04138700  0.46418100  1
  O  739  1  0.73694000  0.97244200  0.54969400  1
  O  740  1  0.73711300  0.06020300  0.49264100  1
  O  751  1  0.54910300  0.27617200  0.04224900  1
  O  752  1  0.46462700  0.27617600  0.97202400  1
  O  753  1  0.52036300  0.27623100  0.06063200  1
  O  754  1  0.49337500  0.27638300  0.95365400  1
  O  765  1  0.52122300  0.73681800  0.95360200  1
  O  766  1  0.46418400  0.73727200  0.04137000  1
  O  767  1  0.54968600  0.73694500  0.97241500  1
  O  768  1  0.49264600  0.73711000  0.06018300  1
  O  779  1  0.55134400  0.03953300  0.73710700  1
  O  780  1  0.46272300  0.97447400  0.73714800  1
  O  781  1  0.52370600  0.05953600  0.73705500  1
  O  782  1  0.49034800  0.95445500  0.73691300  1
  O  793  1  0.52076500  0.95351300  0.27641600  1
  O  794  1  0.49327200  0.06034300  0.27614600  1
  O  795  1  0.54942900  0.97201900  0.27633100  1
  O  796  1  0.46460300  0.04184500  0.27597700  1
  O  807  1  0.04219700  0.27594800  0.46473300  1
  O  808  1  0.97187400  0.27632900  0.54913800  1
  O  809  1  0.06053400  0.27612000  0.49350400  1
  O  810  1  0.95353300  0.27641800  0.52036900  1
  O  821  1  0.95438200  0.73690000  0.49012800  1
  O  822  1  0.05937700  0.73703700  0.52374400  1
  O  823  1  0.97446200  0.73712800  0.46254800  1
  O  824  1  0.03930700  0.73710700  0.55133300  1
  O  835  1  0.27642900  0.52065200  0.95344500  1
  O  836  1  0.27616400  0.49337700  0.06033900  1
  O  837  1  0.27635600  0.54935000  0.97189600  1
  O  838  1  0.27597700  0.46467700  0.04189200  1
  O  849  1  0.73712300  0.55131200  0.03956900  1
  O  850  1  0.73712300  0.46276800  0.97441400  1
  O  851  1  0.73707000  0.52365700  0.05954900  1
  O  852  1  0.73689000  0.49041600  0.95442500  1
  O  1547  1  0.17806000  0.63514200  0.42644700  1
  O  1548  1  0.08722170  0.58306300  0.42637000  1
  O  1549  1  0.16081300  0.66458000  0.42638500  1
  O  1550  1  0.06998370  0.61250600  0.42659300  1
  O  1561  1  0.07051270  0.63812700  0.88707400  1
  O  1562  1  0.15827500  0.58107400  0.88753300  1
  O  1563  1  0.08932770  0.66658700  0.88719900  1
  O  1564  1  0.17709100  0.60953400  0.88737100  1
  O  1575  1  0.39305900  0.17803900  0.66855500  1
  O  1576  1  0.39301800  0.08722570  0.61644400  1
  O  1577  1  0.39300800  0.16078300  0.69799000  1
  O  1578  1  0.39324900  0.06997170  0.64587900  1
  O  1589  1  0.85371200  0.07051770  0.67152500  1
  O  1590  1  0.85415800  0.15828000  0.61447200  1
  O  1591  1  0.85383300  0.08933470  0.69998500  1
  O  1592  1  0.85400600  0.17709600  0.64293200  1
  O  1603  1  0.66599600  0.39306500  0.19254000  1
  O  1604  1  0.58152000  0.39306900  0.12231500  1
  O  1605  1  0.63725600  0.39312400  0.21092300  1
  O  1606  1  0.61026800  0.39327600  0.10394500  1
  O  1617  1  0.63811600  0.85371100  0.10389300  1
  O  1618  1  0.58107700  0.85416500  0.19166100  1
  O  1619  1  0.66657900  0.85383800  0.12270600  1
  O  1620  1  0.60953900  0.85400300  0.21047400  1
  O  1631  1  0.66823700  0.15642600  0.88739800  1
  O  1632  1  0.57961600  0.09136670  0.88743900  1
  O  1633  1  0.64059900  0.17642900  0.88734600  1
  O  1634  1  0.60724100  0.07134770  0.88720400  1
  O  1645  1  0.63765800  0.07040570  0.42670700  1
  O  1646  1  0.61016500  0.17723600  0.42643700  1
  O  1647  1  0.66632200  0.08891170  0.42662200  1
  O  1648  1  0.58149600  0.15873800  0.42626800  1
  O  1659  1  0.15909000  0.39284100  0.61502400  1
  O  1660  1  0.08876670  0.39322200  0.69942900  1
  O  1661  1  0.17742700  0.39301300  0.64379500  1
  O  1662  1  0.07042570  0.39331100  0.67066000  1
  O  1673  1  0.07127470  0.85379300  0.64041900  1
  O  1674  1  0.17627000  0.85393000  0.67403500  1
  O  1675  1  0.09135470  0.85402100  0.61283900  1
  O  1676  1  0.15620000  0.85400000  0.70162400  1
  O  1687  1  0.39332200  0.63754500  0.10373600  1
  O  1688  1  0.39305700  0.61027000  0.21063000  1
  O  1689  1  0.39324900  0.66624300  0.12218700  1
  O  1690  1  0.39287000  0.58157000  0.19218300  1
  O  1701  1  0.85401600  0.66820500  0.18986000  1
  O  1702  1  0.85401600  0.57966100  0.12470500  1
  O  1703  1  0.85396300  0.64055000  0.20984000  1
  O  1704  1  0.85378300  0.60730900  0.10471600  1
