# generated using pymatgen
data_H11C14(N2O)2
_symmetry_space_group_name_H-M   'P 1'
_cell_length_a   36.12880000
_cell_length_b   36.12880000
_cell_length_c   36.12880000
_cell_angle_alpha   90.00000000
_cell_angle_beta   90.00000000
_cell_angle_gamma   90.00000000
_symmetry_Int_Tables_number   1
_chemical_formula_structural   H11C14(N2O)2
_chemical_formula_sum   'H352 C448 N128 O64'
_cell_volume   47158.56819624
_cell_formula_units_Z   32
loop_
 _symmetry_equiv_pos_site_id
 _symmetry_equiv_pos_as_xyz
  1  'x, y, z'
loop_
 _atom_site_type_symbol
 _atom_site_label
 _atom_site_symmetry_multiplicity
 _atom_site_fract_x
 _atom_site_fract_y
 _atom_site_fract_z
 _atom_site_occupancy
  H  7  1  0.95735400  0.99813300  0.03593300  1
  H  16  1  0.06071300  0.03688400  0.99981600  1
  H  19  1  0.06287000  0.95142500  0.96914800  1
  H  20  1  0.95497600  0.97473300  0.94750800  1
  H  21  1  0.00528200  0.87907800  0.08142800  1
  H  22  1  0.01512100  0.08971400  0.88275900  1
  H  27  1  0.06686500  0.11647500  0.95890100  1
  H  28  1  0.09223200  0.91098600  0.02848300  1
  H  29  1  0.94977800  0.96319700  0.11074100  1
  H  30  1  0.94043400  0.03593700  0.89367300  1
  H  37  1  0.54477900  0.00415500  0.53606300  1
  H  46  1  0.44140200  0.96532800  0.50001200  1
  H  49  1  0.43917600  0.05077200  0.46934100  1
  H  50  1  0.54707700  0.02752600  0.44764300  1
  H  51  1  0.49681700  0.12322400  0.58152000  1
  H  52  1  0.48701600  0.91249700  0.38294100  1
  H  57  1  0.43528200  0.88571500  0.45910800  1
  H  58  1  0.40986700  0.09125800  0.52867900  1
  H  59  1  0.55244600  0.03909800  0.61080700  1
  H  60  1  0.56162700  0.96632200  0.39381600  1
  H  67  1  0.25363300  0.69180900  0.28389800  1
  H  76  1  0.21492000  0.79723200  0.24934300  1
  H  79  1  0.29975000  0.80002500  0.22137500  1
  H  80  1  0.27591200  0.69071800  0.19708900  1
  H  81  1  0.37227400  0.73954900  0.33063400  1
  H  82  1  0.16334100  0.75463700  0.13130700  1
  H  87  1  0.13669400  0.80570200  0.20465500  1
  H  88  1  0.33763400  0.82911800  0.28273600  1
  H  89  1  0.29077100  0.68126900  0.35832700  1
  H  90  1  0.20903000  0.68266400  0.13754000  1
  H  97  1  0.24844600  0.31059700  0.78343100  1
  H  106  1  0.28774000  0.20509500  0.74964100  1
  H  109  1  0.20318400  0.20173300  0.72139200  1
  H  110  1  0.22666400  0.31115100  0.69657000  1
  H  111  1  0.12984600  0.26236700  0.83006400  1
  H  112  1  0.33977600  0.24744400  0.63164900  1
  H  117  1  0.36624000  0.19693400  0.70481800  1
  H  118  1  0.16475200  0.17323300  0.78255400  1
  H  119  1  0.21214400  0.32247400  0.85668900  1
  H  120  1  0.29353900  0.31965400  0.63765800  1
  H  127  1  0.74737400  0.29359700  0.71688900  1
  H  136  1  0.79054500  0.19097000  0.74938600  1
  H  139  1  0.70713700  0.18727500  0.78644300  1
  H  140  1  0.72972600  0.29486500  0.80694200  1
  H  141  1  0.62692200  0.24244200  0.67885800  1
  H  142  1  0.84687700  0.23269000  0.86533600  1
  H  147  1  0.87231100  0.18519700  0.79135000  1
  H  148  1  0.66666667  0.15555900  0.72899300  1
  H  149  1  0.70920500  0.30102600  0.64509300  1
  H  150  1  0.79220800  0.30907800  0.85789300  1
  H  157  1  0.75476200  0.70884200  0.21685700  1
  H  166  1  0.71152200  0.81142600  0.24941300  1
  H  169  1  0.79498700  0.81519500  0.28636500  1
  H  170  1  0.77257000  0.70761400  0.30687700  1
  H  171  1  0.87512800  0.76006500  0.17871300  1
  H  172  1  0.65543300  0.76964200  0.36546200  1
  H  177  1  0.62982000  0.81709400  0.29149900  1
  H  178  1  0.83538700  0.84691800  0.22891600  1
  H  179  1  0.79305500  0.70148000  0.14494600  1
  H  180  1  0.71016300  0.69335300  0.35796400  1
  H  187  1  0.45446100  0.49866900  0.53555100  1
  H  196  1  0.55772200  0.53991300  0.50181100  1
  H  199  1  0.56243800  0.45405400  0.47135300  1
  H  200  1  0.45449700  0.47533300  0.44719500  1
  H  201  1  0.50229200  0.37977800  0.57976200  1
  H  202  1  0.51472600  0.59214900  0.38432000  1
  H  207  1  0.56187400  0.62017600  0.45895000  1
  H  208  1  0.59338900  0.41793800  0.53216300  1
  H  209  1  0.44619600  0.46086600  0.61041100  1
  H  210  1  0.44479000  0.54164000  0.38841400  1
  H  217  1  0.04812100  0.50359900  0.03527400  1
  H  226  1  0.94476500  0.46215300  0.00205400  1
  H  229  1  0.93960000  0.54800400  0.97184100  1
  H  230  1  0.04750000  0.52712600  0.94697400  1
  H  231  1  0.00018400  0.62226300  0.08008500  1
  H  232  1  0.98737700  0.41026900  0.88416500  1
  H  237  1  0.94081800  0.38199200  0.95890400  1
  H  238  1  0.90924000  0.58421300  0.03263700  1
  H  239  1  0.05729000  0.54059700  0.10972300  1
  H  240  1  0.05650600  0.46025400  0.88755600  1
  H  243  1  0.93801200  0.87565700  0.20807200  1
  H  244  1  0.89437900  0.86888400  0.22823100  1
  H  245  1  0.90922600  0.91413300  0.21804000  1
  H  250  1  0.85911900  0.90953600  0.04516100  1
  H  251  1  0.84007000  0.86488700  0.05207500  1
  H  252  1  0.88732900  0.86954800  0.03993100  1
  H  259  1  0.56407400  0.12666700  0.70819500  1
  H  260  1  0.60769900  0.13356300  0.72832600  1
  H  261  1  0.59296200  0.08826900  0.71816500  1
  H  266  1  0.64293900  0.09297300  0.54523900  1
  H  267  1  0.66191000  0.13765300  0.55215300  1
  H  268  1  0.61465200  0.13291000  0.54003800  1
  H  275  1  0.37156500  0.65845300  0.45792600  1
  H  276  1  0.38343700  0.61231000  0.46930500  1
  H  277  1  0.33685600  0.62372500  0.45974500  1
  H  282  1  0.35892700  0.60191100  0.28180600  1
  H  283  1  0.40610000  0.59106400  0.28955600  1
  H  284  1  0.39254900  0.63780200  0.28368500  1
  H  291  1  0.13180600  0.34539200  0.95802600  1
  H  292  1  0.11987200  0.39164100  0.96889600  1
  H  293  1  0.16636600  0.38030600  0.95884000  1
  H  298  1  0.14154200  0.39929700  0.78090700  1
  H  299  1  0.09443800  0.41003100  0.78920800  1
  H  300  1  0.10813900  0.36327300  0.78386300  1
  H  307  1  0.59989300  0.91340800  0.28004300  1
  H  308  1  0.64674500  0.90002300  0.27501600  1
  H  309  1  0.63588700  0.94306600  0.29551500  1
  H  314  1  0.62170400  0.87279200  0.45994900  1
  H  315  1  0.63130900  0.82827400  0.44182000  1
  H  316  1  0.58500500  0.84422800  0.44384300  1
  H  323  1  0.90217000  0.08888900  0.77990500  1
  H  324  1  0.85532700  0.10230500  0.77489500  1
  H  325  1  0.86616600  0.05925200  0.79538800  1
  H  330  1  0.88045100  0.12951000  0.95982300  1
  H  331  1  0.87087100  0.17403600  0.94169600  1
  H  332  1  0.91716400  0.15805000  0.94370200  1
  H  339  1  0.12926000  0.65697500  0.03842300  1
  H  340  1  0.11722400  0.61063300  0.02805700  1
  H  341  1  0.16381400  0.62205600  0.03756500  1
  H  346  1  0.14086400  0.60402300  0.21580000  1
  H  347  1  0.09368700  0.59320300  0.20804000  1
  H  348  1  0.10738500  0.63999700  0.21307200  1
  H  355  1  0.37274200  0.34594600  0.53808900  1
  H  356  1  0.38483200  0.39233800  0.52802800  1
  H  357  1  0.33827600  0.38096200  0.53776500  1
  H  362  1  0.36244000  0.39747600  0.71596400  1
  H  363  1  0.40958800  0.40825600  0.70799300  1
  H  364  1  0.39582300  0.36145700  0.71275100  1
  H  371  1  0.05981400  0.15047500  0.81618900  1
  H  372  1  0.09865200  0.16763900  0.79276700  1
  H  373  1  0.08964200  0.11952400  0.79249600  1
  H  378  1  0.16649300  0.08928400  0.95234100  1
  H  379  1  0.18576800  0.13433800  0.95110100  1
  H  380  1  0.14174600  0.12733500  0.97137600  1
  H  387  1  0.44262500  0.85176700  0.31639900  1
  H  388  1  0.40383300  0.83482200  0.29274200  1
  H  389  1  0.41295100  0.88290900  0.29277000  1
  H  394  1  0.33554700  0.91279400  0.45232400  1
  H  395  1  0.31630800  0.86772700  0.45099800  1
  H  396  1  0.36026700  0.87474600  0.47140000  1
  H  403  1  0.62087700  0.31265100  0.54896200  1
  H  404  1  0.60959200  0.35602900  0.53046900  1
  H  405  1  0.65645200  0.34468400  0.53815600  1
  H  410  1  0.65319400  0.38793500  0.71347600  1
  H  411  1  0.60791700  0.40580400  0.70759400  1
  H  412  1  0.61414000  0.35836000  0.71823100  1
  H  419  1  0.88134800  0.68952800  0.04922700  1
  H  420  1  0.89338000  0.64623600  0.03101800  1
  H  421  1  0.84628400  0.65700600  0.03821300  1
  H  426  1  0.84905200  0.61471500  0.21391200  1
  H  427  1  0.89442300  0.59702900  0.20821400  1
  H  428  1  0.88795700  0.64448900  0.21862900  1
  H  435  1  0.39287500  0.10050400  0.71265100  1
  H  436  1  0.34755700  0.11785200  0.71927200  1
  H  437  1  0.35392600  0.07388700  0.69892000  1
  H  442  1  0.36345800  0.14010800  0.53293000  1
  H  443  1  0.36037500  0.18537700  0.55107600  1
  H  444  1  0.40435400  0.16485200  0.54518100  1
  H  451  1  0.10970200  0.90153900  0.21238400  1
  H  452  1  0.15509600  0.88433100  0.21883900  1
  H  453  1  0.14851900  0.92831300  0.19858300  1
  H  458  1  0.13871800  0.86228300  0.03251400  1
  H  459  1  0.14196600  0.81700300  0.05059700  1
  H  460  1  0.09791800  0.83742400  0.04484900  1
  H  467  1  0.84631500  0.34931400  0.97069500  1
  H  468  1  0.85865700  0.39653700  0.97481900  1
  H  469  1  0.81566300  0.38436100  0.95499300  1
  H  474  1  0.88360600  0.36990800  0.78990300  1
  H  475  1  0.92823300  0.38060800  0.80712700  1
  H  476  1  0.91324500  0.33395800  0.80575400  1
  H  483  1  0.65617000  0.65297600  0.47072500  1
  H  484  1  0.64385000  0.60574700  0.47487400  1
  H  485  1  0.68685400  0.61793700  0.45506400  1
  H  490  1  0.61888900  0.63233000  0.28994600  1
  H  491  1  0.57428800  0.62154100  0.30717600  1
  H  492  1  0.58918400  0.66822100  0.30581200  1
  H  503  1  0.95735400  0.99813300  0.36807800  1
  H  512  1  0.06071300  0.03688400  0.33196100  1
  H  515  1  0.06287000  0.95142500  0.30129300  1
  H  516  1  0.95497600  0.97473300  0.27965300  1
  H  517  1  0.00528200  0.87907800  0.41357300  1
  H  518  1  0.01512100  0.08971400  0.21490400  1
  H  523  1  0.06686500  0.11647500  0.29104600  1
  H  524  1  0.09223200  0.91098600  0.36062800  1
  H  525  1  0.94977800  0.96319700  0.44288600  1
  H  526  1  0.94043400  0.03593700  0.22581800  1
  H  533  1  0.54477900  0.00415500  0.86820800  1
  H  542  1  0.44140200  0.96532800  0.83215700  1
  H  545  1  0.43917600  0.05077200  0.80148600  1
  H  546  1  0.54707700  0.02752600  0.77978800  1
  H  547  1  0.49681700  0.12322400  0.91366500  1
  H  548  1  0.48701600  0.91249700  0.71508600  1
  H  553  1  0.43528200  0.88571500  0.79125300  1
  H  554  1  0.40986700  0.09125800  0.86082400  1
  H  555  1  0.55244600  0.03909800  0.94295200  1
  H  556  1  0.56162700  0.96632200  0.72596100  1
  H  563  1  0.25363300  0.69180900  0.61604300  1
  H  572  1  0.21492000  0.79723200  0.58148800  1
  H  575  1  0.29975000  0.80002500  0.55352000  1
  H  576  1  0.27591200  0.69071800  0.52923400  1
  H  577  1  0.37227400  0.73954900  0.66277900  1
  H  578  1  0.16334100  0.75463700  0.46345200  1
  H  583  1  0.13669400  0.80570200  0.53680000  1
  H  584  1  0.33763400  0.82911800  0.61488100  1
  H  585  1  0.29077100  0.68126900  0.69047200  1
  H  586  1  0.20903000  0.68266400  0.46968500  1
  H  593  1  0.24844600  0.31059700  0.11557600  1
  H  602  1  0.28774000  0.20509500  0.08178600  1
  H  605  1  0.20318400  0.20173300  0.05353700  1
  H  606  1  0.22666400  0.31115100  0.02871500  1
  H  607  1  0.12984600  0.26236700  0.16220900  1
  H  608  1  0.33977600  0.24744400  0.96379400  1
  H  613  1  0.36624000  0.19693400  0.03696300  1
  H  614  1  0.16475200  0.17323300  0.11469900  1
  H  615  1  0.21214400  0.32247400  0.18883400  1
  H  616  1  0.29353900  0.31965400  0.96980300  1
  H  623  1  0.74737400  0.29359700  0.04903400  1
  H  632  1  0.79054500  0.19097000  0.08153100  1
  H  635  1  0.70713700  0.18727500  0.11858800  1
  H  636  1  0.72972600  0.29486500  0.13908700  1
  H  637  1  0.62692200  0.24244200  0.01100300  1
  H  638  1  0.84687700  0.23269000  0.19748100  1
  H  643  1  0.87231100  0.18519700  0.12349500  1
  H  644  1  0.66666667  0.15555900  0.06113800  1
  H  645  1  0.70920500  0.30102600  0.97723800  1
  H  646  1  0.79220800  0.30907800  0.19003800  1
  H  653  1  0.75476200  0.70884200  0.54900200  1
  H  662  1  0.71152200  0.81142600  0.58155800  1
  H  665  1  0.79498700  0.81519500  0.61851000  1
  H  666  1  0.77257000  0.70761400  0.63902200  1
  H  667  1  0.87512800  0.76006500  0.51085800  1
  H  668  1  0.65543300  0.76964200  0.69760700  1
  H  673  1  0.62982000  0.81709400  0.62364400  1
  H  674  1  0.83538700  0.84691800  0.56106100  1
  H  675  1  0.79305500  0.70148000  0.47709100  1
  H  676  1  0.71016300  0.69335300  0.69010900  1
  H  683  1  0.45446100  0.49866900  0.86769600  1
  H  692  1  0.55772200  0.53991300  0.83395600  1
  H  695  1  0.56243800  0.45405400  0.80349800  1
  H  696  1  0.45449700  0.47533300  0.77934000  1
  H  697  1  0.50229200  0.37977800  0.91190700  1
  H  698  1  0.51472600  0.59214900  0.71646500  1
  H  703  1  0.56187400  0.62017600  0.79109500  1
  H  704  1  0.59338900  0.41793800  0.86430800  1
  H  705  1  0.44619600  0.46086600  0.94255600  1
  H  706  1  0.44479000  0.54164000  0.72055900  1
  H  713  1  0.04812100  0.50359900  0.36741900  1
  H  722  1  0.94476500  0.46215300  0.33419900  1
  H  725  1  0.93960000  0.54800400  0.30398600  1
  H  726  1  0.04750000  0.52712600  0.27911900  1
  H  727  1  0.00018400  0.62226300  0.41223000  1
  H  728  1  0.98737700  0.41026900  0.21631000  1
  H  733  1  0.94081800  0.38199200  0.29104900  1
  H  734  1  0.90924000  0.58421300  0.36478200  1
  H  735  1  0.05729000  0.54059700  0.44186800  1
  H  736  1  0.05650600  0.46025400  0.21970100  1
  H  739  1  0.93801200  0.87565700  0.54021700  1
  H  740  1  0.89437900  0.86888400  0.56037600  1
  H  741  1  0.90922600  0.91413300  0.55018500  1
  H  746  1  0.85911900  0.90953600  0.37730600  1
  H  747  1  0.84007000  0.86488700  0.38422000  1
  H  748  1  0.88732900  0.86954800  0.37207600  1
  H  755  1  0.56407400  0.12666700  0.04034000  1
  H  756  1  0.60769900  0.13356300  0.06047100  1
  H  757  1  0.59296200  0.08826900  0.05031000  1
  H  762  1  0.64293900  0.09297300  0.87738400  1
  H  763  1  0.66191000  0.13765300  0.88429800  1
  H  764  1  0.61465200  0.13291000  0.87218300  1
  H  771  1  0.37156500  0.65845300  0.79007100  1
  H  772  1  0.38343700  0.61231000  0.80145000  1
  H  773  1  0.33685600  0.62372500  0.79189000  1
  H  778  1  0.35892700  0.60191100  0.61395100  1
  H  779  1  0.40610000  0.59106400  0.62170100  1
  H  780  1  0.39254900  0.63780200  0.61583000  1
  H  787  1  0.13180600  0.34539200  0.29017100  1
  H  788  1  0.11987200  0.39164100  0.30104100  1
  H  789  1  0.16636600  0.38030600  0.29098500  1
  H  794  1  0.14154200  0.39929700  0.11305200  1
  H  795  1  0.09443800  0.41003100  0.12135300  1
  H  796  1  0.10813900  0.36327300  0.11600800  1
  H  803  1  0.59989300  0.91340800  0.61218800  1
  H  804  1  0.64674500  0.90002300  0.60716100  1
  H  805  1  0.63588700  0.94306600  0.62766000  1
  H  810  1  0.62170400  0.87279200  0.79209400  1
  H  811  1  0.63130900  0.82827400  0.77396500  1
  H  812  1  0.58500500  0.84422800  0.77598800  1
  H  819  1  0.90217000  0.08888900  0.11205000  1
  H  820  1  0.85532700  0.10230500  0.10704000  1
  H  821  1  0.86616600  0.05925200  0.12753300  1
  H  826  1  0.88045100  0.12951000  0.29196800  1
  H  827  1  0.87087100  0.17403600  0.27384100  1
  H  828  1  0.91716400  0.15805000  0.27584700  1
  H  835  1  0.12926000  0.65697500  0.37056800  1
  H  836  1  0.11722400  0.61063300  0.36020200  1
  H  837  1  0.16381400  0.62205600  0.36971000  1
  H  842  1  0.14086400  0.60402300  0.54794500  1
  H  843  1  0.09368700  0.59320300  0.54018500  1
  H  844  1  0.10738500  0.63999700  0.54521700  1
  H  851  1  0.37274200  0.34594600  0.87023400  1
  H  852  1  0.38483200  0.39233800  0.86017300  1
  H  853  1  0.33827600  0.38096200  0.86991000  1
  H  858  1  0.36244000  0.39747600  0.04810900  1
  H  859  1  0.40958800  0.40825600  0.04013800  1
  H  860  1  0.39582300  0.36145700  0.04489600  1
  H  867  1  0.05981400  0.15047500  0.14833400  1
  H  868  1  0.09865200  0.16763900  0.12491200  1
  H  869  1  0.08964200  0.11952400  0.12464100  1
  H  874  1  0.16649300  0.08928400  0.28448600  1
  H  875  1  0.18576800  0.13433800  0.28324600  1
  H  876  1  0.14174600  0.12733500  0.30352100  1
  H  883  1  0.44262500  0.85176700  0.64854400  1
  H  884  1  0.40383300  0.83482200  0.62488700  1
  H  885  1  0.41295100  0.88290900  0.62491500  1
  H  890  1  0.33554700  0.91279400  0.78446900  1
  H  891  1  0.31630800  0.86772700  0.78314300  1
  H  892  1  0.36026700  0.87474600  0.80354500  1
  H  899  1  0.62087700  0.31265100  0.88110700  1
  H  900  1  0.60959200  0.35602900  0.86261400  1
  H  901  1  0.65645200  0.34468400  0.87030100  1
  H  906  1  0.65319400  0.38793500  0.04562100  1
  H  907  1  0.60791700  0.40580400  0.03973900  1
  H  908  1  0.61414000  0.35836000  0.05037600  1
  H  915  1  0.88134800  0.68952800  0.38137200  1
  H  916  1  0.89338000  0.64623600  0.36316300  1
  H  917  1  0.84628400  0.65700600  0.37035800  1
  H  922  1  0.84905200  0.61471500  0.54605700  1
  H  923  1  0.89442300  0.59702900  0.54035900  1
  H  924  1  0.88795700  0.64448900  0.55077400  1
  H  931  1  0.39287500  0.10050400  0.04479600  1
  H  932  1  0.34755700  0.11785200  0.05141700  1
  H  933  1  0.35392600  0.07388700  0.03106500  1
  H  938  1  0.36345800  0.14010800  0.86507500  1
  H  939  1  0.36037500  0.18537700  0.88322100  1
  H  940  1  0.40435400  0.16485200  0.87732600  1
  H  947  1  0.10970200  0.90153900  0.54452900  1
  H  948  1  0.15509600  0.88433100  0.55098400  1
  H  949  1  0.14851900  0.92831300  0.53072800  1
  H  954  1  0.13871800  0.86228300  0.36465900  1
  H  955  1  0.14196600  0.81700300  0.38274200  1
  H  956  1  0.09791800  0.83742400  0.37699400  1
  H  963  1  0.84631500  0.34931400  0.30284000  1
  H  964  1  0.85865700  0.39653700  0.30696400  1
  H  965  1  0.81566300  0.38436100  0.28713800  1
  H  970  1  0.88360600  0.36990800  0.12204800  1
  H  971  1  0.92823300  0.38060800  0.13927200  1
  H  972  1  0.91324500  0.33395800  0.13789900  1
  H  979  1  0.65617000  0.65297600  0.80287000  1
  H  980  1  0.64385000  0.60574700  0.80701900  1
  H  981  1  0.68685400  0.61793700  0.78720900  1
  H  986  1  0.61888900  0.63233000  0.62209100  1
  H  987  1  0.57428800  0.62154100  0.63932100  1
  H  988  1  0.58918400  0.66822100  0.63795700  1
  C  1  1  0.00954400  0.98565200  0.01219600  1
  C  2  1  0.97970100  0.98070900  0.03714000  1
  C  3  1  0.98007000  0.95226600  0.06386800  1
  C  4  1  0.01156000  0.92917900  0.06703900  1
  C  5  1  0.04280900  0.93462100  0.04385600  1
  C  6  1  0.04080600  0.96185400  0.01551100  1
  C  9  1  0.00831700  0.01490000  0.98527900  1
  C  10  1  0.97760600  0.01997700  0.96110400  1
  C  11  1  0.97692800  0.04969500  0.93541300  1
  C  12  1  0.00830700  0.07308900  0.93211600  1
  C  13  1  0.03933400  0.06798400  0.95544700  1
  C  14  1  0.03858900  0.03965500  0.98226500  1
  C  23  1  0.07043900  0.09000400  0.95223000  1
  C  24  1  0.07424200  0.91282100  0.04909100  1
  C  25  1  0.95085500  0.94768300  0.08802200  1
  C  26  1  0.94693500  0.05524400  0.91217600  1
  C  31  1  0.49255800  0.01659000  0.51236500  1
  C  32  1  0.52242300  0.02157100  0.53727600  1
  C  33  1  0.52206900  0.05003100  0.56398600  1
  C  34  1  0.49057300  0.07310800  0.56716600  1
  C  35  1  0.45930700  0.06763800  0.54401300  1
  C  36  1  0.46129200  0.04038000  0.51568900  1
  C  39  1  0.49378100  0.98733800  0.48545300  1
  C  40  1  0.52448000  0.98227300  0.46126400  1
  C  41  1  0.52516600  0.95254600  0.43558100  1
  C  42  1  0.49380000  0.92913500  0.43229800  1
  C  43  1  0.46277800  0.93422800  0.45564000  1
  C  44  1  0.46351700  0.96256800  0.48244900  1
  C  53  1  0.43168400  0.91218200  0.45243700  1
  C  54  1  0.42786700  0.08942000  0.54927700  1
  C  55  1  0.55130300  0.05464500  0.58811600  1
  C  56  1  0.55515100  0.94701600  0.41232500  1
  C  61  1  0.26533500  0.74510700  0.26226300  1
  C  62  1  0.27071700  0.71434200  0.28600200  1
  C  63  1  0.29933200  0.71382500  0.31253500  1
  C  64  1  0.32188200  0.74553900  0.31712400  1
  C  65  1  0.31587900  0.77778800  0.29545700  1
  C  66  1  0.28881700  0.77647300  0.26689600  1
  C  69  1  0.23630700  0.74449300  0.23498600  1
  C  70  1  0.23096800  0.71399300  0.21056100  1
  C  71  1  0.20171600  0.71413700  0.18438000  1
  C  72  1  0.17913200  0.74599800  0.18061500  1
  C  73  1  0.18440500  0.77676900  0.20421200  1
  C  74  1  0.21212400  0.77523800  0.23164700  1
  C  83  1  0.16371400  0.80864900  0.19996600  1
  C  84  1  0.33711400  0.80945500  0.30190100  1
  C  85  1  0.30492100  0.68325100  0.33481600  1
  C  86  1  0.19528600  0.68431400  0.16131500  1
  C  91  1  0.23708800  0.25711200  0.76206600  1
  C  92  1  0.23146300  0.28799500  0.78560100  1
  C  93  1  0.20271400  0.28856000  0.81199300  1
  C  94  1  0.18032600  0.25674900  0.81670700  1
  C  95  1  0.18658200  0.22439900  0.79526900  1
  C  96  1  0.21373800  0.22566200  0.76680200  1
  C  99  1  0.26624200  0.25768500  0.73491900  1
  C  100  1  0.27161300  0.28808400  0.71038100  1
  C  101  1  0.30102600  0.28793100  0.68438000  1
  C  102  1  0.32371700  0.25611900  0.68086800  1
  C  103  1  0.31839700  0.22541400  0.70454700  1
  C  104  1  0.29054700  0.22700600  0.73184600  1
  C  113  1  0.33922000  0.19352500  0.70061900  1
  C  114  1  0.16562700  0.19259900  0.80203400  1
  C  115  1  0.19683900  0.31924400  0.83404500  1
  C  116  1  0.30752200  0.31770000  0.66127100  1
  C  121  1  0.73769500  0.24113400  0.74122900  1
  C  122  1  0.73042600  0.27085600  0.71673100  1
  C  123  1  0.70033700  0.26978800  0.69184800  1
  C  124  1  0.67797000  0.23764000  0.69007900  1
  C  125  1  0.68567300  0.20647500  0.71280100  1
  C  126  1  0.71447000  0.20934200  0.73947500  1
  C  129  1  0.76863700  0.24272500  0.76613500  1
  C  130  1  0.77445800  0.27295800  0.79071100  1
  C  131  1  0.80516500  0.27329900  0.81525600  1
  C  132  1  0.82888300  0.24202200  0.81692500  1
  C  133  1  0.82331600  0.21164900  0.79284800  1
  C  134  1  0.79393000  0.21277900  0.76722800  1
  C  143  1  0.84536800  0.18040900  0.79472400  1
  C  144  1  0.66480800  0.17410700  0.70886500  1
  C  145  1  0.69380500  0.29880600  0.66780300  1
  C  146  1  0.81124600  0.30277800  0.83904100  1
  C  151  1  0.76441900  0.76132400  0.24117200  1
  C  152  1  0.77168400  0.73160300  0.21667200  1
  C  153  1  0.80173500  0.73270400  0.19174900  1
  C  154  1  0.82408600  0.76486200  0.18996600  1
  C  155  1  0.81639100  0.79601700  0.21270400  1
  C  156  1  0.78761600  0.79313300  0.23940100  1
  C  159  1  0.73352400  0.75970200  0.26613500  1
  C  160  1  0.72778600  0.72946300  0.29072100  1
  C  161  1  0.69712300  0.72908700  0.31531700  1
  C  162  1  0.67336700  0.76033300  0.31702700  1
  C  163  1  0.67885300  0.79071100  0.29293800  1
  C  164  1  0.70820000  0.78962000  0.26727200  1
  C  173  1  0.65675900  0.82191900  0.29484300  1
  C  174  1  0.83725000  0.82838700  0.20877100  1
  C  175  1  0.80832000  0.70366100  0.16775100  1
  C  176  1  0.69111700  0.69960100  0.33910700  1
  C  181  1  0.50751300  0.48745700  0.51319500  1
  C  182  1  0.47713800  0.48171300  0.53725900  1
  C  183  1  0.47727100  0.45292200  0.56356200  1
  C  184  1  0.50904900  0.43028600  0.56725700  1
  C  185  1  0.54107300  0.43671000  0.54527200  1
  C  186  1  0.53915800  0.46428900  0.51717800  1
  C  189  1  0.50617000  0.51666300  0.48625200  1
  C  190  1  0.47580900  0.52099200  0.46150800  1
  C  191  1  0.47505100  0.55059200  0.43574100  1
  C  192  1  0.50581000  0.57480800  0.43302600  1
  C  193  1  0.53643100  0.57055700  0.45706200  1
  C  194  1  0.53590000  0.54213600  0.48380800  1
  C  203  1  0.56697800  0.59343000  0.45448300  1
  C  204  1  0.57302000  0.41530600  0.55034800  1
  C  205  1  0.44715900  0.44742200  0.58641400  1
  C  206  1  0.44542600  0.55566000  0.41208400  1
  C  211  1  0.99490000  0.51472000  0.01326700  1
  C  212  1  0.02540800  0.52048800  0.03716100  1
  C  213  1  0.02537300  0.54923300  0.06351800  1
  C  214  1  0.99354900  0.57176100  0.06747000  1
  C  215  1  0.96140900  0.56532000  0.04565800  1
  C  216  1  0.96321900  0.53779900  0.01749800  1
  C  219  1  0.99615600  0.48558000  0.98624700  1
  C  220  1  0.02638900  0.48138400  0.96132300  1
  C  221  1  0.02707200  0.45185100  0.93548200  1
  C  222  1  0.99635900  0.42756200  0.93288000  1
  C  223  1  0.96584500  0.43168400  0.95708800  1
  C  224  1  0.96647700  0.46003800  0.98390900  1
  C  233  1  0.93532100  0.40868300  0.95473800  1
  C  234  1  0.92940100  0.58657700  0.05111800  1
  C  235  1  0.05561300  0.55477700  0.08619100  1
  C  236  1  0.05655600  0.44692600  0.91162600  1
  C  241  1  0.90945000  0.88551600  0.20836600  1
  C  242  1  0.89417400  0.88399100  0.17043100  1
  C  247  1  0.90619500  0.90438500  0.10795400  1
  C  248  1  0.87528100  0.88416000  0.09529300  1
  C  249  1  0.86479600  0.88185700  0.05583900  1
  C  254  1  0.86250400  0.86428400  0.15778400  1
  C  257  1  0.59266100  0.11687900  0.70847700  1
  C  258  1  0.60791500  0.11842700  0.67053500  1
  C  263  1  0.59589400  0.09802000  0.60806100  1
  C  264  1  0.62676400  0.11830500  0.59538700  1
  C  265  1  0.63721800  0.12063800  0.55592800  1
  C  270  1  0.63954000  0.13819600  0.65787500  1
  C  273  1  0.36550900  0.62944300  0.45208600  1
  C  274  1  0.37058000  0.62220200  0.41212600  1
  C  279  1  0.35128000  0.63933800  0.35069000  1
  C  280  1  0.37787600  0.61494500  0.33555000  1
  C  281  1  0.38429200  0.61118300  0.29533000  1
  C  286  1  0.39722100  0.59776800  0.39698600  1
  C  289  1  0.13763700  0.37434200  0.95167700  1
  C  290  1  0.13196200  0.38097100  0.91169200  1
  C  295  1  0.15043800  0.36300700  0.85024500  1
  C  296  1  0.12348300  0.38701900  0.83513000  1
  C  297  1  0.11643300  0.39011600  0.79496200  1
  C  302  1  0.10495200  0.40502400  0.89658500  1
  C  305  1  0.62715100  0.91426100  0.29302100  1
  C  306  1  0.62504800  0.89743200  0.33022700  1
  C  311  1  0.59730800  0.90114400  0.39066700  1
  C  312  1  0.61710100  0.86923300  0.40175700  1
  C  313  1  0.61361400  0.85261400  0.43898000  1
  C  318  1  0.64457800  0.86533600  0.34140700  1
  C  321  1  0.87491800  0.08805200  0.79289500  1
  C  322  1  0.87704600  0.10487800  0.83009800  1
  C  327  1  0.90480300  0.10114500  0.89052900  1
  C  328  1  0.88503700  0.13306800  0.90162800  1
  C  329  1  0.88854700  0.14968300  0.93885000  1
  C  334  1  0.85754100  0.13698700  0.84128800  1
  C  337  1  0.13515500  0.62808100  0.04495600  1
  C  338  1  0.12986600  0.62177900  0.08504000  1
  C  343  1  0.14893200  0.64011100  0.14619700  1
  C  344  1  0.12221200  0.61609600  0.16172400  1
  C  345  1  0.11559600  0.61312600  0.20198100  1
  C  350  1  0.10310900  0.59772000  0.10056700  1
  C  353  1  0.36697100  0.37479800  0.54490700  1
  C  354  1  0.37255400  0.38074900  0.58500500  1
  C  359  1  0.35385700  0.36195300  0.64613100  1
  C  360  1  0.38072700  0.38578100  0.66168100  1
  C  361  1  0.38760000  0.38842700  0.70191700  1
  C  366  1  0.39947400  0.40461400  0.60055200  1
  C  369  1  0.08864400  0.14461300  0.80927500  1
  C  370  1  0.11002100  0.13873600  0.84368000  1
  C  375  1  0.10870800  0.10701000  0.90228700  1
  C  376  1  0.14187600  0.12478800  0.91291800  1
  C  377  1  0.16004800  0.11860400  0.94900600  1
  C  382  1  0.14365500  0.15632400  0.85410600  1
  C  385  1  0.41383400  0.85772900  0.30941800  1
  C  386  1  0.39236100  0.86347600  0.34378700  1
  C  391  1  0.39349500  0.89512900  0.40244100  1
  C  392  1  0.36030000  0.87733100  0.41294800  1
  C  393  1  0.34202100  0.88347900  0.44898900  1
  C  398  1  0.35869800  0.84586100  0.35408600  1
  C  401  1  0.62842700  0.34191300  0.54907200  1
  C  402  1  0.62743900  0.35609000  0.58745200  1
  C  407  1  0.64885100  0.34266300  0.64932200  1
  C  408  1  0.62778200  0.37252900  0.66312300  1
  C  409  1  0.62558700  0.38173700  0.70290300  1
  C  414  1  0.60697100  0.38677800  0.60125800  1
  C  417  1  0.87416800  0.66017200  0.04937800  1
  C  418  1  0.87498700  0.64613300  0.08781200  1
  C  423  1  0.85334000  0.65972400  0.14956400  1
  C  424  1  0.87450800  0.63001900  0.16355100  1
  C  425  1  0.87665300  0.62099600  0.20337500  1
  C  430  1  0.89555200  0.61560400  0.10181000  1
  C  433  1  0.36516600  0.10186600  0.70071300  1
  C  434  1  0.36730300  0.11810300  0.66324400  1
  C  439  1  0.39153800  0.11013700  0.60152900  1
  C  440  1  0.37390400  0.14346200  0.59038300  1
  C  441  1  0.37564800  0.15933800  0.55274500  1
  C  446  1  0.34993200  0.15136900  0.65205100  1
  C  449  1  0.13737900  0.90029400  0.20036200  1
  C  450  1  0.13518400  0.88411600  0.16286900  1
  C  455  1  0.11072600  0.89208400  0.10124200  1
  C  456  1  0.12844300  0.85883900  0.08999100  1
  C  457  1  0.12663100  0.84300200  0.05234100  1
  C  462  1  0.15264500  0.85093400  0.15156900  1
  C  465  1  0.84469000  0.37633200  0.95729300  1
  C  466  1  0.86114800  0.37400100  0.91993700  1
  C  471  1  0.85706000  0.34546400  0.85987200  1
  C  472  1  0.88833700  0.36583900  0.84805300  1
  C  473  1  0.90433500  0.36241800  0.81055400  1
  C  478  1  0.89262700  0.39412100  0.90802700  1
  C  481  1  0.65782200  0.62595000  0.45734200  1
  C  482  1  0.64138700  0.62824200  0.41997300  1
  C  487  1  0.64540300  0.65680400  0.35991800  1
  C  488  1  0.61415900  0.63637400  0.34809900  1
  C  489  1  0.59814900  0.63977600  0.31060300  1
  C  494  1  0.60994600  0.60806400  0.40806000  1
  C  497  1  0.00954400  0.98565200  0.34434100  1
  C  498  1  0.97970100  0.98070900  0.36928500  1
  C  499  1  0.98007000  0.95226600  0.39601300  1
  C  500  1  0.01156000  0.92917900  0.39918400  1
  C  501  1  0.04280900  0.93462100  0.37600100  1
  C  502  1  0.04080600  0.96185400  0.34765600  1
  C  505  1  0.00831700  0.01490000  0.31742400  1
  C  506  1  0.97760600  0.01997700  0.29324900  1
  C  507  1  0.97692800  0.04969500  0.26755800  1
  C  508  1  0.00830700  0.07308900  0.26426100  1
  C  509  1  0.03933400  0.06798400  0.28759200  1
  C  510  1  0.03858900  0.03965500  0.31441000  1
  C  519  1  0.07043900  0.09000400  0.28437500  1
  C  520  1  0.07424200  0.91282100  0.38123600  1
  C  521  1  0.95085500  0.94768300  0.42016700  1
  C  522  1  0.94693500  0.05524400  0.24432100  1
  C  527  1  0.49255800  0.01659000  0.84451000  1
  C  528  1  0.52242300  0.02157100  0.86942100  1
  C  529  1  0.52206900  0.05003100  0.89613100  1
  C  530  1  0.49057300  0.07310800  0.89931100  1
  C  531  1  0.45930700  0.06763800  0.87615800  1
  C  532  1  0.46129200  0.04038000  0.84783400  1
  C  535  1  0.49378100  0.98733800  0.81759800  1
  C  536  1  0.52448000  0.98227300  0.79340900  1
  C  537  1  0.52516600  0.95254600  0.76772600  1
  C  538  1  0.49380000  0.92913500  0.76444300  1
  C  539  1  0.46277800  0.93422800  0.78778500  1
  C  540  1  0.46351700  0.96256800  0.81459400  1
  C  549  1  0.43168400  0.91218200  0.78458200  1
  C  550  1  0.42786700  0.08942000  0.88142200  1
  C  551  1  0.55130300  0.05464500  0.92026100  1
  C  552  1  0.55515100  0.94701600  0.74447000  1
  C  557  1  0.26533500  0.74510700  0.59440800  1
  C  558  1  0.27071700  0.71434200  0.61814700  1
  C  559  1  0.29933200  0.71382500  0.64468000  1
  C  560  1  0.32188200  0.74553900  0.64926900  1
  C  561  1  0.31587900  0.77778800  0.62760200  1
  C  562  1  0.28881700  0.77647300  0.59904100  1
  C  565  1  0.23630700  0.74449300  0.56713100  1
  C  566  1  0.23096800  0.71399300  0.54270600  1
  C  567  1  0.20171600  0.71413700  0.51652500  1
  C  568  1  0.17913200  0.74599800  0.51276000  1
  C  569  1  0.18440500  0.77676900  0.53635700  1
  C  570  1  0.21212400  0.77523800  0.56379200  1
  C  579  1  0.16371400  0.80864900  0.53211100  1
  C  580  1  0.33711400  0.80945500  0.63404600  1
  C  581  1  0.30492100  0.68325100  0.66696100  1
  C  582  1  0.19528600  0.68431400  0.49346000  1
  C  587  1  0.23708800  0.25711200  0.09421100  1
  C  588  1  0.23146300  0.28799500  0.11774600  1
  C  589  1  0.20271400  0.28856000  0.14413800  1
  C  590  1  0.18032600  0.25674900  0.14885200  1
  C  591  1  0.18658200  0.22439900  0.12741400  1
  C  592  1  0.21373800  0.22566200  0.09894700  1
  C  595  1  0.26624200  0.25768500  0.06706400  1
  C  596  1  0.27161300  0.28808400  0.04252600  1
  C  597  1  0.30102600  0.28793100  0.01652500  1
  C  598  1  0.32371700  0.25611900  0.01301300  1
  C  599  1  0.31839700  0.22541400  0.03669200  1
  C  600  1  0.29054700  0.22700600  0.06399100  1
  C  609  1  0.33922000  0.19352500  0.03276400  1
  C  610  1  0.16562700  0.19259900  0.13417900  1
  C  611  1  0.19683900  0.31924400  0.16619000  1
  C  612  1  0.30752200  0.31770000  0.99341600  1
  C  617  1  0.73769500  0.24113400  0.07337400  1
  C  618  1  0.73042600  0.27085600  0.04887600  1
  C  619  1  0.70033700  0.26978800  0.02399300  1
  C  620  1  0.67797000  0.23764000  0.02222400  1
  C  621  1  0.68567300  0.20647500  0.04494600  1
  C  622  1  0.71447000  0.20934200  0.07162000  1
  C  625  1  0.76863700  0.24272500  0.09828000  1
  C  626  1  0.77445800  0.27295800  0.12285600  1
  C  627  1  0.80516500  0.27329900  0.14740100  1
  C  628  1  0.82888300  0.24202200  0.14907000  1
  C  629  1  0.82331600  0.21164900  0.12499300  1
  C  630  1  0.79393000  0.21277900  0.09937300  1
  C  639  1  0.84536800  0.18040900  0.12686900  1
  C  640  1  0.66480800  0.17410700  0.04101000  1
  C  641  1  0.69380500  0.29880600  0.99994800  1
  C  642  1  0.81124600  0.30277800  0.17118600  1
  C  647  1  0.76441900  0.76132400  0.57331700  1
  C  648  1  0.77168400  0.73160300  0.54881700  1
  C  649  1  0.80173500  0.73270400  0.52389400  1
  C  650  1  0.82408600  0.76486200  0.52211100  1
  C  651  1  0.81639100  0.79601700  0.54484900  1
  C  652  1  0.78761600  0.79313300  0.57154600  1
  C  655  1  0.73352400  0.75970200  0.59828000  1
  C  656  1  0.72778600  0.72946300  0.62286600  1
  C  657  1  0.69712300  0.72908700  0.64746200  1
  C  658  1  0.67336700  0.76033300  0.64917200  1
  C  659  1  0.67885300  0.79071100  0.62508300  1
  C  660  1  0.70820000  0.78962000  0.59941700  1
  C  669  1  0.65675900  0.82191900  0.62698800  1
  C  670  1  0.83725000  0.82838700  0.54091600  1
  C  671  1  0.80832000  0.70366100  0.49989600  1
  C  672  1  0.69111700  0.69960100  0.67125200  1
  C  677  1  0.50751300  0.48745700  0.84534000  1
  C  678  1  0.47713800  0.48171300  0.86940400  1
  C  679  1  0.47727100  0.45292200  0.89570700  1
  C  680  1  0.50904900  0.43028600  0.89940200  1
  C  681  1  0.54107300  0.43671000  0.87741700  1
  C  682  1  0.53915800  0.46428900  0.84932300  1
  C  685  1  0.50617000  0.51666300  0.81839700  1
  C  686  1  0.47580900  0.52099200  0.79365300  1
  C  687  1  0.47505100  0.55059200  0.76788600  1
  C  688  1  0.50581000  0.57480800  0.76517100  1
  C  689  1  0.53643100  0.57055700  0.78920700  1
  C  690  1  0.53590000  0.54213600  0.81595300  1
  C  699  1  0.56697800  0.59343000  0.78662800  1
  C  700  1  0.57302000  0.41530600  0.88249300  1
  C  701  1  0.44715900  0.44742200  0.91855900  1
  C  702  1  0.44542600  0.55566000  0.74422900  1
  C  707  1  0.99490000  0.51472000  0.34541200  1
  C  708  1  0.02540800  0.52048800  0.36930600  1
  C  709  1  0.02537300  0.54923300  0.39566300  1
  C  710  1  0.99354900  0.57176100  0.39961500  1
  C  711  1  0.96140900  0.56532000  0.37780300  1
  C  712  1  0.96321900  0.53779900  0.34964300  1
  C  715  1  0.99615600  0.48558000  0.31839200  1
  C  716  1  0.02638900  0.48138400  0.29346800  1
  C  717  1  0.02707200  0.45185100  0.26762700  1
  C  718  1  0.99635900  0.42756200  0.26502500  1
  C  719  1  0.96584500  0.43168400  0.28923300  1
  C  720  1  0.96647700  0.46003800  0.31605400  1
  C  729  1  0.93532100  0.40868300  0.28688300  1
  C  730  1  0.92940100  0.58657700  0.38326300  1
  C  731  1  0.05561300  0.55477700  0.41833600  1
  C  732  1  0.05655600  0.44692600  0.24377100  1
  C  737  1  0.90945000  0.88551600  0.54051100  1
  C  738  1  0.89417400  0.88399100  0.50257600  1
  C  743  1  0.90619500  0.90438500  0.44009900  1
  C  744  1  0.87528100  0.88416000  0.42743800  1
  C  745  1  0.86479600  0.88185700  0.38798400  1
  C  750  1  0.86250400  0.86428400  0.48992900  1
  C  753  1  0.59266100  0.11687900  0.04062200  1
  C  754  1  0.60791500  0.11842700  0.00267999  1
  C  759  1  0.59589400  0.09802000  0.94020600  1
  C  760  1  0.62676400  0.11830500  0.92753200  1
  C  761  1  0.63721800  0.12063800  0.88807300  1
  C  766  1  0.63954000  0.13819600  0.99002000  1
  C  769  1  0.36550900  0.62944300  0.78423100  1
  C  770  1  0.37058000  0.62220200  0.74427100  1
  C  775  1  0.35128000  0.63933800  0.68283500  1
  C  776  1  0.37787600  0.61494500  0.66769500  1
  C  777  1  0.38429200  0.61118300  0.62747500  1
  C  782  1  0.39722100  0.59776800  0.72913100  1
  C  785  1  0.13763700  0.37434200  0.28382200  1
  C  786  1  0.13196200  0.38097100  0.24383700  1
  C  791  1  0.15043800  0.36300700  0.18239000  1
  C  792  1  0.12348300  0.38701900  0.16727500  1
  C  793  1  0.11643300  0.39011600  0.12710700  1
  C  798  1  0.10495200  0.40502400  0.22873000  1
  C  801  1  0.62715100  0.91426100  0.62516600  1
  C  802  1  0.62504800  0.89743200  0.66237200  1
  C  807  1  0.59730800  0.90114400  0.72281200  1
  C  808  1  0.61710100  0.86923300  0.73390200  1
  C  809  1  0.61361400  0.85261400  0.77112500  1
  C  814  1  0.64457800  0.86533600  0.67355200  1
  C  817  1  0.87491800  0.08805200  0.12504000  1
  C  818  1  0.87704600  0.10487800  0.16224300  1
  C  823  1  0.90480300  0.10114500  0.22267400  1
  C  824  1  0.88503700  0.13306800  0.23377300  1
  C  825  1  0.88854700  0.14968300  0.27099500  1
  C  830  1  0.85754100  0.13698700  0.17343300  1
  C  833  1  0.13515500  0.62808100  0.37710100  1
  C  834  1  0.12986600  0.62177900  0.41718500  1
  C  839  1  0.14893200  0.64011100  0.47834200  1
  C  840  1  0.12221200  0.61609600  0.49386900  1
  C  841  1  0.11559600  0.61312600  0.53412600  1
  C  846  1  0.10310900  0.59772000  0.43271200  1
  C  849  1  0.36697100  0.37479800  0.87705200  1
  C  850  1  0.37255400  0.38074900  0.91715000  1
  C  855  1  0.35385700  0.36195300  0.97827600  1
  C  856  1  0.38072700  0.38578100  0.99382600  1
  C  857  1  0.38760000  0.38842700  0.03406200  1
  C  862  1  0.39947400  0.40461400  0.93269700  1
  C  865  1  0.08864400  0.14461300  0.14142000  1
  C  866  1  0.11002100  0.13873600  0.17582500  1
  C  871  1  0.10870800  0.10701000  0.23443200  1
  C  872  1  0.14187600  0.12478800  0.24506300  1
  C  873  1  0.16004800  0.11860400  0.28115100  1
  C  878  1  0.14365500  0.15632400  0.18625100  1
  C  881  1  0.41383400  0.85772900  0.64156300  1
  C  882  1  0.39236100  0.86347600  0.67593200  1
  C  887  1  0.39349500  0.89512900  0.73458600  1
  C  888  1  0.36030000  0.87733100  0.74509300  1
  C  889  1  0.34202100  0.88347900  0.78113400  1
  C  894  1  0.35869800  0.84586100  0.68623100  1
  C  897  1  0.62842700  0.34191300  0.88121700  1
  C  898  1  0.62743900  0.35609000  0.91959700  1
  C  903  1  0.64885100  0.34266300  0.98146700  1
  C  904  1  0.62778200  0.37252900  0.99526800  1
  C  905  1  0.62558700  0.38173700  0.03504800  1
  C  910  1  0.60697100  0.38677800  0.93340300  1
  C  913  1  0.87416800  0.66017200  0.38152300  1
  C  914  1  0.87498700  0.64613300  0.41995700  1
  C  919  1  0.85334000  0.65972400  0.48170900  1
  C  920  1  0.87450800  0.63001900  0.49569600  1
  C  921  1  0.87665300  0.62099600  0.53552000  1
  C  926  1  0.89555200  0.61560400  0.43395500  1
  C  929  1  0.36516600  0.10186600  0.03285800  1
  C  930  1  0.36730300  0.11810300  0.99538900  1
  C  935  1  0.39153800  0.11013700  0.93367400  1
  C  936  1  0.37390400  0.14346200  0.92252800  1
  C  937  1  0.37564800  0.15933800  0.88489000  1
  C  942  1  0.34993200  0.15136900  0.98419600  1
  C  945  1  0.13737900  0.90029400  0.53250700  1
  C  946  1  0.13518400  0.88411600  0.49501400  1
  C  951  1  0.11072600  0.89208400  0.43338700  1
  C  952  1  0.12844300  0.85883900  0.42213600  1
  C  953  1  0.12663100  0.84300200  0.38448600  1
  C  958  1  0.15264500  0.85093400  0.48371400  1
  C  961  1  0.84469000  0.37633200  0.28943800  1
  C  962  1  0.86114800  0.37400100  0.25208200  1
  C  967  1  0.85706000  0.34546400  0.19201700  1
  C  968  1  0.88833700  0.36583900  0.18019800  1
  C  969  1  0.90433500  0.36241800  0.14269900  1
  C  974  1  0.89262700  0.39412100  0.24017200  1
  C  977  1  0.65782200  0.62595000  0.78948700  1
  C  978  1  0.64138700  0.62824200  0.75211800  1
  C  983  1  0.64540300  0.65680400  0.69206300  1
  C  984  1  0.61415900  0.63637400  0.68024400  1
  C  985  1  0.59814900  0.63977600  0.64274800  1
  C  990  1  0.60994600  0.60806400  0.74020500  1
  N  246  1  0.91429400  0.90264100  0.14463800  1
  N  253  1  0.85512200  0.86541900  0.12092100  1
  N  255  1  0.93079300  0.91851500  0.08477800  1
  N  256  1  0.83974400  0.84188100  0.17580400  1
  N  262  1  0.58781400  0.09974200  0.64475200  1
  N  269  1  0.64690000  0.13707900  0.62100700  1
  N  271  1  0.57129800  0.08386300  0.58489700  1
  N  272  1  0.66226700  0.16064100  0.67588800  1
  N  278  1  0.34938900  0.64208100  0.38820000  1
  N  285  1  0.39975400  0.59578300  0.35943900  1
  N  287  1  0.33461700  0.66438500  0.32967600  1
  N  288  1  0.42362900  0.58314200  0.41786100  1
  N  294  1  0.15289500  0.36082600  0.88775800  1
  N  301  1  0.10186000  0.40641900  0.85905500  1
  N  303  1  0.16673900  0.33758700  0.82942800  1
  N  304  1  0.07874500  0.41979900  0.91761800  1
  N  310  1  0.60200500  0.91342200  0.35535700  1
  N  317  1  0.63981700  0.85297400  0.37656100  1
  N  319  1  0.57134000  0.91535400  0.41227800  1
  N  320  1  0.66666667  0.84571700  0.31980300  1
  N  326  1  0.90008600  0.08887300  0.85521900  1
  N  333  1  0.86232100  0.14934300  0.87644300  1
  N  335  1  0.93077100  0.08691600  0.91212900  1
  N  336  1  0.83543400  0.15662400  0.81969300  1
  N  342  1  0.15104700  0.64205600  0.10864300  1
  N  349  1  0.10038900  0.59654100  0.13812800  1
  N  351  1  0.16590700  0.66512100  0.16697600  1
  N  352  1  0.07659400  0.58281000  0.08004500  1
  N  358  1  0.35148500  0.36032000  0.60857900  1
  N  365  1  0.40243000  0.40548600  0.63810400  1
  N  367  1  0.33696100  0.33683100  0.66683400  1
  N  368  1  0.42581000  0.41974000  0.57994500  1
  N  374  1  0.09466900  0.11476700  0.86834400  1
  N  381  1  0.15745000  0.14849000  0.88820400  1
  N  383  1  0.09028900  0.08311200  0.92306200  1
  N  384  1  0.16347600  0.18118700  0.83586600  1
  N  390  1  0.40762800  0.88742000  0.36852900  1
  N  397  1  0.34480000  0.85366300  0.38815300  1
  N  399  1  0.41181600  0.91905200  0.42327800  1
  N  400  1  0.33887700  0.82106900  0.33573000  1
  N  406  1  0.64699100  0.33571000  0.61239600  1
  N  413  1  0.60820500  0.39295300  0.63833600  1
  N  415  1  0.66409100  0.31793800  0.67172500  1
  N  416  1  0.58390600  0.40951000  0.58396400  1
  N  422  1  0.85526900  0.66653500  0.11261200  1
  N  429  1  0.89426000  0.60958600  0.13890900  1
  N  431  1  0.83798100  0.68448500  0.17184600  1
  N  432  1  0.91880500  0.59295700  0.08467500  1
  N  438  1  0.38723700  0.09947800  0.63732900  1
  N  445  1  0.35387000  0.16209100  0.61627400  1
  N  447  1  0.41334700  0.08797000  0.58200700  1
  N  448  1  0.32900100  0.17252500  0.67339700  1
  N  454  1  0.11509700  0.90270500  0.13704600  1
  N  461  1  0.14862800  0.84024700  0.11578900  1
  N  463  1  0.08876700  0.91419400  0.08182500  1
  N  464  1  0.17373400  0.82982900  0.17280600  1
  N  470  1  0.84522700  0.35035500  0.89531200  1
  N  477  1  0.90447100  0.38923000  0.87271200  1
  N  479  1  0.84270000  0.31936100  0.83848200  1
  N  480  1  0.91198300  0.41723000  0.92885000  1
  N  486  1  0.65725200  0.65192700  0.39535300  1
  N  493  1  0.59807800  0.61294400  0.37275300  1
  N  495  1  0.65970200  0.68294300  0.33853400  1
  N  496  1  0.59066500  0.58491300  0.42889700  1
  N  742  1  0.91429400  0.90264100  0.47678300  1
  N  749  1  0.85512200  0.86541900  0.45306600  1
  N  751  1  0.93079300  0.91851500  0.41692300  1
  N  752  1  0.83974400  0.84188100  0.50794900  1
  N  758  1  0.58781400  0.09974200  0.97689700  1
  N  765  1  0.64690000  0.13707900  0.95315200  1
  N  767  1  0.57129800  0.08386300  0.91704200  1
  N  768  1  0.66226700  0.16064100  0.00803299  1
  N  774  1  0.34938900  0.64208100  0.72034500  1
  N  781  1  0.39975400  0.59578300  0.69158400  1
  N  783  1  0.33461700  0.66438500  0.66182100  1
  N  784  1  0.42362900  0.58314200  0.75000600  1
  N  790  1  0.15289500  0.36082600  0.21990300  1
  N  797  1  0.10186000  0.40641900  0.19120000  1
  N  799  1  0.16673900  0.33758700  0.16157300  1
  N  800  1  0.07874500  0.41979900  0.24976300  1
  N  806  1  0.60200500  0.91342200  0.68750200  1
  N  813  1  0.63981700  0.85297400  0.70870600  1
  N  815  1  0.57134000  0.91535400  0.74442300  1
  N  816  1  0.66666667  0.84571700  0.65194800  1
  N  822  1  0.90008600  0.08887300  0.18736400  1
  N  829  1  0.86232100  0.14934300  0.20858800  1
  N  831  1  0.93077100  0.08691600  0.24427400  1
  N  832  1  0.83543400  0.15662400  0.15183800  1
  N  838  1  0.15104700  0.64205600  0.44078800  1
  N  845  1  0.10038900  0.59654100  0.47027300  1
  N  847  1  0.16590700  0.66512100  0.49912100  1
  N  848  1  0.07659400  0.58281000  0.41219000  1
  N  854  1  0.35148500  0.36032000  0.94072400  1
  N  861  1  0.40243000  0.40548600  0.97024900  1
  N  863  1  0.33696100  0.33683100  0.99897900  1
  N  864  1  0.42581000  0.41974000  0.91209000  1
  N  870  1  0.09466900  0.11476700  0.20048900  1
  N  877  1  0.15745000  0.14849000  0.22034900  1
  N  879  1  0.09028900  0.08311200  0.25520700  1
  N  880  1  0.16347600  0.18118700  0.16801100  1
  N  886  1  0.40762800  0.88742000  0.70067400  1
  N  893  1  0.34480000  0.85366300  0.72029800  1
  N  895  1  0.41181600  0.91905200  0.75542300  1
  N  896  1  0.33887700  0.82106900  0.66787500  1
  N  902  1  0.64699100  0.33571000  0.94454100  1
  N  909  1  0.60820500  0.39295300  0.97048100  1
  N  911  1  0.66409100  0.31793800  0.00386999  1
  N  912  1  0.58390600  0.40951000  0.91610900  1
  N  918  1  0.85526900  0.66653500  0.44475700  1
  N  925  1  0.89426000  0.60958600  0.47105400  1
  N  927  1  0.83798100  0.68448500  0.50399100  1
  N  928  1  0.91880500  0.59295700  0.41682000  1
  N  934  1  0.38723700  0.09947800  0.96947400  1
  N  941  1  0.35387000  0.16209100  0.94841900  1
  N  943  1  0.41334700  0.08797000  0.91415200  1
  N  944  1  0.32900100  0.17252500  0.00554199  1
  N  950  1  0.11509700  0.90270500  0.46919100  1
  N  957  1  0.14862800  0.84024700  0.44793400  1
  N  959  1  0.08876700  0.91419400  0.41397000  1
  N  960  1  0.17373400  0.82982900  0.50495100  1
  N  966  1  0.84522700  0.35035500  0.22745700  1
  N  973  1  0.90447100  0.38923000  0.20485700  1
  N  975  1  0.84270000  0.31936100  0.17062700  1
  N  976  1  0.91198300  0.41723000  0.26099500  1
  N  982  1  0.65725200  0.65192700  0.72749800  1
  N  989  1  0.59807800  0.61294400  0.70489800  1
  N  991  1  0.65970200  0.68294300  0.67067900  1
  N  992  1  0.59066500  0.58491300  0.76104200  1
  O  8  1  0.01209200  0.90234500  0.09379800  1
  O  15  1  0.00891400  0.10114000  0.90667100  1
  O  17  1  0.06974600  0.96541600  0.99145400  1
  O  18  1  0.94813400  0.99637800  0.96251600  1
  O  38  1  0.49004400  0.09995600  0.59391200  1
  O  45  1  0.49320000  0.90107700  0.40686100  1
  O  47  1  0.43232900  0.03679100  0.49166400  1
  O  48  1  0.55394100  0.00588900  0.46265100  1
  O  68  1  0.34898200  0.74503000  0.34361000  1
  O  75  1  0.15157600  0.74707200  0.15465300  1
  O  77  1  0.28538500  0.80610800  0.24367700  1
  O  78  1  0.25399500  0.68407300  0.21178700  1
  O  98  1  0.15316600  0.25724800  0.84313400  1
  O  105  1  0.35141500  0.25500700  0.65506000  1
  O  107  1  0.21742200  0.19586400  0.74383100  1
  O  108  1  0.24848600  0.31793800  0.71134200  1
  O  128  1  0.64957900  0.23643900  0.66502400  1
  O  135  1  0.85753000  0.24083500  0.84165400  1
  O  137  1  0.72020200  0.18069600  0.76348900  1
  O  138  1  0.75047700  0.30215000  0.79091000  1
  O  158  1  0.85246500  0.76607400  0.16489500  1
  O  165  1  0.64475500  0.76147900  0.34179700  1
  O  167  1  0.78189200  0.82176900  0.26342800  1
  O  168  1  0.75180300  0.70029800  0.29088200  1
  O  188  1  0.50865800  0.40262100  0.59312000  1
  O  195  1  0.50587400  0.60293500  0.40768400  1
  O  197  1  0.56835900  0.46864000  0.49355700  1
  O  198  1  0.44687400  0.49670700  0.46221600  1
  O  218  1  0.99403400  0.59934500  0.09342000  1
  O  225  1  0.99625100  0.39946000  0.90751200  1
  O  227  1  0.93386500  0.53339500  0.99407800  1
  O  228  1  0.05526400  0.50574700  0.96191500  1
  O  504  1  0.01209200  0.90234500  0.42594300  1
  O  511  1  0.00891400  0.10114000  0.23881600  1
  O  513  1  0.06974600  0.96541600  0.32359900  1
  O  514  1  0.94813400  0.99637800  0.29466100  1
  O  534  1  0.49004400  0.09995600  0.92605700  1
  O  541  1  0.49320000  0.90107700  0.73900600  1
  O  543  1  0.43232900  0.03679100  0.82380900  1
  O  544  1  0.55394100  0.00588900  0.79479600  1
  O  564  1  0.34898200  0.74503000  0.67575500  1
  O  571  1  0.15157600  0.74707200  0.48679800  1
  O  573  1  0.28538500  0.80610800  0.57582200  1
  O  574  1  0.25399500  0.68407300  0.54393200  1
  O  594  1  0.15316600  0.25724800  0.17527900  1
  O  601  1  0.35141500  0.25500700  0.98720500  1
  O  603  1  0.21742200  0.19586400  0.07597600  1
  O  604  1  0.24848600  0.31793800  0.04348700  1
  O  624  1  0.64957900  0.23643900  0.99716900  1
  O  631  1  0.85753000  0.24083500  0.17379900  1
  O  633  1  0.72020200  0.18069600  0.09563400  1
  O  634  1  0.75047700  0.30215000  0.12305500  1
  O  654  1  0.85246500  0.76607400  0.49704000  1
  O  661  1  0.64475500  0.76147900  0.67394200  1
  O  663  1  0.78189200  0.82176900  0.59557300  1
  O  664  1  0.75180300  0.70029800  0.62302700  1
  O  684  1  0.50865800  0.40262100  0.92526500  1
  O  691  1  0.50587400  0.60293500  0.73982900  1
  O  693  1  0.56835900  0.46864000  0.82570200  1
  O  694  1  0.44687400  0.49670700  0.79436100  1
  O  714  1  0.99403400  0.59934500  0.42556500  1
  O  721  1  0.99625100  0.39946000  0.23965700  1
  O  723  1  0.93386500  0.53339500  0.32622300  1
  O  724  1  0.05526400  0.50574700  0.29406000  1
