# generated using pymatgen
data_H14C20N3
_symmetry_space_group_name_H-M   'P 1'
_cell_length_a   27.66590000
_cell_length_b   45.37080000
_cell_length_c   45.37080000
_cell_angle_alpha   90.00000000
_cell_angle_beta   89.94800000
_cell_angle_gamma   90.00000000
_symmetry_Int_Tables_number   1
_chemical_formula_structural   H14C20N3
_chemical_formula_sum   'H448 C640 N96'
_cell_volume   56950.49431777
_cell_formula_units_Z   32
loop_
 _symmetry_equiv_pos_site_id
 _symmetry_equiv_pos_as_xyz
  1  'x, y, z'
loop_
 _atom_site_type_symbol
 _atom_site_label
 _atom_site_symmetry_multiplicity
 _atom_site_fract_x
 _atom_site_fract_y
 _atom_site_fract_z
 _atom_site_occupancy
  H  7  1  0.29665100  0.01992700  0.00533000  1
  H  16  1  0.15977700  0.04822300  0.96883400  1
  H  17  1  0.12571000  0.10095900  0.07207200  1
  H  18  1  0.08464000  0.09400600  0.04739500  1
  H  19  1  0.36045900  0.02144800  0.89365300  1
  H  20  1  0.38918300  0.00555800  0.92061400  1
  H  21  1  0.22486600  0.06648000  0.93854700  1
  H  22  1  0.27017600  0.06133200  0.03099300  1
  H  29  1  0.81042000  0.43613300  0.97368000  1
  H  38  1  0.65858300  0.43109000  0.01263000  1
  H  39  1  0.60185300  0.43978500  0.90101100  1
  H  40  1  0.56755800  0.42913500  0.92827800  1
  H  41  1  0.86483400  0.45454300  0.08451200  1
  H  42  1  0.90280800  0.44630900  0.05831500  1
  H  43  1  0.71090000  0.44584200  0.04357300  1
  H  44  1  0.75636400  0.45149500  0.94409800  1
  H  51  1  0.54077000  0.23067700  0.78008800  1
  H  60  1  0.41110200  0.27029000  0.80934100  1
  H  61  1  0.36571000  0.16339800  0.85158700  1
  H  62  1  0.32695300  0.18976700  0.84561600  1
  H  63  1  0.62560400  0.33696300  0.79084700  1
  H  64  1  0.64753000  0.31025200  0.77109800  1
  H  65  1  0.48041500  0.29833500  0.83154900  1
  H  66  1  0.51738800  0.20602700  0.82491400  1
  H  73  1  0.03133600  0.26089000  0.21567200  1
  H  82  1  0.92177400  0.22360800  0.20743400  1
  H  83  1  0.84856400  0.32900200  0.17581000  1
  H  84  1  0.82391700  0.30736900  0.20004300  1
  H  85  1  0.12280200  0.15646900  0.20569900  1
  H  86  1  0.13656800  0.18135700  0.23019100  1
  H  87  1  0.98874800  0.19720400  0.15358300  1
  H  88  1  0.99738500  0.28093400  0.15090200  1
  H  95  1  0.68872500  0.97307200  0.98386200  1
  H  104  1  0.80568900  0.97440600  0.01046300  1
  H  105  1  0.87597400  0.93386400  0.90762300  1
  H  106  1  0.89916100  0.96130900  0.92583800  1
  H  107  1  0.62761000  0.95927300  0.09568400  1
  H  108  1  0.60303500  0.98203900  0.07208700  1
  H  109  1  0.75686000  0.91465200  0.04239700  1
  H  110  1  0.73251200  0.90929800  0.96192000  1
  H  117  1  0.18994800  0.51648200  0.00892700  1
  H  126  1  0.30329100  0.52511500  0.98231400  1
  H  127  1  0.36320900  0.56352100  0.08819000  1
  H  128  1  0.38988400  0.53770200  0.06950900  1
  H  129  1  0.12283400  0.52835500  0.89814800  1
  H  130  1  0.10595500  0.50228300  0.92076900  1
  H  131  1  0.24124100  0.58257500  0.95206700  1
  H  132  1  0.21927600  0.58389700  0.03245500  1
  H  139  1  0.43396400  0.76209100  0.18799300  1
  H  148  1  0.57574100  0.71113300  0.17380800  1
  H  149  1  0.64305200  0.81840900  0.15138500  1
  H  150  1  0.67222800  0.78754800  0.14597800  1
  H  151  1  0.36220400  0.65667300  0.21514600  1
  H  152  1  0.32825000  0.68557300  0.21033800  1
  H  153  1  0.51936100  0.68515400  0.19212900  1
  H  154  1  0.49703100  0.78737400  0.19696100  1
  H  161  1  0.92188900  0.72748100  0.80150800  1
  H  170  1  0.07089000  0.77421300  0.80862400  1
  H  171  1  0.12871200  0.66722400  0.83895300  1
  H  172  1  0.16163100  0.69702900  0.84003600  1
  H  173  1  0.85401500  0.83635900  0.78907700  1
  H  174  1  0.82005600  0.80812700  0.79651400  1
  H  175  1  0.01355900  0.80173300  0.79585000  1
  H  176  1  0.98228100  0.69985700  0.79509800  1
  H  183  1  0.82457800  0.55552700  0.51502000  1
  H  192  1  0.67710400  0.57196000  0.47575500  1
  H  193  1  0.61964400  0.57776100  0.58727900  1
  H  194  1  0.58900700  0.58808500  0.55843600  1
  H  195  1  0.87767600  0.53837000  0.40382500  1
  H  196  1  0.91535800  0.54744000  0.42978300  1
  H  197  1  0.72312500  0.54796200  0.44602800  1
  H  198  1  0.76697300  0.54187000  0.54454700  1
  H  205  1  0.32246200  0.93317200  0.48352500  1
  H  214  1  0.17176000  0.93130500  0.52443800  1
  H  215  1  0.11337400  0.91481000  0.41429200  1
  H  216  1  0.08041300  0.91161000  0.44376100  1
  H  217  1  0.37848800  0.95485100  0.59350300  1
  H  218  1  0.41538900  0.94383300  0.56767700  1
  H  219  1  0.22402600  0.95072100  0.55244900  1
  H  220  1  0.26657400  0.94528600  0.45286200  1
  H  227  1  0.05052000  0.73357700  0.27399800  1
  H  236  1  0.93839000  0.76505800  0.27523900  1
  H  237  1  0.86230300  0.66098600  0.30822100  1
  H  238  1  0.84118000  0.68101200  0.28151500  1
  H  239  1  0.11841400  0.84436400  0.28402900  1
  H  240  1  0.13711000  0.82067100  0.25955800  1
  H  241  1  0.99311100  0.79327200  0.33568400  1
  H  242  1  0.00674700  0.71116800  0.33813000  1
  H  249  1  0.53270300  0.75879800  0.71592100  1
  H  258  1  0.42828200  0.71719700  0.70480200  1
  H  259  1  0.35225900  0.82300500  0.67727100  1
  H  260  1  0.32624700  0.79927400  0.69896300  1
  H  261  1  0.62795400  0.65510800  0.71378600  1
  H  262  1  0.63783200  0.68069100  0.73832200  1
  H  263  1  0.50185200  0.69288100  0.65352400  1
  H  264  1  0.50270500  0.77801800  0.65138100  1
  H  271  1  0.20716700  0.48814600  0.48288700  1
  H  280  1  0.31695600  0.48815300  0.49825500  1
  H  281  1  0.38293700  0.44855900  0.39390300  1
  H  282  1  0.40332700  0.47789300  0.41045900  1
  H  283  1  0.12236700  0.43765600  0.57628300  1
  H  284  1  0.10662900  0.46964500  0.56317100  1
  H  285  1  0.27116500  0.41616800  0.52601200  1
  H  286  1  0.24972300  0.41779000  0.45429500  1
  H  293  1  0.69841600  0.00498300  0.49353000  1
  H  302  1  0.81398400  0.01583700  0.47394500  1
  H  303  1  0.86765700  0.07628900  0.56955800  1
  H  304  1  0.89884300  0.04864400  0.55683400  1
  H  305  1  0.62290400  0.02621000  0.38624300  1
  H  306  1  0.60737600  0.99869200  0.40736000  1
  H  307  1  0.75020500  0.07348800  0.44007300  1
  H  308  1  0.71867900  0.07367000  0.51709100  1
  H  315  1  0.94616800  0.25795900  0.72675200  1
  H  324  1  0.05719000  0.22766000  0.72491500  1
  H  325  1  0.14324800  0.31531300  0.66558000  1
  H  326  1  0.16627800  0.30080300  0.69526500  1
  H  327  1  0.84956200  0.15724200  0.70424300  1
  H  328  1  0.83484700  0.18044400  0.72998300  1
  H  329  1  0.99574200  0.19707400  0.66397100  1
  H  330  1  0.98434500  0.27523400  0.65904400  1
  H  337  1  0.41006800  0.22019700  0.30902200  1
  H  346  1  0.55778800  0.26504500  0.30890300  1
  H  347  1  0.62820700  0.15600800  0.30249700  1
  H  348  1  0.65944400  0.18530500  0.31017800  1
  H  349  1  0.34559600  0.33077200  0.30293800  1
  H  350  1  0.31340100  0.30285300  0.31374600  1
  H  351  1  0.50271300  0.29163000  0.28949600  1
  H  352  1  0.46704800  0.19176400  0.29353400  1
  H  359  1  0.91333000  0.94243800  0.99449500  1
  H  368  1  0.06950500  0.96862900  0.02627100  1
  H  369  1  0.99640300  0.94227900  0.01525000  1
  H  370  1  0.11619700  0.01502700  0.02435000  1
  H  372  1  0.81201800  0.02812800  0.97107800  1
  H  373  1  0.83503200  0.01959900  0.93547900  1
  H  374  1  0.85540300  0.05141100  0.95434300  1
  H  376  1  0.01954900  0.10614000  0.97005500  1
  H  377  1  0.08230500  0.10193600  0.96371500  1
  H  378  1  0.06109400  0.11507900  0.99826900  1
  H  385  1  0.41144200  0.55920100  0.00697200  1
  H  394  1  0.57143300  0.53651000  0.98002100  1
  H  395  1  0.49749300  0.56164900  0.99171300  1
  H  396  1  0.61554100  0.48974400  0.97347700  1
  H  398  1  0.30737700  0.47147300  0.01407100  1
  H  399  1  0.32555700  0.47575900  0.05140500  1
  H  400  1  0.34867700  0.44634200  0.03000100  1
  H  402  1  0.50900600  0.39121400  0.00148600  1
  H  403  1  0.57198900  0.39080800  0.00832700  1
  H  404  1  0.54997300  0.38926800  0.97156300  1
  H  411  1  0.17228600  0.23630400  0.69162200  1
  H  420  1  0.32722200  0.20860100  0.72441000  1
  H  421  1  0.25584500  0.21659400  0.69540500  1
  H  422  1  0.36995700  0.21381100  0.77196600  1
  H  424  1  0.06575200  0.26995100  0.77189800  1
  H  425  1  0.09087400  0.30396200  0.75985900  1
  H  426  1  0.10850100  0.28860800  0.79405800  1
  H  428  1  0.26320300  0.26992900  0.85761900  1
  H  429  1  0.32633500  0.27616400  0.85629700  1
  H  430  1  0.30345400  0.24161300  0.86840400  1
  H  437  1  0.67243100  0.24378200  0.33164500  1
  H  446  1  0.83661800  0.26411700  0.30600900  1
  H  447  1  0.76197100  0.25764400  0.33273700  1
  H  448  1  0.88036500  0.26588700  0.25661600  1
  H  450  1  0.56594900  0.24731500  0.24390100  1
  H  451  1  0.58113800  0.20922300  0.24374500  1
  H  452  1  0.60634600  0.23322700  0.21731700  1
  H  454  1  0.76090100  0.23461300  0.16454300  1
  H  455  1  0.82255100  0.22442200  0.16300100  1
  H  456  1  0.80520100  0.26170600  0.15736900  1
  H  463  1  0.08531300  0.54516100  0.98532200  1
  H  472  1  0.91918200  0.53682300  0.00222100  1
  H  473  1  0.99986500  0.55507700  0.99575700  1
  H  474  1  0.86398400  0.49459300  0.00708400  1
  H  476  1  0.17345300  0.45155400  0.98488100  1
  H  477  1  0.15734700  0.45419500  0.94704400  1
  H  478  1  0.12868400  0.42795600  0.97004800  1
  H  480  1  0.95289500  0.38683000  0.99449300  1
  H  481  1  0.89186300  0.39027300  0.98330400  1
  H  482  1  0.90699000  0.39099400  0.02137800  1
  H  489  1  0.59338400  0.93480100  0.00780500  1
  H  498  1  0.43018700  0.92730100  0.97997300  1
  H  499  1  0.51284400  0.91666000  0.99239600  1
  H  500  1  0.36518200  0.96495700  0.97086900  1
  H  502  1  0.65652700  0.03561900  0.00679200  1
  H  503  1  0.63753600  0.03319500  0.04415600  1
  H  504  1  0.60487100  0.05523500  0.01887700  1
  H  506  1  0.42998400  0.07790800  0.99180700  1
  H  507  1  0.36815700  0.07041000  0.99784600  1
  H  508  1  0.39187200  0.07217100  0.96125100  1
  H  515  1  0.84255700  0.24677800  0.68970600  1
  H  524  1  0.67537700  0.26655500  0.68585400  1
  H  525  1  0.75965400  0.26118300  0.67393400  1
  H  526  1  0.61041900  0.26819900  0.72472100  1
  H  528  1  0.90665000  0.23475700  0.78999300  1
  H  529  1  0.88895400  0.19795400  0.78197800  1
  H  530  1  0.85550100  0.21921400  0.80755700  1
  H  532  1  0.67732500  0.23144800  0.83300200  1
  H  533  1  0.61440600  0.23066100  0.82663000  1
  H  534  1  0.64489500  0.26489500  0.83181200  1
  H  541  1  0.30093300  0.24392500  0.33849400  1
  H  550  1  0.13172500  0.22673600  0.32280400  1
  H  551  1  0.21046600  0.23215100  0.34505900  1
  H  552  1  0.08165800  0.22307500  0.27515600  1
  H  554  1  0.39043700  0.23849000  0.24424900  1
  H  555  1  0.37982500  0.27712500  0.24531100  1
  H  556  1  0.34734000  0.25464400  0.22058400  1
  H  558  1  0.18588500  0.26267100  0.17948000  1
  H  559  1  0.12226900  0.26191700  0.17694600  1
  H  560  1  0.15628600  0.22852600  0.17492500  1
  H  567  1  0.82437900  0.74740800  0.30099700  1
  H  576  1  0.66304000  0.76146700  0.27171100  1
  H  577  1  0.73709200  0.75953900  0.29917200  1
  H  578  1  0.62104300  0.75672200  0.22422100  1
  H  580  1  0.93558900  0.72868900  0.21850700  1
  H  581  1  0.91852400  0.69212300  0.22803300  1
  H  582  1  0.89707500  0.70825200  0.19502600  1
  H  584  1  0.73496600  0.71356200  0.13466700  1
  H  585  1  0.67306300  0.70379800  0.13570800  1
  H  586  1  0.69058300  0.73996200  0.12531500  1
  H  593  1  0.31152700  0.73298200  0.68045900  1
  H  602  1  0.15171500  0.71801900  0.71298700  1
  H  603  1  0.22450200  0.71984600  0.68417500  1
  H  604  1  0.11127700  0.72427200  0.76103600  1
  H  606  1  0.42600100  0.75281900  0.76101600  1
  H  607  1  0.40779800  0.78924500  0.75178200  1
  H  608  1  0.38804800  0.77295700  0.78510700  1
  H  610  1  0.22855600  0.77063000  0.84722700  1
  H  611  1  0.16678900  0.78072200  0.84639000  1
  H  612  1  0.18403100  0.74498500  0.85832200  1
  H  619  1  0.15843000  0.76058100  0.30294400  1
  H  628  1  0.32543500  0.74746300  0.29272400  1
  H  629  1  0.24520300  0.75324200  0.31193900  1
  H  630  1  0.37860700  0.73912700  0.24998000  1
  H  632  1  0.06691700  0.75296600  0.21057200  1
  H  633  1  0.08046200  0.79126800  0.21116200  1
  H  634  1  0.10984400  0.76776400  0.18567900  1
  H  636  1  0.28397200  0.74291800  0.14340600  1
  H  637  1  0.34555600  0.75343800  0.14448300  1
  H  638  1  0.32906200  0.71584100  0.14906800  1
  H  645  1  0.64194500  0.74728900  0.69330000  1
  H  654  1  0.80847200  0.76145000  0.70222700  1
  H  655  1  0.72721300  0.75868600  0.68414100  1
  H  656  1  0.86450100  0.76151600  0.74417900  1
  H  658  1  0.55364200  0.73724000  0.78638000  1
  H  659  1  0.57309900  0.70028500  0.78106800  1
  H  660  1  0.59956500  0.72220400  0.80899000  1
  H  662  1  0.77655200  0.74220600  0.85125400  1
  H  663  1  0.83719700  0.73058800  0.84674200  1
  H  664  1  0.82319800  0.76878300  0.84874700  1
  H  671  1  0.42326500  0.45285000  0.47599900  1
  H  680  1  0.58053400  0.47178100  0.51000500  1
  H  681  1  0.50676800  0.44838500  0.49491400  1
  H  682  1  0.62714700  0.51737900  0.51768600  1
  H  684  1  0.32541800  0.54252700  0.46516500  1
  H  685  1  0.34692300  0.53797800  0.42850000  1
  H  686  1  0.36950500  0.56687700  0.45079700  1
  H  688  1  0.53287600  0.61797400  0.48194000  1
  H  689  1  0.59632300  0.61579700  0.47737800  1
  H  690  1  0.57103900  0.62019600  0.51312600  1
  H  697  1  0.92051600  0.05494600  0.49548600  1
  H  706  1  0.08325200  0.03028200  0.47780300  1
  H  707  1  0.00805000  0.05613100  0.48329700  1
  H  708  1  0.12791700  0.98326200  0.47856900  1
  H  710  1  0.81806100  0.96788200  0.51340200  1
  H  711  1  0.83271500  0.97841700  0.55006900  1
  H  712  1  0.85858800  0.94633900  0.53445700  1
  H  714  1  0.02087100  0.88916800  0.51862600  1
  H  715  1  0.08355300  0.89008700  0.52637100  1
  H  716  1  0.06304500  0.88298400  0.48996900  1
  H  723  1  0.59447900  0.03900100  0.47180700  1
  H  732  1  0.43500800  0.03385000  0.50609600  1
  H  733  1  0.51296000  0.05060300  0.49007100  1
  H  734  1  0.37997700  0.99270200  0.51742400  1
  H  736  1  0.67772600  0.94362400  0.46826100  1
  H  737  1  0.65428200  0.94564100  0.43183900  1
  H  738  1  0.62918600  0.92057600  0.45754300  1
  H  740  1  0.45881800  0.88320200  0.49731300  1
  H  741  1  0.39613700  0.88814100  0.49127500  1
  H  742  1  0.41953500  0.88799100  0.52776600  1
  H  749  1  0.10077500  0.44626500  0.49818700  1
  H  758  1  0.93528100  0.45446600  0.47743700  1
  H  759  1  0.01615900  0.43655400  0.48413700  1
  H  760  1  0.87863400  0.49642500  0.47581100  1
  H  762  1  0.18362800  0.54107700  0.51212900  1
  H  763  1  0.16428900  0.53352600  0.54874600  1
  H  764  1  0.13617100  0.56181700  0.52807700  1
  H  766  1  0.96353300  0.60329300  0.50058000  1
  H  767  1  0.90203800  0.59836200  0.51019200  1
  H  768  1  0.91922500  0.60127800  0.47253100  1
  H  775  1  0.43892300  0.14426600  0.79991000  1
  H  784  1  0.33835200  0.06244700  0.81716600  1
  H  785  1  0.39596000  0.09501900  0.79428900  1
  H  786  1  0.29411100  0.04633100  0.86474800  1
  H  788  1  0.51426500  0.18993000  0.88519900  1
  H  789  1  0.49120000  0.16781900  0.91398300  1
  H  790  1  0.45365600  0.19483000  0.89738800  1
  H  792  1  0.33007500  0.12805300  0.95134100  1
  H  793  1  0.31078900  0.09380300  0.96508300  1
  H  794  1  0.27047200  0.11607000  0.94456300  1
  H  801  1  0.94462500  0.35410600  0.17612400  1
  H  810  1  0.85189000  0.43988800  0.15561700  1
  H  811  1  0.91127700  0.40622600  0.17490100  1
  H  812  1  0.79410800  0.45235200  0.11420100  1
  H  814  1  0.93599000  0.27904300  0.09785900  1
  H  815  1  0.87821800  0.28724400  0.08343600  1
  H  816  1  0.88309100  0.26986300  0.11815100  1
  H  818  1  0.74388300  0.35485600  0.05025900  1
  H  819  1  0.76833200  0.38320700  0.02810300  1
  H  820  1  0.71073100  0.38756400  0.04523000  1
  H  827  1  0.67791400  0.46216300  0.87527800  1
  H  836  1  0.57523200  0.42093100  0.80283400  1
  H  837  1  0.63066800  0.45347400  0.82773400  1
  H  838  1  0.53953400  0.36882500  0.79772800  1
  H  840  1  0.76633700  0.39202500  0.93631700  1
  H  841  1  0.74123000  0.35864200  0.92377200  1
  H  842  1  0.70787500  0.38095400  0.94851100  1
  H  844  1  0.59576600  0.29880000  0.89073600  1
  H  845  1  0.57794300  0.28021500  0.85841300  1
  H  846  1  0.53437600  0.29877800  0.88011200  1
  H  853  1  0.18304600  0.04371800  0.09399500  1
  H  862  1  0.08012200  0.07387500  0.17016200  1
  H  863  1  0.13437200  0.04444000  0.14106900  1
  H  864  1  0.04583100  0.12505100  0.18208200  1
  H  866  1  0.28982600  0.11878800  0.05297900  1
  H  867  1  0.26264900  0.15108400  0.06712700  1
  H  868  1  0.23438700  0.13173900  0.03797600  1
  H  870  1  0.12488200  0.20839900  0.10829900  1
  H  871  1  0.09548300  0.22185400  0.14005600  1
  H  872  1  0.06135000  0.20575100  0.11138500  1
  H  879  1  0.59565000  0.84172800  0.20681800  1
  H  888  1  0.69234000  0.92021000  0.17226300  1
  H  889  1  0.64563200  0.88884200  0.20423300  1
  H  890  1  0.71347800  0.93617200  0.11930700  1
  H  892  1  0.47033400  0.80818000  0.13814300  1
  H  893  1  0.49351000  0.82233900  0.10472600  1
  H  894  1  0.52114700  0.79124900  0.12110300  1
  H  896  1  0.62084700  0.86452200  0.03932900  1
  H  897  1  0.64150800  0.89869200  0.02586300  1
  H  898  1  0.68351700  0.87088100  0.03526800  1
  H  905  1  0.08147500  0.64348200  0.78411500  1
  H  914  1  0.18200600  0.56929800  0.82185100  1
  H  915  1  0.13332400  0.59789300  0.78854800  1
  H  916  1  0.20412500  0.55628900  0.87501300  1
  H  918  1  0.95584100  0.67969000  0.85140000  1
  H  919  1  0.97861600  0.66643300  0.88525200  1
  H  920  1  0.00690200  0.69680200  0.86794000  1
  H  922  1  0.09641300  0.62168800  0.95342500  1
  H  923  1  0.11888600  0.58770100  0.96628700  1
  H  924  1  0.15892400  0.61756600  0.96014200  1
  H  931  1  0.26387500  0.56193200  0.10988800  1
  H  940  1  0.35751900  0.58294500  0.19487400  1
  H  941  1  0.29592500  0.56444900  0.16223800  1
  H  942  1  0.42205400  0.62163700  0.20522500  1
  H  944  1  0.27558800  0.63698200  0.03186600  1
  H  945  1  0.33179500  0.65286400  0.04128300  1
  H  946  1  0.33020800  0.61739200  0.02523300  1
  H  948  1  0.46648800  0.68406300  0.10531700  1
  H  949  1  0.45438200  0.70694300  0.13580800  1
  H  950  1  0.50758500  0.68472200  0.13485600  1
  H  957  1  0.77590100  0.93216500  0.88471000  1
  H  966  1  0.86364400  0.90863000  0.79766900  1
  H  967  1  0.80564500  0.92864500  0.83185600  1
  H  968  1  0.92306100  0.86772300  0.78586900  1
  H  970  1  0.79637700  0.85939800  0.96439300  1
  H  971  1  0.85429700  0.84581700  0.95511700  1
  H  972  1  0.84853200  0.88156200  0.97017200  1
  H  974  1  0.97918000  0.80833400  0.88547000  1
  H  975  1  0.95974800  0.78517000  0.85659500  1
  H  976  1  0.01491600  0.80526000  0.85348300  1
  H  983  1  0.95854500  0.63583400  0.31211100  1
  H  992  1  0.86663400  0.54978700  0.33387800  1
  H  993  1  0.92588000  0.58346300  0.31437100  1
  H  994  1  0.80727900  0.53814300  0.37480800  1
  H  996  1  0.94041800  0.71421900  0.38672000  1
  H  997  1  0.88157300  0.70586800  0.39937900  1
  H  998  1  0.88938000  0.72170400  0.36412100  1
  H  1000  1  0.75280800  0.63755100  0.43471800  1
  H  1001  1  0.77324400  0.60914900  0.45814200  1
  H  1002  1  0.71776800  0.60540200  0.43847100  1
  H  1009  1  0.45255400  0.84816600  0.67960700  1
  H  1018  1  0.36825100  0.93854400  0.66405600  1
  H  1019  1  0.42462700  0.90179500  0.68109100  1
  H  1020  1  0.30964600  0.95450100  0.62388600  1
  H  1022  1  0.43360600  0.77802400  0.59754500  1
  H  1023  1  0.37571900  0.78860800  0.58492800  1
  H  1024  1  0.38125300  0.76915500  0.61849300  1
  H  1026  1  0.23694000  0.86007500  0.56453600  1
  H  1027  1  0.26446900  0.88503100  0.53978900  1
  H  1028  1  0.21048800  0.89483100  0.55904200  1
  H  1035  1  0.17649500  0.95856700  0.39048400  1
  H  1044  1  0.07097300  0.92132100  0.31889300  1
  H  1045  1  0.12547500  0.95352200  0.34465400  1
  H  1046  1  0.04004200  0.86911100  0.30973900  1
  H  1048  1  0.28533300  0.88740700  0.43653700  1
  H  1049  1  0.26003300  0.85409300  0.42367700  1
  H  1050  1  0.23034900  0.87403700  0.45189200  1
  H  1052  1  0.13490800  0.78864800  0.37971100  1
  H  1053  1  0.11355900  0.77580000  0.34543000  1
  H  1054  1  0.07219100  0.78398600  0.37419200  1
  H  1061  1  0.67841600  0.53107700  0.60742900  1
  H  1070  1  0.57671400  0.57013900  0.67949000  1
  H  1071  1  0.62862900  0.53647200  0.65368000  1
  H  1072  1  0.54857400  0.62314500  0.68755000  1
  H  1074  1  0.79618600  0.59738200  0.56329000  1
  H  1075  1  0.77972500  0.63109300  0.57988400  1
  H  1076  1  0.74379700  0.61655900  0.55105700  1
  H  1078  1  0.65410800  0.70058700  0.61972200  1
  H  1079  1  0.63041100  0.71417700  0.65315700  1
  H  1080  1  0.59125100  0.70654700  0.62312400  1
  H  1087  1  0.05518800  0.34833200  0.68121800  1
  H  1096  1  0.16280900  0.42321000  0.65177600  1
  H  1097  1  0.10242800  0.39507500  0.67745100  1
  H  1098  1  0.20834200  0.43305100  0.60508200  1
  H  1100  1  0.01763800  0.27536900  0.60400400  1
  H  1101  1  0.06908300  0.28011800  0.58139500  1
  H  1102  1  0.07512500  0.26252300  0.61594900  1
  H  1104  1  0.16901600  0.35050300  0.51950700  1
  H  1105  1  0.17127400  0.38791000  0.50884900  1
  H  1106  1  0.22540600  0.36854700  0.51747400  1
  H  1113  1  0.55662000  0.12923700  0.27643600  1
  H  1122  1  0.66908000  0.05947800  0.31081900  1
  H  1123  1  0.61109500  0.08495400  0.28063500  1
  H  1124  1  0.70324500  0.04924100  0.36184400  1
  H  1126  1  0.46070100  0.17849400  0.35286200  1
  H  1127  1  0.49400500  0.16854300  0.38447600  1
  H  1128  1  0.51706300  0.19579900  0.36046600  1
  H  1130  1  0.61762300  0.11950000  0.44604600  1
  H  1131  1  0.63559100  0.08387500  0.45706800  1
  H  1132  1  0.67966300  0.11150100  0.45019500  1
  H  1139  1  0.77624100  0.05163200  0.59462500  1
  H  1148  1  0.87332800  0.07953800  0.67472200  1
  H  1149  1  0.81644200  0.05422900  0.64376200  1
  H  1150  1  0.92050100  0.12578400  0.68632000  1
  H  1152  1  0.73917300  0.13093900  0.52429600  1
  H  1153  1  0.78504200  0.15623500  0.53397300  1
  H  1154  1  0.80041500  0.12363500  0.51481300  1
  H  1156  1  0.87838800  0.21512900  0.60832400  1
  H  1157  1  0.88752900  0.22451700  0.64563300  1
  H  1158  1  0.93743200  0.21470200  0.62292400  1
  H  1165  1  0.28695800  0.43762000  0.37368900  1
  H  1174  1  0.36513500  0.40236600  0.28691900  1
  H  1175  1  0.31273800  0.42798900  0.32068300  1
  H  1176  1  0.41661800  0.35707500  0.27838700  1
  H  1178  1  0.31629900  0.37357300  0.45983900  1
  H  1179  1  0.37511500  0.36120300  0.45110200  1
  H  1180  1  0.36642600  0.39793900  0.46287700  1
  H  1182  1  0.48868500  0.31215000  0.38179500  1
  H  1183  1  0.46187900  0.28612200  0.35793300  1
  H  1184  1  0.51782900  0.30306500  0.34843300  1
  C  1  1  0.25304800  0.04258200  0.97454600  1
  C  2  1  0.29278500  0.02552400  0.98356100  1
  C  3  1  0.32987900  0.01835900  0.96370600  1
  C  4  1  0.32735100  0.02695000  0.93360200  1
  C  5  1  0.28845300  0.04560200  0.92454000  1
  C  6  1  0.25025300  0.05112400  0.94453300  1
  C  9  1  0.22071300  0.05477600  0.99583200  1
  C  10  1  0.23471500  0.06297200  0.02478400  1
  C  11  1  0.20084100  0.07380900  0.04544800  1
  C  12  1  0.15159700  0.07777600  0.03680000  1
  C  13  1  0.13737700  0.06779000  0.00854400  1
  C  14  1  0.17169400  0.05734000  0.98825600  1
  C  23  1  0.75315800  0.44291000  0.00430200  1
  C  24  1  0.80161500  0.43903300  0.99534000  1
  C  25  1  0.83999400  0.44073700  0.01533400  1
  C  26  1  0.83142800  0.44314400  0.04605600  1
  C  27  1  0.78268200  0.44180800  0.05617000  1
  C  28  1  0.74512700  0.44524900  0.03528100  1
  C  31  1  0.71499200  0.44168900  0.98260400  1
  C  32  1  0.72277800  0.44650700  0.95192100  1
  C  33  1  0.68683100  0.44100100  0.93053800  1
  C  34  1  0.63834500  0.43602000  0.94006400  1
  C  35  1  0.62924000  0.43380700  0.97071900  1
  C  36  1  0.66747500  0.43405600  0.99100400  1
  C  45  1  0.50411500  0.26205600  0.80625700  1
  C  46  1  0.54034800  0.25226100  0.78686100  1
  C  47  1  0.57924400  0.27067800  0.77943400  1
  C  48  1  0.58177000  0.30020800  0.79002500  1
  C  49  1  0.54354600  0.31061600  0.80854100  1
  C  50  1  0.50496100  0.29163900  0.81595200  1
  C  53  1  0.46966100  0.24182300  0.81752600  1
  C  54  1  0.48191800  0.21254300  0.82527500  1
  C  55  1  0.44611200  0.19193800  0.83332000  1
  C  56  1  0.39658200  0.20082700  0.83458800  1
  C  57  1  0.38468300  0.22987900  0.82562600  1
  C  58  1  0.42085400  0.25027100  0.81813700  1
  C  67  1  0.00459400  0.23130700  0.18362700  1
  C  68  1  0.03511500  0.24022500  0.20664600  1
  C  69  1  0.07173700  0.22148600  0.21681000  1
  C  70  1  0.07910000  0.19317800  0.20393100  1
  C  71  1  0.04834200  0.18445500  0.18013500  1
  C  72  1  0.01005400  0.20306600  0.17110800  1
  C  75  1  0.96414400  0.24914700  0.17830500  1
  C  76  1  0.96743600  0.27642000  0.16343000  1
  C  77  1  0.92946200  0.29725000  0.16535200  1
  C  78  1  0.88844400  0.29143400  0.18369100  1
  C  79  1  0.88679900  0.26398000  0.19876700  1
  C  80  1  0.92347300  0.24295100  0.19564200  1
  C  89  1  0.72856800  0.94393000  0.01069500  1
  C  90  1  0.69206900  0.96448100  0.00474100  1
  C  91  1  0.65780300  0.97158200  0.02637800  1
  C  92  1  0.66050300  0.95900800  0.05507000  1
  C  93  1  0.69682900  0.93731800  0.06074700  1
  C  94  1  0.73160100  0.93079400  0.03878700  1
  C  97  1  0.76507900  0.94111400  0.98950100  1
  C  98  1  0.76066900  0.92386000  0.96376500  1
  C  99  1  0.79604900  0.92567000  0.94125300  1
  C  100  1  0.83585900  0.94563000  0.94407400  1
  C  101  1  0.83730200  0.96393200  0.96942700  1
  C  102  1  0.80291300  0.96141500  0.99192900  1
  C  111  1  0.22109600  0.55013500  0.98302900  1
  C  112  1  0.19060800  0.52602500  0.98836500  1
  C  113  1  0.15871800  0.51609400  0.96652900  1
  C  114  1  0.15729600  0.52987400  0.93832900  1
  C  115  1  0.18740300  0.55497100  0.93331300  1
  C  116  1  0.22027000  0.56423300  0.95535100  1
  C  119  1  0.25733500  0.55525800  0.00399800  1
  C  120  1  0.24957700  0.57106500  0.03037200  1
  C  121  1  0.28433500  0.57025000  0.05327700  1
  C  122  1  0.32648800  0.55211200  0.05041300  1
  C  123  1  0.33152800  0.53509500  0.02432600  1
  C  124  1  0.29824100  0.53730600  0.00121000  1
  C  133  1  0.48562700  0.72742300  0.19174600  1
  C  134  1  0.43894800  0.74011200  0.19170700  1
  C  135  1  0.39735200  0.72338600  0.19697800  1
  C  136  1  0.39996200  0.69234400  0.20016600  1
  C  137  1  0.44536100  0.67846900  0.19496500  1
  C  138  1  0.48751000  0.69614100  0.19462600  1
  C  141  1  0.52695900  0.74568000  0.18486100  1
  C  142  1  0.52612800  0.77691100  0.18791300  1
  C  143  1  0.56337200  0.79504200  0.17697000  1
  C  144  1  0.60617200  0.78177300  0.16559400  1
  C  145  1  0.61130900  0.75079300  0.16788300  1
  C  146  1  0.57047500  0.73337000  0.17398700  1
  C  155  1  0.97629200  0.76061400  0.79805000  1
  C  156  1  0.92859400  0.74948600  0.79960600  1
  C  157  1  0.88800700  0.76784600  0.79820500  1
  C  158  1  0.89293700  0.79896300  0.79749700  1
  C  159  1  0.94055500  0.81097900  0.79857200  1
  C  160  1  0.98055700  0.79182800  0.79548000  1
  C  163  1  0.01698800  0.74114400  0.80313200  1
  C  164  1  0.01317900  0.70985000  0.80212500  1
  C  165  1  0.05004800  0.69106700  0.81247500  1
  C  166  1  0.09501100  0.70345600  0.82147300  1
  C  167  1  0.10257500  0.73397800  0.81684500  1
  C  168  1  0.06305800  0.75238900  0.81075500  1
  C  177  1  0.76664400  0.55112900  0.48459200  1
  C  178  1  0.81539400  0.55304500  0.49334000  1
  C  179  1  0.85307900  0.55068200  0.47291600  1
  C  180  1  0.84387600  0.54932900  0.44218800  1
  C  181  1  0.79485200  0.55090000  0.43243500  1
  C  182  1  0.75773800  0.54812500  0.45379100  1
  C  185  1  0.72927000  0.55606400  0.50616700  1
  C  186  1  0.73550800  0.55078300  0.53685200  1
  C  187  1  0.70109100  0.55983100  0.55803000  1
  C  188  1  0.65554700  0.57094400  0.54818800  1
  C  189  1  0.64689700  0.57282800  0.51749700  1
  C  190  1  0.68500600  0.56882400  0.49749800  1
  C  199  1  0.26577000  0.94256200  0.51375800  1
  C  200  1  0.31397200  0.93731600  0.50504500  1
  C  201  1  0.35240800  0.93925600  0.52504100  1
  C  202  1  0.34380400  0.94301800  0.55563000  1
  C  203  1  0.29492000  0.94398800  0.56566100  1
  C  204  1  0.25813000  0.94802300  0.54438300  1
  C  207  1  0.22712000  0.93862700  0.49269500  1
  C  208  1  0.23371300  0.93989200  0.46156800  1
  C  209  1  0.19703800  0.93178200  0.44143700  1
  C  210  1  0.14979700  0.92524200  0.45234000  1
  C  211  1  0.14155000  0.92736900  0.48304700  1
  C  212  1  0.18018400  0.93142700  0.50256000  1
  C  221  1  0.01598300  0.76091000  0.30529800  1
  C  222  1  0.04978700  0.75429500  0.28318500  1
  C  223  1  0.08289400  0.77567200  0.27368100  1
  C  224  1  0.08345700  0.80435200  0.28638000  1
  C  225  1  0.05124800  0.81032500  0.31027500  1
  C  226  1  0.01636100  0.78902700  0.31860100  1
  C  229  1  0.97682300  0.74138200  0.30776600  1
  C  230  1  0.97907200  0.71457600  0.32352100  1
  C  231  1  0.94239500  0.69302900  0.32013400  1
  C  232  1  0.90395000  0.69769300  0.29956300  1
  C  233  1  0.90436600  0.72420100  0.28285600  1
  C  234  1  0.93934800  0.74598800  0.28750400  1
  C  243  1  0.51161900  0.72799600  0.68343200  1
  C  244  1  0.53836700  0.73792100  0.70778700  1
  C  245  1  0.57418300  0.72010400  0.72043000  1
  C  246  1  0.58407300  0.69146600  0.70893200  1
  C  247  1  0.55749900  0.68179900  0.68374600  1
  C  248  1  0.52052200  0.69970100  0.67180300  1
  C  251  1  0.46994700  0.74429500  0.67666600  1
  C  252  1  0.47237200  0.77226300  0.66302200  1
  C  253  1  0.43354100  0.79240100  0.66559800  1
  C  254  1  0.39242200  0.78522000  0.68332400  1
  C  255  1  0.39178900  0.75721300  0.69733300  1
  C  256  1  0.42896100  0.73668900  0.69321500  1
  C  265  1  0.24461400  0.45257500  0.50212800  1
  C  266  1  0.20865700  0.47425600  0.50080300  1
  C  267  1  0.17153400  0.47476500  0.52178000  1
  C  268  1  0.16982700  0.45373400  0.54508200  1
  C  269  1  0.20760000  0.43220700  0.54689500  1
  C  270  1  0.24491100  0.43209300  0.52547100  1
  C  273  1  0.27887700  0.45274200  0.47931500  1
  C  274  1  0.27515700  0.43423100  0.45448600  1
  C  275  1  0.30794100  0.43718600  0.43070800  1
  C  276  1  0.34480200  0.45929500  0.43152100  1
  C  277  1  0.34645800  0.47834500  0.45637500  1
  C  278  1  0.31364200  0.47517500  0.47977100  1
  C  287  1  0.73027100  0.03925500  0.46900300  1
  C  288  1  0.69924700  0.01521500  0.47331000  1
  C  289  1  0.66499200  0.00780600  0.45172900  1
  C  290  1  0.66253000  0.02360700  0.42464200  1
  C  291  1  0.69447600  0.04804500  0.42041700  1
  C  292  1  0.72903800  0.05506100  0.44230600  1
  C  295  1  0.76339500  0.04591100  0.49143100  1
  C  296  1  0.75169400  0.06347800  0.51612300  1
  C  297  1  0.78551900  0.06738300  0.53921800  1
  C  298  1  0.83169500  0.05318900  0.53760800  1
  C  299  1  0.83965800  0.03277200  0.51438400  1
  C  300  1  0.80654500  0.02982400  0.49121500  1
  C  309  1  0.97765500  0.22896200  0.69589100  1
  C  310  1  0.94364200  0.23749800  0.71713100  1
  C  311  1  0.90355600  0.21949600  0.72294700  1
  C  312  1  0.89705000  0.19212200  0.70799200  1
  C  313  1  0.93108500  0.18418000  0.68564200  1
  C  314  1  0.97215000  0.20211800  0.68067700  1
  C  317  1  0.01699400  0.24775800  0.69093900  1
  C  318  1  0.01467400  0.27208000  0.67161300  1
  C  319  1  0.05418900  0.29174900  0.66922600  1
  C  320  1  0.09661100  0.28710700  0.68667200  1
  C  321  1  0.09531000  0.26445400  0.70827900  1
  C  322  1  0.05653000  0.24464600  0.70990100  1
  C  331  1  0.46426100  0.25217100  0.29968000  1
  C  332  1  0.41722100  0.24211600  0.30637600  1
  C  333  1  0.37772100  0.26143000  0.30715400  1
  C  334  1  0.38452400  0.29241000  0.30558900  1
  C  335  1  0.43217800  0.30321000  0.30015200  1
  C  336  1  0.46965800  0.28292000  0.29439000  1
  C  339  1  0.50465700  0.23216500  0.30031300  1
  C  340  1  0.50013600  0.20112400  0.29685300  1
  C  341  1  0.53942600  0.18169300  0.30124600  1
  C  342  1  0.58696100  0.19360200  0.30441500  1
  C  343  1  0.59201400  0.22468000  0.30553400  1
  C  344  1  0.55142600  0.24302400  0.30641600  1
  C  353  1  0.87835900  0.98017200  0.97685100  1
  C  354  1  0.88285900  0.01062000  0.97072200  1
  C  356  1  0.96305900  0.00961300  0.99012800  1
  C  357  1  0.95957800  0.97920400  0.99709700  1
  C  358  1  0.91659800  0.96456000  0.99013200  1
  C  360  1  0.00600200  0.02482300  0.99591300  1
  C  361  1  0.09151300  0.05512300  0.00531400  1
  C  363  1  0.05208600  0.06923600  0.99137700  1
  C  364  1  0.08732200  0.02558800  0.01481200  1
  C  365  1  0.04488700  0.00978000  0.00954200  1
  C  366  1  0.04117300  0.97965600  0.01681200  1
  C  367  1  0.99862800  0.96426300  0.01028500  1
  C  371  1  0.84415500  0.02850300  0.95711500  1
  C  375  1  0.05379800  0.09984400  0.98022400  1
  C  379  1  0.37402000  0.51976800  0.01758100  1
  C  380  1  0.37781200  0.48873000  0.01990000  1
  C  382  1  0.46048000  0.49166200  0.00484500  1
  C  383  1  0.45812000  0.52281000  0.00234900  1
  C  384  1  0.41412700  0.53668800  0.00863400  1
  C  386  1  0.50354800  0.47693400  0.99796500  1
  C  387  1  0.58695000  0.44702300  0.98169200  1
  C  389  1  0.54592500  0.43129300  0.99165500  1
  C  390  1  0.58599900  0.47814400  0.98082200  1
  C  391  1  0.54422600  0.49352000  0.98874200  1
  C  392  1  0.54211100  0.52450700  0.98682100  1
  C  393  1  0.49896100  0.53916400  0.99356800  1
  C  397  1  0.33759000  0.46943800  0.02937900  1
  C  401  1  0.54404200  0.39878000  0.99335700  1
  C  405  1  0.13496700  0.25795400  0.72626900  1
  C  406  1  0.13759000  0.26720900  0.75605100  1
  C  408  1  0.21734700  0.24726500  0.75932400  1
  C  409  1  0.21603700  0.23756200  0.72960100  1
  C  410  1  0.17395500  0.24276200  0.71328300  1
  C  412  1  0.25893200  0.24261000  0.77629900  1
  C  413  1  0.34112800  0.23420100  0.81032300  1
  C  415  1  0.30018300  0.24852800  0.82233000  1
  C  416  1  0.34022500  0.22401800  0.78091100  1
  C  417  1  0.29924000  0.22825900  0.76342400  1
  C  418  1  0.29802200  0.21881500  0.73382900  1
  C  419  1  0.25638000  0.22345600  0.71691200  1
  C  423  1  0.09848100  0.28336000  0.77137700  1
  C  427  1  0.29811000  0.25970900  0.85290800  1
  C  431  1  0.63288400  0.23735700  0.29212200  1
  C  432  1  0.63554100  0.23760400  0.26081800  1
  C  434  1  0.71971600  0.24761900  0.26382400  1
  C  435  1  0.71856000  0.24990300  0.29494000  1
  C  436  1  0.67404300  0.24459100  0.30908800  1
  C  438  1  0.76322800  0.24987000  0.24843400  1
  C  439  1  0.84689800  0.25558500  0.21577200  1
  C  441  1  0.80310800  0.24728900  0.20189800  1
  C  442  1  0.84874900  0.25960300  0.24664900  1
  C  443  1  0.80656000  0.25632100  0.26365300  1
  C  444  1  0.80554400  0.25963600  0.29461800  1
  C  445  1  0.76189500  0.25593100  0.31023600  1
  C  449  1  0.59498900  0.23145500  0.24032100  1
  C  453  1  0.79758100  0.24172600  0.16989100  1
  C  457  1  0.11618100  0.50309400  0.97741900  1
  C  458  1  0.10655600  0.47247100  0.97677400  1
  C  460  1  0.02343200  0.48208100  0.98820200  1
  C  461  1  0.03190300  0.51285200  0.98972600  1
  C  462  1  0.07892500  0.52294200  0.98496800  1
  C  464  1  0.97635000  0.47140600  0.99236900  1
  C  465  1  0.88439200  0.44962600  0.00341200  1
  C  467  1  0.92329500  0.43010700  0.99795900  1
  C  468  1  0.89173300  0.48034200  0.00221200  1
  C  469  1  0.93804300  0.49161800  0.99730200  1
  C  470  1  0.94669600  0.52219500  0.99839700  1
  C  471  1  0.99380800  0.53281600  0.99490700  1
  C  475  1  0.14358000  0.45023200  0.96924200  1
  C  479  1  0.91856800  0.39768300  0.99936800  1
  C  483  1  0.61224800  0.97953300  0.01521800  1
  C  484  1  0.59507900  0.00886000  0.01393800  1
  C  486  1  0.51718500  0.99089700  0.99929300  1
  C  487  1  0.53324500  0.96131600  0.99935400  1
  C  488  1  0.58134400  0.95607700  0.00717800  1
  C  490  1  0.46891300  0.99683900  0.99224600  1
  C  491  1  0.37476100  0.01096900  0.97631500  1
  C  493  1  0.40846300  0.03324500  0.98432100  1
  C  494  1  0.38883600  0.98112400  0.97730100  1
  C  495  1  0.43649000  0.97368700  0.98509000  1
  C  496  1  0.45299400  0.94429400  0.98517800  1
  C  497  1  0.50130300  0.93810900  0.99230800  1
  C  501  1  0.62516700  0.03474100  0.02137700  1
  C  505  1  0.39903300  0.06527700  0.98380200  1
  C  509  1  0.86241500  0.23454700  0.73323900  1
  C  510  1  0.84541600  0.23106300  0.76246100  1
  C  512  1  0.76575500  0.24394500  0.74635400  1
  C  513  1  0.78174900  0.24944700  0.71724000  1
  C  514  1  0.83090400  0.24521000  0.71112800  1
  C  516  1  0.71648500  0.24638300  0.75294900  1
  C  517  1  0.62125200  0.25630300  0.76939100  1
  C  519  1  0.65566300  0.24573300  0.79012100  1
  C  520  1  0.63455400  0.25956100  0.73953600  1
  C  521  1  0.68284400  0.25493300  0.73098000  1
  C  522  1  0.69908400  0.26026400  0.70199200  1
  C  523  1  0.74838000  0.25739400  0.69510300  1
  C  527  1  0.87580400  0.22008700  0.78691800  1
  C  531  1  0.64750100  0.24296200  0.82221900  1
  C  535  1  0.33389900  0.24979900  0.29662500  1
  C  536  1  0.32551300  0.25088600  0.26574200  1
  C  538  1  0.24127800  0.24508900  0.27447200  1
  C  539  1  0.24773500  0.24112600  0.30513400  1
  C  540  1  0.29513100  0.24406900  0.31619200  1
  C  542  1  0.19528100  0.24416800  0.26199900  1
  C  543  1  0.10882500  0.23509200  0.23305400  1
  C  545  1  0.14971700  0.24610300  0.21765400  1
  C  546  1  0.11069400  0.23167100  0.26406000  1
  C  547  1  0.15452300  0.23650900  0.27919300  1
  C  548  1  0.16065000  0.23221500  0.30983100  1
  C  549  1  0.20675300  0.23526400  0.32283100  1
  C  553  1  0.36285800  0.25560300  0.24270000  1
  C  557  1  0.15364400  0.25006800  0.18539000  1
  C  561  1  0.86561400  0.73207000  0.26466100  1
  C  562  1  0.86410700  0.72432400  0.23443300  1
  C  564  1  0.77982600  0.73588500  0.23326300  1
  C  565  1  0.78013700  0.74442800  0.26336600  1
  C  566  1  0.82379000  0.74269500  0.27886200  1
  C  568  1  0.73652400  0.73671600  0.21724200  1
  C  569  1  0.65228000  0.74172300  0.18405500  1
  C  571  1  0.69526400  0.73076000  0.17113000  1
  C  572  1  0.65171600  0.74840800  0.21454600  1
  C  573  1  0.69372800  0.74628100  0.23145500  1
  C  574  1  0.69396600  0.75447200  0.26143400  1
  C  575  1  0.73721100  0.75351500  0.27740900  1
  C  579  1  0.90618800  0.71265800  0.21802600  1
  C  583  1  0.69873700  0.72156100  0.13993000  1
  C  587  1  0.35398500  0.74874300  0.71599800  1
  C  588  1  0.35377300  0.75659600  0.74624000  1
  C  590  1  0.26987000  0.74449800  0.74896200  1
  C  591  1  0.26900600  0.73561400  0.71895700  1
  C  592  1  0.31187900  0.73762200  0.70260300  1
  C  594  1  0.22727800  0.74392300  0.76571500  1
  C  595  1  0.14415300  0.74064600  0.80012000  1
  C  597  1  0.18761900  0.75192100  0.81207900  1
  C  598  1  0.14253500  0.73253000  0.77001300  1
  C  599  1  0.18395800  0.73397200  0.75243700  1
  C  600  1  0.18306000  0.72515500  0.72263900  1
  C  601  1  0.22556000  0.72610100  0.70586000  1
  C  605  1  0.39628900  0.76861300  0.76196400  1
  C  609  1  0.19206900  0.76261600  0.84275000  1
  C  613  1  0.12540600  0.76449300  0.26092900  1
  C  614  1  0.13386200  0.76381700  0.23016600  1
  C  616  1  0.21819100  0.75571200  0.23909200  1
  C  617  1  0.21099600  0.75577200  0.27003000  1
  C  618  1  0.16394800  0.75943500  0.28062900  1
  C  620  1  0.26506100  0.75198300  0.22788100  1
  C  621  1  0.35583300  0.73900600  0.20535400  1
  C  623  1  0.31600200  0.74307400  0.18617900  1
  C  624  1  0.35032300  0.74330100  0.23592300  1
  C  625  1  0.30451100  0.74906900  0.24764300  1
  C  626  1  0.29716800  0.74994200  0.27836500  1
  C  627  1  0.25030300  0.75301700  0.28957200  1
  C  631  1  0.09563000  0.76927600  0.20809200  1
  C  635  1  0.31872500  0.73854300  0.15393500  1
  C  639  1  0.61166600  0.73557200  0.73463400  1
  C  640  1  0.62125600  0.73296900  0.76517900  1
  C  642  1  0.70417700  0.74545500  0.75637400  1
  C  643  1  0.69529600  0.74985000  0.72591200  1
  C  644  1  0.64817000  0.74598600  0.71554200  1
  C  646  1  0.75169100  0.74747600  0.76701300  1
  C  647  1  0.84475500  0.75459100  0.78885000  1
  C  649  1  0.80583000  0.74829400  0.80816400  1
  C  650  1  0.83690400  0.75565300  0.75817600  1
  C  651  1  0.79003800  0.75302400  0.74697700  1
  C  652  1  0.78092500  0.75718500  0.71671800  1
  C  653  1  0.73344100  0.75593700  0.70622900  1
  C  657  1  0.58487200  0.72254600  0.78666000  1
  C  661  1  0.81090800  0.74743000  0.84059200  1
  C  665  1  0.38930600  0.49303900  0.46384700  1
  C  666  1  0.39530300  0.52393600  0.46169900  1
  C  668  1  0.47605500  0.51915700  0.47993100  1
  C  669  1  0.47145800  0.48810900  0.48238200  1
  C  670  1  0.42751500  0.47527000  0.47421800  1
  C  672  1  0.51921000  0.53283100  0.48856700  1
  C  673  1  0.60320500  0.56070400  0.50730500  1
  C  675  1  0.56474200  0.57729200  0.49519800  1
  C  676  1  0.59924300  0.52969500  0.50924700  1
  C  677  1  0.55737200  0.51533600  0.49984100  1
  C  678  1  0.55295500  0.48445000  0.50186300  1
  C  679  1  0.50994900  0.47080500  0.49305900  1
  C  683  1  0.35713800  0.54401900  0.45092900  1
  C  687  1  0.56626400  0.60966700  0.49171400  1
  C  691  1  0.88307300  0.01727100  0.51115300  1
  C  692  1  0.88734500  0.98703300  0.51854300  1
  C  694  1  0.97111600  0.98859100  0.50584300  1
  C  695  1  0.96837600  0.01893000  0.49840800  1
  C  696  1  0.92351600  0.03301800  0.50075400  1
  C  698  1  0.01487100  0.97340700  0.50251500  1
  C  699  1  0.09921400  0.94193600  0.49211800  1
  C  701  1  0.05789500  0.92757000  0.50358700  1
  C  702  1  0.09820100  0.97267600  0.48709100  1
  C  703  1  0.05595100  0.98879800  0.49199700  1
  C  704  1  0.05362400  0.01916400  0.48555100  1
  C  705  1  0.00972600  0.03422200  0.48865500  1
  C  709  1  0.84690500  0.96884900  0.52975800  1
  C  713  1  0.05617100  0.89562800  0.50998400  1
  C  717  1  0.62179400  0.99610200  0.46334600  1
  C  718  1  0.61072300  0.96567300  0.46450000  1
  C  720  1  0.53155700  0.97706600  0.48284200  1
  C  721  1  0.54136300  0.00773200  0.48218000  1
  C  722  1  0.58699300  0.01688500  0.47263600  1
  C  724  1  0.48602100  0.96726700  0.49237600  1
  C  725  1  0.39700500  0.94732500  0.51265600  1
  C  727  1  0.43298400  0.92704500  0.50364800  1
  C  728  1  0.40584300  0.97786200  0.51078900  1
  C  729  1  0.45058400  0.98822500  0.50088100  1
  C  730  1  0.46046900  0.01866800  0.49987900  1
  C  731  1  0.50598400  0.02843300  0.49062600  1
  C  735  1  0.64488800  0.94251300  0.45499500  1
  C  739  1  0.42656800  0.89473100  0.50506900  1
  C  743  1  0.12845600  0.48778000  0.51174000  1
  C  744  1  0.11742000  0.51802500  0.51533900  1
  C  746  1  0.03616200  0.50856700  0.49991600  1
  C  747  1  0.04609800  0.47823900  0.49544900  1
  C  748  1  0.09316700  0.46830100  0.50053200  1
  C  750  1  0.98915300  0.51913300  0.49539700  1
  C  751  1  0.89738600  0.54100400  0.48431700  1
  C  753  1  0.93526300  0.56029000  0.49252800  1
  C  754  1  0.90563500  0.51038300  0.48264000  1
  C  755  1  0.95199900  0.49913100  0.48742100  1
  C  756  1  0.96194600  0.46893300  0.48344000  1
  C  757  1  0.00919100  0.45853300  0.48710100  1
  C  761  1  0.15232700  0.53989500  0.52673200  1
  C  765  1  0.92977300  0.59266900  0.49405000  1
  C  769  1  0.46050200  0.16277700  0.84072600  1
  C  770  1  0.46541400  0.15677600  0.87125000  1
  C  772  1  0.41444500  0.11463400  0.86498500  1
  C  773  1  0.41980200  0.11516500  0.83397300  1
  C  774  1  0.44388900  0.13987500  0.82187700  1
  C  776  1  0.37600100  0.09887700  0.87742900  1
  C  777  1  0.30044200  0.06938500  0.90526800  1
  C  779  1  0.32284000  0.09435400  0.91852600  1
  C  780  1  0.31022500  0.06385700  0.87504900  1
  C  781  1  0.34783700  0.07915400  0.86043100  1
  C  782  1  0.35891700  0.07594300  0.83017900  1
  C  783  1  0.39311900  0.09482600  0.81678800  1
  C  787  1  0.48201600  0.17862800  0.89321900  1
  C  791  1  0.30789200  0.10873200  0.94647600  1
  C  795  1  0.92778800  0.32094000  0.14490400  1
  C  796  1  0.90191200  0.31532600  0.11844500  1
  C  798  1  0.86707800  0.36346500  0.12060100  1
  C  799  1  0.89705700  0.37172600  0.14449900  1
  C  800  1  0.92873200  0.35016100  0.15611100  1
  C  802  1  0.83083500  0.38254300  0.11043400  1
  C  803  1  0.77281100  0.42274700  0.08067600  1
  C  805  1  0.77058000  0.39200100  0.07406100  1
  C  806  1  0.79244100  0.43050400  0.10854200  1
  C  807  1  0.82487100  0.41096000  0.12275100  1
  C  808  1  0.85504500  0.41936200  0.14644300  1
  C  809  1  0.89042100  0.39981600  0.15741000  1
  C  813  1  0.89955900  0.28622100  0.10365700  1
  C  817  1  0.74714000  0.37873900  0.04787800  1
  C  821  1  0.70260900  0.42833000  0.90335500  1
  C  822  1  0.71070200  0.39731000  0.90463300  1
  C  824  1  0.65536300  0.39113000  0.86489200  1
  C  825  1  0.65866600  0.42123100  0.85703200  1
  C  826  1  0.68442400  0.43995700  0.87646200  1
  C  828  1  0.61965500  0.37310300  0.85256200  1
  C  829  1  0.55285000  0.33431200  0.82818500  1
  C  831  1  0.57802200  0.32712400  0.85455100  1
  C  832  1  0.55654100  0.36345400  0.81705200  1
  C  833  1  0.58993200  0.38352600  0.82943600  1
  C  834  1  0.59653900  0.41274300  0.81934900  1
  C  835  1  0.62951900  0.43171600  0.83366100  1
  C  839  1  0.73266400  0.38136400  0.92979400  1
  C  843  1  0.57138200  0.29965700  0.87182800  1
  C  847  1  0.21628700  0.08091500  0.07456700  1
  C  848  1  0.22866500  0.11079600  0.07971000  1
  C  850  1  0.17514900  0.11156400  0.12112600  1
  C  851  1  0.17140600  0.08042700  0.12134600  1
  C  852  1  0.19375300  0.06501000  0.09788400  1
  C  854  1  0.13959500  0.12847600  0.13538100  1
  C  855  1  0.06665700  0.16387700  0.15930600  1
  C  857  1  0.09886700  0.17490800  0.13752600  1
  C  858  1  0.06839800  0.13340100  0.16622800  1
  C  859  1  0.10420800  0.11505700  0.15358100  1
  C  860  1  0.10581900  0.08418400  0.15759800  1
  C  861  1  0.13808400  0.06689400  0.14078700  1
  C  865  1  0.25529200  0.12918200  0.05819900  1
  C  869  1  0.09517000  0.20441000  0.12366500  1
  C  873  1  0.55302700  0.82525700  0.17171400  1
  C  874  1  0.53577100  0.83175500  0.14298500  1
  C  876  1  0.59245900  0.87131100  0.13984600  1
  C  877  1  0.60203700  0.87031300  0.17048200  1
  C  878  1  0.58151000  0.84666300  0.18652800  1
  C  880  1  0.62368100  0.88677900  0.12106100  1
  C  881  1  0.68559500  0.91478400  0.08135000  1
  C  883  1  0.65277100  0.89260700  0.07187900  1
  C  884  1  0.69050000  0.92003400  0.11202800  1
  C  885  1  0.66051700  0.90518300  0.13248600  1
  C  886  1  0.66533500  0.90759000  0.16341500  1
  C  887  1  0.63766900  0.88935600  0.18220700  1
  C  891  1  0.50346100  0.81224700  0.12572000  1
  C  895  1  0.64925800  0.88111700  0.04137900  1
  C  899  1  0.03857100  0.66110100  0.81846700  1
  C  900  1  0.02090200  0.65554900  0.84733000  1
  C  902  1  0.07727200  0.61597100  0.85196700  1
  C  903  1  0.08753000  0.61621500  0.82135800  1
  C  904  1  0.06657300  0.63900500  0.80431900  1
  C  906  1  0.10858500  0.60149200  0.87149100  1
  C  907  1  0.17174400  0.57620300  0.91244100  1
  C  909  1  0.13512300  0.59635000  0.92132400  1
  C  910  1  0.17864500  0.57118900  0.88186200  1
  C  911  1  0.14757000  0.58426500  0.86086600  1
  C  912  1  0.15368100  0.58127200  0.83008100  1
  C  913  1  0.12475000  0.59778100  0.81050500  1
  C  917  1  0.98884500  0.67579300  0.86396000  1
  C  921  1  0.12673300  0.60632400  0.95200700  1
  C  925  1  0.28225900  0.59183000  0.07592500  1
  C  926  1  0.30738200  0.61853400  0.07000000  1
  C  928  1  0.34075400  0.61780900  0.11851700  1
  C  929  1  0.31036200  0.59428100  0.12725400  1
  C  930  1  0.27956700  0.58195500  0.10562300  1
  C  932  1  0.37819100  0.62743600  0.13695900  1
  C  933  1  0.44451500  0.65411900  0.17475200  1
  C  935  1  0.44292800  0.66139600  0.14410300  1
  C  936  1  0.42090100  0.62772700  0.18348100  1
  C  937  1  0.38504800  0.61502500  0.16523800  1
  C  938  1  0.35359200  0.59226200  0.17446600  1
  C  939  1  0.31693000  0.58177700  0.15553800  1
  C  943  1  0.31158600  0.63219500  0.04042400  1
  C  947  1  0.46927800  0.68569400  0.12928700  1
  C  951  1  0.79752700  0.90356100  0.91917200  1
  C  952  1  0.82557600  0.87812800  0.92559200  1
  C  954  1  0.85640400  0.87801800  0.87639800  1
  C  955  1  0.82442300  0.90072200  0.86761700  1
  C  956  1  0.79373200  0.91291000  0.88936800  1
  C  958  1  0.89164600  0.86741400  0.85687900  1
  C  959  1  0.94779100  0.83642500  0.81680000  1
  C  961  1  0.95163000  0.83089100  0.84766600  1
  C  962  1  0.92640000  0.86345600  0.80795600  1
  C  963  1  0.89477300  0.87813500  0.82764300  1
  C  964  1  0.86261800  0.90066700  0.81877200  1
  C  965  1  0.82804800  0.91202700  0.83864900  1
  C  969  1  0.83163400  0.86553200  0.95550900  1
  C  973  1  0.97776000  0.80596300  0.86152200  1
  C  977  1  0.93821600  0.67013300  0.34135900  1
  C  978  1  0.90971200  0.67657800  0.36662000  1
  C  980  1  0.87649800  0.62796100  0.36555200  1
  C  981  1  0.90837100  0.61907800  0.34279700  1
  C  982  1  0.94038100  0.64051300  0.33125700  1
  C  984  1  0.84062300  0.60873300  0.37593300  1
  C  985  1  0.78424000  0.56871800  0.40703700  1
  C  987  1  0.78053500  0.59961900  0.41247000  1
  C  988  1  0.80455000  0.56016600  0.37957200  1
  C  989  1  0.83655700  0.57967400  0.36488000  1
  C  990  1  0.86826400  0.57078300  0.34207900  1
  C  991  1  0.90358900  0.59035300  0.33102400  1
  C  995  1  0.90490500  0.70627100  0.37994400  1
  C  999  1  0.75474100  0.61364800  0.43742500  1
  C  1003  1  0.43167200  0.81738900  0.64682700  1
  C  1004  1  0.40354000  0.81397000  0.62085900  1
  C  1006  1  0.37231800  0.86270600  0.62673900  1
  C  1007  1  0.40459600  0.86891700  0.65011900  1
  C  1008  1  0.43486000  0.84576200  0.65991700  1
  C  1010  1  0.33721200  0.88335400  0.61841400  1
  C  1011  1  0.28210000  0.92631300  0.59082500  1
  C  1013  1  0.27407800  0.89575000  0.58498400  1
  C  1014  1  0.30464900  0.93285500  0.61820000  1
  C  1015  1  0.33556600  0.91169400  0.63135700  1
  C  1016  1  0.36831300  0.91816300  0.65437800  1
  C  1017  1  0.40182700  0.89677000  0.66405700  1
  C  1021  1  0.39811500  0.78584600  0.60455400  1
  C  1025  1  0.24496800  0.88332800  0.56060800  1
  C  1029  1  0.21081200  0.92332000  0.41234700  1
  C  1030  1  0.22403900  0.89317500  0.40927600  1
  C  1032  1  0.16853800  0.88861100  0.36926100  1
  C  1033  1  0.16448900  0.91961300  0.36643500  1
  C  1034  1  0.18767400  0.93716200  0.38804700  1
  C  1036  1  0.13432200  0.87001700  0.35597800  1
  C  1037  1  0.06642100  0.83119300  0.33174000  1
  C  1039  1  0.10101700  0.82148400  0.35282700  1
  C  1040  1  0.06358300  0.86179400  0.32556000  1
  C  1041  1  0.09767300  0.88167200  0.33758600  1
  C  1042  1  0.09727000  0.91231500  0.33195500  1
  C  1043  1  0.12981300  0.93120200  0.34668400  1
  C  1047  1  0.25138100  0.87619500  0.43164500  1
  C  1051  1  0.10581100  0.79075900  0.36358300  1
  C  1055  1  0.71768500  0.56543400  0.58727800  1
  C  1056  1  0.73601100  0.59432200  0.59203100  1
  C  1058  1  0.68048000  0.60004400  0.63190000  1
  C  1059  1  0.67240200  0.56923600  0.63352200  1
  C  1060  1  0.69289600  0.55157200  0.61097600  1
  C  1062  1  0.64732000  0.61962900  0.64478600  1
  C  1063  1  0.57866900  0.66000300  0.66539200  1
  C  1065  1  0.61623200  0.66882000  0.64588900  1
  C  1066  1  0.57464200  0.62977300  0.67292500  1
  C  1067  1  0.60849600  0.60902100  0.66218600  1
  C  1068  1  0.60486400  0.57838300  0.66736300  1
  C  1069  1  0.63586200  0.55857900  0.65257700  1
  C  1073  1  0.76550900  0.61079100  0.57028500  1
  C  1077  1  0.62348600  0.69924700  0.63488300  1
  C  1081  1  0.05259300  0.31518700  0.64838100  1
  C  1082  1  0.06500500  0.30884600  0.61866800  1
  C  1084  1  0.10819100  0.35445500  0.61528300  1
  C  1085  1  0.09250400  0.36317800  0.64371100  1
  C  1086  1  0.06163600  0.34395900  0.65937200  1
  C  1088  1  0.14290100  0.37123900  0.60008900  1
  C  1089  1  0.20263400  0.40755500  0.56613500  1
  C  1091  1  0.18353400  0.38084400  0.55453200  1
  C  1092  1  0.19717300  0.41318200  0.59672800  1
  C  1093  1  0.16422500  0.39626600  0.61349500  1
  C  1094  1  0.14866500  0.40484400  0.64190100  1
  C  1095  1  0.11245600  0.38875400  0.65665900  1
  C  1099  1  0.05630800  0.28007900  0.60418500  1
  C  1103  1  0.18745900  0.37144800  0.52333400  1
  C  1107  1  0.52882800  0.15311000  0.31262200  1
  C  1108  1  0.52198600  0.15209100  0.34370800  1
  C  1110  1  0.57852800  0.11256400  0.34659700  1
  C  1111  1  0.57750900  0.10829600  0.31567200  1
  C  1112  1  0.54970900  0.12820900  0.29861000  1
  C  1114  1  0.61384600  0.09881600  0.36396700  1
  C  1115  1  0.68036100  0.07089000  0.40084600  1
  C  1117  1  0.64865800  0.09306300  0.41178300  1
  C  1118  1  0.68199800  0.06586400  0.36999700  1
  C  1119  1  0.64785500  0.07933700  0.35115600  1
  C  1120  1  0.64486600  0.07345600  0.32061800  1
  C  1121  1  0.61031100  0.08800900  0.30298900  1
  C  1125  1  0.49714300  0.17506600  0.36137400  1
  C  1129  1  0.64508700  0.10245900  0.44301800  1
  C  1133  1  0.77438300  0.08619400  0.56347400  1
  C  1134  1  0.78270000  0.11690200  0.55987900  1
  C  1136  1  0.81875900  0.11922600  0.60776600  1
  C  1137  1  0.80543600  0.08972700  0.61396900  1
  C  1138  1  0.77963800  0.07401700  0.59217200  1
  C  1140  1  0.85156800  0.13411200  0.62613900  1
  C  1141  1  0.91560700  0.16559900  0.66218100  1
  C  1143  1  0.89425600  0.17870800  0.63678500  1
  C  1144  1  0.90712000  0.13525200  0.66749600  1
  C  1145  1  0.87308200  0.11953600  0.65043100  1
  C  1146  1  0.85859500  0.09043900  0.65712600  1
  C  1147  1  0.82453100  0.07579600  0.63929000  1
  C  1151  1  0.77658400  0.13283200  0.53164100  1
  C  1155  1  0.89964900  0.21001400  0.62795000  1
  C  1159  1  0.31247700  0.41350100  0.41054500  1
  C  1160  1  0.34263000  0.38963600  0.41910900  1
  C  1162  1  0.36990700  0.38428000  0.36944000  1
  C  1163  1  0.33640500  0.40542400  0.35903600  1
  C  1164  1  0.30664400  0.41956500  0.38004800  1
  C  1166  1  0.40221700  0.37056400  0.34999400  1
  C  1167  1  0.44623900  0.33094600  0.31232000  1
  C  1169  1  0.45658400  0.33048100  0.34306100  1
  C  1170  1  0.42550600  0.35692100  0.30031200  1
  C  1171  1  0.40038800  0.37637200  0.31934300  1
  C  1172  1  0.36780300  0.39803800  0.30900400  1
  C  1173  1  0.33646900  0.41266400  0.32872600  1
  C  1177  1  0.35066000  0.38007500  0.44996800  1
  C  1181  1  0.48260500  0.30655800  0.35867100  1
  N  8  1  0.36366800  0.01897400  0.91468200  1
  N  15  1  0.11718900  0.09044100  0.05437300  1
  N  30  1  0.86947100  0.44650700  0.06501700  1
  N  37  1  0.59995200  0.43362200  0.92126500  1
  N  52  1  0.62178700  0.31700300  0.78393800  1
  N  59  1  0.35987700  0.18275100  0.84358100  1
  N  74  1  0.11672000  0.17595400  0.21341300  1
  N  81  1  0.85069700  0.31082100  0.18666200  1
  N  96  1  0.62624400  0.96635900  0.07560200  1
  N  103  1  0.87307500  0.94709500  0.92413100  1
  N  118  1  0.12482000  0.52009200  0.91774300  1
  N  125  1  0.36253700  0.55101900  0.07110300  1
  N  140  1  0.35962300  0.67646600  0.20745200  1
  N  147  1  0.64390100  0.79734900  0.15398000  1
  N  162  1  0.85246500  0.81627800  0.79589500  1
  N  169  1  0.13214600  0.68754800  0.83333700  1
  N  184  1  0.88203900  0.54687100  0.42311000  1
  N  191  1  0.61862100  0.57971400  0.56617800  1
  N  206  1  0.38217800  0.94572900  0.57441100  1
  N  213  1  0.11138700  0.91702500  0.43525600  1
  N  228  1  0.11691900  0.82442800  0.27667900  1
  N  235  1  0.86637300  0.67824900  0.29611900  1
  N  250  1  0.62060500  0.67478200  0.72069500  1
  N  257  1  0.35400400  0.80403000  0.68678100  1
  N  272  1  0.13033900  0.45384000  0.56341600  1
  N  279  1  0.37992600  0.46192000  0.41032200  1
  N  294  1  0.62722000  0.01619400  0.40479900  1
  N  301  1  0.86813700  0.05894300  0.55722400  1
  N  316  1  0.85657400  0.17566800  0.71388200  1
  N  323  1  0.13804000  0.30323200  0.68283400  1
  N  338  1  0.34516500  0.31042200  0.30872100  1
  N  345  1  0.62785200  0.17675700  0.30648000  1
  N  355  1  0.92524700  0.02386400  0.97751500  1
  N  362  1  0.01101100  0.05341400  0.98756000  1
  N  381  1  0.42091200  0.47616100  0.01334600  1
  N  388  1  0.50608500  0.44703400  0.99920300  1
  N  407  1  0.17871100  0.26139300  0.77114400  1
  N  414  1  0.26097800  0.25197900  0.80472500  1
  N  433  1  0.67898400  0.24229700  0.24837000  1
  N  440  1  0.76332600  0.24522800  0.21894300  1
  N  459  1  0.06063500  0.46341000  0.98228100  1
  N  466  1  0.96745800  0.44196200  0.99258100  1
  N  485  1  0.54826700  0.01310600  0.00612400  1
  N  492  1  0.45369600  0.02508800  0.99180500  1
  N  511  1  0.79776900  0.23577900  0.76753700  1
  N  518  1  0.70158900  0.24172600  0.78092000  1
  N  537  1  0.27954700  0.24898600  0.25639300  1
  N  544  1  0.19111300  0.24917600  0.23279700  1
  N  563  1  0.82125600  0.72664300  0.22017400  1
  N  570  1  0.73534200  0.72894600  0.18830800  1
  N  589  1  0.31164200  0.75413000  0.76124600  1
  N  596  1  0.22714700  0.75281200  0.79433900  1
  N  615  1  0.17985000  0.75928500  0.22071600  1
  N  622  1  0.27245800  0.74940700  0.19840100  1
  N  641  1  0.66711000  0.73801200  0.77459800  1
  N  648  1  0.76115700  0.74488200  0.79627800  1
  N  667  1  0.43845300  0.53551400  0.46983700  1
  N  674  1  0.52443600  0.56255800  0.48662000  1
  N  693  1  0.93117200  0.97412400  0.51538700  1
  N  700  1  0.01757400  0.94400500  0.50805900  1
  N  719  1  0.56617700  0.95761500  0.47421900  1
  N  726  1  0.47581700  0.93800800  0.49396000  1
  N  745  1  0.07176300  0.52698400  0.50916200  1
  N  752  1  0.97935700  0.54836800  0.49784200  1
  N  771  1  0.43847100  0.13435400  0.88196300  1
  N  778  1  0.36052100  0.10685200  0.90448800  1
  N  797  1  0.87209500  0.33654400  0.10811200  1
  N  804  1  0.80203100  0.37399400  0.08800600  1
  N  823  1  0.68286600  0.38041800  0.88701000  1
  N  830  1  0.61096900  0.34646500  0.86481500  1
  N  849  1  0.20497700  0.12501800  0.10158700  1
  N  856  1  0.13397400  0.15695900  0.12727000  1
  N  875  1  0.55878500  0.85325300  0.12792000  1
  N  882  1  0.62287100  0.88043100  0.09196400  1
  N  901  1  0.04332500  0.63435500  0.86313000  1
  N  908  1  0.10527800  0.60748700  0.90061300  1
  N  927  1  0.33654100  0.62950600  0.09121200  1
  N  934  1  0.40862200  0.64857100  0.12731400  1
  N  953  1  0.85431200  0.86713000  0.90414400  1
  N  960  1  0.92167300  0.84575900  0.86584000  1
  N  979  1  0.87974000  0.65544300  0.37697800  1
  N  986  1  0.81088300  0.61770300  0.39775200  1
  N  1005  1  0.37437800  0.83642100  0.61269100  1
  N  1012  1  0.30494200  0.87627700  0.59730300  1
  N  1031  1  0.19952300  0.87703500  0.38920400  1
  N  1038  1  0.13320900  0.84116800  0.36347900  1
  N  1057  1  0.71327500  0.61084400  0.61256800  1
  N  1064  1  0.64853800  0.64838600  0.63689200  1
  N  1083  1  0.09246400  0.32861400  0.60376600  1
  N  1090  1  0.15472500  0.36418800  0.57201300  1
  N  1109  1  0.54931200  0.13288600  0.35914700  1
  N  1116  1  0.61689700  0.10552300  0.39294200  1
  N  1135  1  0.80522600  0.13167000  0.58190700  1
  N  1142  1  0.86390500  0.16232200  0.62011700  1
  N  1161  1  0.37024600  0.37665000  0.39826700  1
  N  1168  1  0.43181700  0.34932400  0.36041800  1
