# generated using pymatgen
data_H11C12N4O
_symmetry_space_group_name_H-M   'P 1'
_cell_length_a   22.37790000
_cell_length_b   60.82960000
_cell_length_c   60.82960000
_cell_angle_alpha   90.00000000
_cell_angle_beta   90.00000000
_cell_angle_gamma   90.00000000
_symmetry_Int_Tables_number   1
_chemical_formula_structural   H11C12N4O
_chemical_formula_sum   'H352 C384 N128 O32'
_cell_volume   82803.60598076
_cell_formula_units_Z   32
loop_
 _symmetry_equiv_pos_site_id
 _symmetry_equiv_pos_as_xyz
  1  'x, y, z'
loop_
 _atom_site_type_symbol
 _atom_site_label
 _atom_site_symmetry_multiplicity
 _atom_site_fract_x
 _atom_site_fract_y
 _atom_site_fract_z
 _atom_site_occupancy
  C  1  1  0.22700400  0.08291100  0.00265000  1
  C  2  1  0.21033100  0.10226800  0.01399100  1
  C  3  1  0.15751000  0.10332600  0.02665600  1
  C  4  1  0.12134200  0.08436500  0.02801600  1
  C  5  1  0.13721400  0.06455000  0.01741300  1
  C  6  1  0.19045500  0.06393400  0.00473400  1
  C  9  1  0.27992200  0.08282400  0.98950600  1
  C  10  1  0.28739400  0.09762100  0.97165400  1
  C  11  1  0.33933400  0.09671300  0.95829700  1
  C  12  1  0.38374400  0.08095800  0.96322300  1
  C  13  1  0.37755500  0.06599000  0.98080100  1
  C  14  1  0.32562000  0.06737200  0.99394600  1
  C  21  1  0.42456100  0.04885200  0.98369900  1
  C  24  1  0.34675700  0.11138900  0.93884000  1
  C  27  1  0.13863600  0.12399100  0.03785200  1
  C  30  1  0.09856000  0.04472900  0.01983300  1
  C  33  1  0.72700600  0.41711300  0.99737500  1
  C  34  1  0.71033600  0.39775600  0.98603400  1
  C  35  1  0.65751400  0.39669700  0.97336900  1
  C  36  1  0.62134200  0.41565600  0.97200800  1
  C  37  1  0.63721300  0.43547300  0.98261100  1
  C  38  1  0.69045300  0.43609100  0.99528900  1
  C  41  1  0.77992000  0.41720200  0.01052100  1
  C  42  1  0.78739200  0.40240300  0.02837200  1
  C  43  1  0.83932300  0.40331400  0.04173300  1
  C  44  1  0.88372600  0.41907400  0.03681300  1
  C  45  1  0.87754200  0.43404200  0.01923400  1
  C  46  1  0.82561300  0.43265600  0.00608500  1
  C  53  1  0.92454100  0.45118400  0.01633900  1
  C  56  1  0.84674500  0.38863500  0.06118800  1
  C  59  1  0.63864500  0.37603100  0.96217400  1
  C  62  1  0.59855800  0.45529200  0.98019000  1
  C  65  1  0.47575000  0.24751100  0.83267900  1
  C  66  1  0.45922900  0.23614800  0.85204000  1
  C  67  1  0.40660600  0.22337300  0.85309700  1
  C  68  1  0.37049300  0.22191500  0.83412900  1
  C  69  1  0.38620500  0.23254800  0.81431300  1
  C  70  1  0.43924900  0.24534000  0.81369800  1
  C  73  1  0.52854000  0.26072500  0.83257900  1
  C  74  1  0.53595700  0.27855900  0.84740200  1
  C  75  1  0.58778900  0.29197300  0.84647800  1
  C  76  1  0.63215600  0.28712000  0.83068500  1
  C  77  1  0.62607700  0.26953300  0.81572200  1
  C  78  1  0.57423800  0.25633900  0.81711400  1
  C  85  1  0.67311000  0.26665300  0.79859000  1
  C  88  1  0.59523000  0.31137300  0.86122800  1
  C  91  1  0.38789600  0.21215800  0.87376900  1
  C  94  1  0.34763100  0.23003000  0.79448200  1
  C  97  1  0.97578600  0.25251900  0.16733300  1
  C  98  1  0.95925400  0.26388300  0.14797500  1
  C  99  1  0.90662100  0.27665300  0.14692000  1
  C  100  1  0.87050800  0.27810500  0.16588800  1
  C  101  1  0.88623000  0.26747000  0.18570400  1
  C  102  1  0.93928300  0.25468400  0.18631600  1
  C  105  1  0.02858500  0.23931000  0.16742800  1
  C  106  1  0.03601100  0.22147900  0.15260200  1
  C  107  1  0.08785700  0.20807300  0.15352100  1
  C  108  1  0.13222700  0.21292900  0.16931400  1
  C  109  1  0.12613300  0.23051000  0.18428200  1
  C  110  1  0.07428100  0.24369900  0.18289500  1
  C  117  1  0.17316600  0.23339000  0.20141400  1
  C  120  1  0.09530600  0.18867300  0.13877200  1
  C  123  1  0.88790600  0.28787300  0.12625100  1
  C  126  1  0.84766000  0.26998400  0.20553500  1
  C  129  1  0.77778400  0.91791400  0.99898100  1
  C  130  1  0.79075700  0.89868600  0.98677500  1
  C  131  1  0.84255800  0.89699000  0.97363000  1
  C  132  1  0.88119600  0.91528000  0.97246800  1
  C  133  1  0.86893200  0.93503100  0.98381100  1
  C  134  1  0.81701000  0.93620100  0.99717100  1
  C  137  1  0.72605200  0.91845600  0.01277400  1
  C  138  1  0.71716400  0.90269300  0.02971800  1
  C  139  1  0.66651000  0.90391400  0.04372100  1
  C  140  1  0.62483900  0.92104900  0.04044500  1
  C  141  1  0.63282400  0.93703000  0.02390400  1
  C  142  1  0.68309800  0.93531200  0.01001000  1
  C  149  1  0.59214200  0.95634800  0.02237800  1
  C  152  1  0.65829600  0.88836600  0.06245300  1
  C  155  1  0.85830800  0.87625000  0.96192900  1
  C  158  1  0.90981600  0.95422400  0.98125000  1
  C  161  1  0.27777700  0.58210800  0.00103100  1
  C  162  1  0.29075000  0.60133600  0.01323800  1
  C  163  1  0.34255500  0.60303200  0.02638100  1
  C  164  1  0.38119200  0.58474200  0.02754200  1
  C  165  1  0.36892500  0.56499200  0.01620000  1
  C  166  1  0.31700000  0.56382100  0.00284100  1
  C  169  1  0.22603900  0.58156600  0.98724200  1
  C  170  1  0.21714500  0.59732800  0.97029800  1
  C  171  1  0.16648400  0.59610800  0.95629800  1
  C  172  1  0.12481300  0.57897300  0.95957600  1
  C  173  1  0.13280500  0.56299300  0.97611800  1
  C  174  1  0.18308300  0.56471200  0.99000900  1
  C  181  1  0.09211700  0.54367800  0.97764800  1
  C  184  1  0.15825800  0.61165800  0.93756700  1
  C  187  1  0.35830700  0.62377200  0.03808200  1
  C  190  1  0.40980600  0.54579900  0.01876300  1
  C  193  1  0.52208200  0.75209300  0.16712800  1
  C  194  1  0.53856600  0.76329500  0.14766800  1
  C  195  1  0.59123600  0.77603100  0.14648200  1
  C  196  1  0.62746400  0.77759700  0.16541300  1
  C  197  1  0.61179200  0.76713000  0.18532300  1
  C  198  1  0.55868200  0.75438300  0.18606900  1
  C  201  1  0.46916800  0.73895000  0.16737100  1
  C  202  1  0.46151700  0.72099700  0.15270900  1
  C  203  1  0.40947400  0.70770000  0.15373500  1
  C  204  1  0.36514900  0.71278700  0.16946900  1
  C  205  1  0.37151200  0.73047200  0.18429900  1
  C  206  1  0.42354100  0.74355300  0.18280100  1
  C  213  1  0.32454200  0.73356400  0.20141400  1
  C  216  1  0.40171200  0.68820300  0.13913800  1
  C  219  1  0.60984600  0.78712700  0.12573000  1
  C  222  1  0.65049400  0.76976700  0.20510600  1
  C  225  1  0.02207300  0.74792300  0.83289600  1
  C  226  1  0.03855900  0.73671600  0.85235400  1
  C  227  1  0.09123100  0.72398200  0.85353700  1
  C  228  1  0.12745900  0.72242000  0.83460700  1
  C  229  1  0.11178700  0.73288900  0.81469900  1
  C  230  1  0.05867400  0.74563400  0.81395500  1
  C  233  1  0.96915400  0.76106100  0.83265600  1
  C  234  1  0.96149700  0.77901300  0.84732000  1
  C  235  1  0.90944800  0.79230600  0.84629600  1
  C  236  1  0.86512500  0.78721900  0.83056000  1
  C  237  1  0.87149600  0.76953700  0.81572700  1
  C  238  1  0.92353100  0.75645800  0.81722300  1
  C  245  1  0.82452700  0.76644600  0.79861200  1
  C  248  1  0.90167900  0.81180300  0.86089400  1
  C  251  1  0.10984000  0.71288000  0.87428900  1
  C  254  1  0.15048700  0.73025500  0.79491500  1
  C  257  1  0.72689200  0.58291900  0.50167600  1
  C  258  1  0.71035000  0.60236000  0.51289400  1
  C  259  1  0.65774600  0.60349600  0.52566900  1
  C  260  1  0.62164200  0.58453500  0.52725700  1
  C  261  1  0.63735600  0.56464500  0.51676200  1
  C  262  1  0.69040400  0.56394800  0.50397700  1
  C  265  1  0.77984400  0.58270700  0.48855400  1
  C  266  1  0.78752800  0.59737700  0.47061200  1
  C  267  1  0.83964900  0.59638300  0.45735300  1
  C  268  1  0.88401400  0.58067300  0.46246800  1
  C  269  1  0.87764200  0.56585000  0.48015800  1
  C  270  1  0.82553200  0.56731300  0.49319800  1
  C  277  1  0.92470200  0.54878300  0.48331300  1
  C  280  1  0.84747400  0.61100100  0.43787400  1
  C  283  1  0.63911800  0.62422000  0.53681300  1
  C  286  1  0.59881400  0.54482400  0.51943200  1
  C  289  1  0.22689200  0.91710300  0.49835000  1
  C  290  1  0.21034900  0.89766100  0.48713200  1
  C  291  1  0.15774700  0.89652600  0.47435500  1
  C  292  1  0.12164600  0.91548800  0.47276400  1
  C  293  1  0.13736200  0.93537800  0.48326000  1
  C  294  1  0.19040600  0.93607500  0.49604700  1
  C  297  1  0.27984200  0.91731600  0.51147200  1
  C  298  1  0.28752700  0.90264300  0.52941200  1
  C  299  1  0.33964600  0.90363600  0.54267200  1
  C  300  1  0.38401200  0.91934700  0.53755800  1
  C  301  1  0.37764000  0.93417100  0.51986700  1
  C  302  1  0.32552900  0.93270800  0.50682800  1
  C  309  1  0.42469900  0.95124000  0.51671300  1
  C  312  1  0.34747600  0.88901700  0.56214800  1
  C  315  1  0.13911800  0.87580300  0.46321100  1
  C  318  1  0.09882300  0.95519800  0.48058700  1
  C  321  1  0.97173900  0.74931800  0.33211300  1
  C  322  1  0.95866800  0.73706600  0.35130300  1
  C  323  1  0.90684900  0.72392300  0.35293400  1
  C  324  1  0.86830000  0.72280800  0.33461500  1
  C  325  1  0.88066400  0.73419900  0.31490000  1
  C  326  1  0.93259800  0.74755900  0.31379600  1
  C  329  1  0.02352200  0.76308500  0.33163800  1
  C  330  1  0.03241000  0.77998400  0.34744600  1
  C  331  1  0.08317400  0.79394100  0.34630900  1
  C  332  1  0.12494700  0.79066700  0.32920800  1
  C  333  1  0.11694900  0.77417300  0.31317800  1
  C  334  1  0.06657000  0.76032300  0.31481600  1
  C  341  1  0.15774700  0.77265400  0.29389700  1
  C  344  1  0.09138900  0.81263800  0.36190000  1
  C  347  1  0.89100300  0.71217400  0.37363700  1
  C  350  1  0.83989000  0.73166700  0.29566900  1
  C  353  1  0.47173700  0.75070600  0.66790400  1
  C  354  1  0.45866200  0.76296100  0.64871800  1
  C  355  1  0.40684500  0.77610500  0.64709000  1
  C  356  1  0.36830000  0.77721800  0.66540800  1
  C  357  1  0.38066900  0.76582300  0.68512300  1
  C  358  1  0.43260100  0.75246300  0.68622400  1
  C  361  1  0.52352000  0.73693900  0.66837700  1
  C  362  1  0.53240800  0.72004300  0.65256400  1
  C  363  1  0.58317000  0.70608400  0.65369900  1
  C  364  1  0.62494400  0.70935600  0.67080100  1
  C  365  1  0.61694500  0.72584400  0.68683400  1
  C  366  1  0.56657000  0.73969600  0.68520000  1
  C  373  1  0.65774200  0.72735900  0.70611700  1
  C  376  1  0.59138800  0.68739300  0.63810300  1
  C  379  1  0.39099300  0.78785700  0.62638800  1
  C  382  1  0.33990200  0.76835700  0.70435700  1
  C  385  1  0.27744300  0.41793800  0.49996600  1
  C  386  1  0.29001800  0.39863400  0.48782400  1
  C  387  1  0.34164800  0.39678400  0.47461000  1
  C  388  1  0.38054900  0.41499200  0.47333100  1
  C  389  1  0.36865400  0.43482500  0.48458500  1
  C  390  1  0.31687900  0.43615100  0.49800800  1
  C  393  1  0.22579300  0.41866200  0.51379100  1
  C  394  1  0.21665100  0.40298700  0.53080100  1
  C  395  1  0.16603300  0.40438200  0.54480600  1
  C  396  1  0.12464400  0.42159600  0.54146900  1
  C  397  1  0.13283900  0.43746700  0.52483700  1
  C  398  1  0.18307600  0.43558300  0.51094900  1
  C  405  1  0.09222700  0.45678300  0.52312100  1
  C  408  1  0.15735600  0.38884100  0.56351400  1
  C  411  1  0.35693900  0.37597300  0.46293900  1
  C  414  1  0.40966500  0.45395700  0.48182200  1
  C  417  1  0.77742200  0.08208100  0.50005300  1
  C  418  1  0.78999800  0.10138400  0.51219700  1
  C  419  1  0.84163000  0.10323400  0.52540900  1
  C  420  1  0.88053600  0.08502500  0.52668500  1
  C  421  1  0.86863800  0.06519400  0.51542900  1
  C  422  1  0.81685800  0.06386900  0.50200800  1
  C  425  1  0.72576900  0.08136000  0.48622700  1
  C  426  1  0.71662600  0.09703400  0.46922100  1
  C  427  1  0.66600400  0.09564000  0.45521600  1
  C  428  1  0.62461100  0.07842800  0.45855500  1
  C  429  1  0.63280600  0.06255700  0.47518700  1
  C  430  1  0.68304800  0.06443900  0.48907300  1
  C  437  1  0.59219100  0.04324200  0.47690500  1
  C  440  1  0.65732600  0.11118200  0.43650800  1
  C  443  1  0.85692000  0.12404400  0.53708100  1
  C  446  1  0.90964600  0.04606200  0.51819100  1
  C  449  1  0.02668300  0.25012200  0.66769300  1
  C  450  1  0.03936400  0.26222100  0.64837100  1
  C  451  1  0.09114100  0.27535600  0.64649700  1
  C  452  1  0.13008800  0.27658900  0.66469700  1
  C  453  1  0.11807500  0.26538400  0.68454500  1
  C  454  1  0.06615400  0.25204400  0.68589700  1
  C  457  1  0.97492800  0.23635400  0.66843800  1
  C  458  1  0.96576400  0.21929000  0.65282600  1
  C  459  1  0.91508500  0.20531800  0.65425600  1
  C  460  1  0.87367400  0.20874100  0.67144500  1
  C  461  1  0.88191200  0.22542000  0.68726600  1
  C  462  1  0.93220000  0.23927800  0.68534300  1
  C  469  1  0.84135000  0.22718900  0.70659400  1
  C  472  1  0.90643400  0.18653400  0.63880300  1
  C  475  1  0.10651600  0.28699900  0.62567900  1
  C  478  1  0.15912900  0.26811100  0.70366800  1
  C  481  1  0.52669600  0.24988800  0.33233000  1
  C  482  1  0.53938800  0.23778600  0.35165000  1
  C  483  1  0.59117000  0.22465100  0.35351600  1
  C  484  1  0.63010300  0.22342100  0.33531400  1
  C  485  1  0.61807800  0.23462900  0.31546800  1
  C  486  1  0.56615600  0.24797200  0.31412400  1
  C  489  1  0.47493200  0.26365500  0.33159400  1
  C  490  1  0.46576400  0.28071100  0.34721100  1
  C  491  1  0.41507400  0.29467900  0.34579100  1
  C  492  1  0.37365800  0.29125800  0.32860300  1
  C  493  1  0.38190100  0.27458700  0.31277600  1
  C  494  1  0.43219800  0.26073300  0.31469100  1
  C  501  1  0.34134000  0.27282600  0.29344600  1
  C  504  1  0.40642200  0.31345800  0.36125000  1
  C  507  1  0.60655800  0.21300300  0.37433100  1
  C  510  1  0.65911600  0.23190400  0.29634100  1
  C  513  1  0.04145100  0.01786200  0.99915900  1
  C  514  1  0.06298100  0.99934800  0.98777600  1
  C  515  1  0.03034100  0.97963100  0.98866900  1
  C  516  1  0.97650700  0.97893400  0.00077200  1
  C  525  1  0.54144400  0.48215900  0.00086000  1
  C  526  1  0.56296800  0.50067400  0.01224300  1
  C  527  1  0.53033200  0.52039200  0.01134400  1
  C  528  1  0.47649400  0.52108500  0.99924400  1
  C  537  1  0.29041100  0.25056200  0.76753500  1
  C  538  1  0.31192300  0.26194000  0.74901400  1
  C  539  1  0.27943100  0.26095000  0.72926900  1
  C  540  1  0.22574400  0.24876400  0.72854900  1
  C  549  1  0.79043100  0.24944900  0.23247900  1
  C  550  1  0.81193400  0.23807300  0.25100100  1
  C  551  1  0.77943400  0.23906600  0.27074500  1
  C  552  1  0.72573600  0.25124800  0.27145800  1
  C  561  1  0.95055800  0.48601700  0.99903200  1
  C  562  1  0.92390600  0.50684200  0.00132400  1
  C  563  1  0.96049200  0.52561800  0.00197300  1
  C  564  1  0.02312400  0.52321900  0.00025200  1
  C  573  1  0.45056900  0.01401300  0.00099600  1
  C  574  1  0.42392200  0.99318700  0.99869200  1
  C  575  1  0.46051200  0.97441300  0.99804100  1
  C  576  1  0.52314000  0.97681000  0.99978400  1
  C  585  1  0.69951100  0.24912900  0.76390200  1
  C  586  1  0.67295800  0.25118500  0.74303500  1
  C  587  1  0.70964000  0.25167000  0.72428300  1
  C  588  1  0.77226800  0.25002000  0.72674500  1
  C  597  1  0.19953500  0.25089300  0.23611700  1
  C  598  1  0.17298100  0.24880800  0.25698000  1
  C  599  1  0.20966100  0.24832000  0.27573400  1
  C  600  1  0.27228500  0.25000200  0.27327500  1
  C  609  1  0.70784500  0.74934800  0.23211900  1
  C  610  1  0.68644600  0.73803100  0.25069400  1
  C  611  1  0.71917800  0.73901700  0.27038500  1
  C  612  1  0.77298800  0.75113800  0.27100000  1
  C  621  1  0.20784600  0.75067600  0.76790500  1
  C  622  1  0.18645500  0.76199600  0.74933100  1
  C  623  1  0.21918400  0.76100700  0.72963900  1
  C  624  1  0.27299900  0.74888900  0.72902700  1
  C  633  1  0.29888400  0.75109000  0.23615700  1
  C  634  1  0.32563800  0.74883300  0.25696900  1
  C  635  1  0.28914700  0.74824500  0.27576900  1
  C  636  1  0.22651100  0.74999600  0.27340800  1
  C  645  1  0.79888100  0.74892500  0.76386400  1
  C  646  1  0.82563300  0.75119400  0.74305300  1
  C  647  1  0.78914400  0.75178100  0.72425200  1
  C  648  1  0.72651000  0.75001000  0.72661200  1
  C  657  1  0.54145800  0.51775000  0.49909600  1
  C  658  1  0.56282200  0.49917200  0.48777600  1
  C  659  1  0.53021900  0.47945400  0.48885100  1
  C  660  1  0.47657200  0.47881800  0.50106700  1
  C  669  1  0.04145600  0.98227200  0.50091900  1
  C  670  1  0.06281200  0.00085200  0.51224100  1
  C  671  1  0.03020800  0.02056900  0.51116100  1
  C  672  1  0.97655800  0.02120200  0.49894800  1
  C  681  1  0.45057800  0.98586400  0.49898800  1
  C  682  1  0.42396900  0.00671700  0.50109700  1
  C  683  1  0.46058800  0.02548800  0.50151400  1
  C  684  1  0.52320300  0.02305400  0.49974700  1
  C  693  1  0.95058400  0.51415600  0.50103400  1
  C  694  1  0.92398200  0.49330300  0.49891900  1
  C  695  1  0.96061000  0.47453400  0.49850300  1
  C  696  1  0.02321800  0.47697000  0.50028600  1
  C  705  1  0.35833000  0.14919000  0.92720700  1
  C  706  1  0.31166300  0.16315400  0.92045500  1
  C  707  1  0.31997200  0.17652800  0.90184900  1
  C  708  1  0.37524000  0.17591100  0.89065400  1
  C  717  1  0.85835000  0.35083300  0.07281300  1
  C  718  1  0.81170200  0.33685300  0.07954800  1
  C  719  1  0.81998700  0.32349400  0.09816500  1
  C  720  1  0.87523300  0.32412500  0.10937700  1
  C  729  1  0.60767900  0.32281300  0.89905500  1
  C  730  1  0.56139700  0.32943500  0.91325300  1
  C  731  1  0.56998600  0.34797100  0.92669900  1
  C  732  1  0.62515200  0.35922700  0.92591800  1
  C  741  1  0.10772600  0.17723000  0.10094500  1
  C  742  1  0.06143900  0.17060300  0.08675200  1
  C  743  1  0.07000500  0.15205000  0.07332700  1
  C  744  1  0.12517100  0.14079400  0.07411100  1
  C  753  1  0.64215500  0.85042200  0.07258800  1
  C  754  1  0.68815400  0.83616800  0.07936100  1
  C  755  1  0.67883800  0.82262000  0.09777500  1
  C  756  1  0.62323000  0.82332700  0.10873700  1
  C  765  1  0.14211700  0.64960400  0.92743900  1
  C  766  1  0.18810300  0.66386600  0.92067400  1
  C  767  1  0.17881300  0.67739400  0.90224200  1
  C  768  1  0.12321900  0.67667400  0.89127100  1
  C  777  1  0.38944900  0.67655400  0.10136000  1
  C  778  1  0.43591200  0.66974500  0.08733500  1
  C  779  1  0.42716500  0.65122500  0.07389000  1
  C  780  1  0.37166000  0.64017900  0.07447000  1
  C  789  1  0.88941700  0.82345000  0.89867200  1
  C  790  1  0.93587800  0.83025800  0.91269900  1
  C  791  1  0.92715000  0.84879300  0.92612500  1
  C  792  1  0.87165200  0.85984300  0.92553900  1
  C  801  1  0.85971800  0.64879800  0.42628000  1
  C  802  1  0.81326400  0.66282300  0.41946500  1
  C  803  1  0.82206900  0.67630000  0.40097100  1
  C  804  1  0.87762200  0.67574900  0.38995700  1
  C  813  1  0.35973300  0.85121900  0.57373800  1
  C  814  1  0.31328600  0.83718700  0.58054700  1
  C  815  1  0.32207500  0.82372600  0.59905300  1
  C  816  1  0.37761700  0.82428500  0.61007300  1
  C  825  1  0.10713900  0.82271500  0.39987500  1
  C  826  1  0.06094300  0.82962500  0.41397500  1
  C  827  1  0.07029600  0.84803000  0.42752900  1
  C  828  1  0.12612700  0.85884700  0.42698300  1
  C  837  1  0.60715600  0.67732400  0.60012800  1
  C  838  1  0.56097200  0.67041900  0.58601800  1
  C  839  1  0.57030800  0.65199700  0.57248500  1
  C  840  1  0.62612600  0.64117200  0.57304500  1
  C  849  1  0.13995800  0.35090200  0.57344300  1
  C  850  1  0.18554800  0.33634000  0.57992000  1
  C  851  1  0.17605700  0.32260600  0.59817800  1
  C  852  1  0.12063300  0.32340700  0.60926600  1
  C  861  1  0.63994800  0.14912200  0.42657900  1
  C  862  1  0.68553500  0.16368500  0.42010500  1
  C  863  1  0.67607200  0.17739700  0.40182900  1
  C  864  1  0.62065600  0.17658800  0.39073400  1
  C  873  1  0.88963400  0.17640400  0.60087700  1
  C  874  1  0.93548400  0.16979700  0.58648600  1
  C  875  1  0.92612000  0.15148900  0.57280900  1
  C  876  1  0.87057000  0.14047800  0.57349100  1
  C  885  1  0.38963500  0.32358600  0.39917600  1
  C  886  1  0.43548600  0.33020300  0.41356200  1
  C  887  1  0.42613000  0.34853100  0.42721500  1
  C  888  1  0.37057000  0.35953600  0.42652800  1
  H  7  1  0.23707100  0.11588900  0.01297500  1
  H  8  1  0.08242000  0.08507100  0.03681900  1
  H  15  1  0.42095400  0.07996000  0.95346700  1
  H  16  1  0.32037300  0.05674000  0.00682000  1
  H  19  1  0.22234300  0.03504500  0.00370400  1
  H  20  1  0.25177000  0.12588100  0.97243800  1
  H  22  1  0.46763500  0.05705100  0.98611900  1
  H  23  1  0.42684800  0.03968300  0.96821800  1
  H  25  1  0.30825400  0.10898500  0.92801800  1
  H  26  1  0.38657300  0.10684600  0.92939700  1
  H  28  1  0.16916900  0.13741700  0.03368700  1
  H  29  1  0.09438700  0.12856900  0.03171700  1
  H  31  1  0.06211800  0.04768600  0.03148700  1
  H  32  1  0.12595700  0.03148900  0.02666800  1
  H  39  1  0.73707900  0.38413600  0.98705000  1
  H  40  1  0.58242200  0.41495000  0.96320600  1
  H  47  1  0.92093000  0.42007400  0.04657000  1
  H  48  1  0.82036600  0.44328900  0.99321100  1
  H  51  1  0.72233200  0.46498000  0.99632000  1
  H  52  1  0.75178600  0.37414000  0.02758500  1
  H  54  1  0.96762400  0.44298500  0.01392800  1
  H  55  1  0.92680400  0.46035500  0.03181800  1
  H  57  1  0.80823200  0.39103200  0.07200700  1
  H  58  1  0.88655000  0.39318200  0.07063700  1
  H  60  1  0.66918800  0.36260700  0.96633400  1
  H  61  1  0.59440300  0.37144900  0.96831500  1
  H  63  1  0.56211600  0.45233400  0.96853600  1
  H  64  1  0.62595200  0.46853200  0.97335400  1
  H  71  1  0.48595200  0.23722000  0.86566100  1
  H  72  1  0.33172400  0.21301800  0.83483400  1
  H  79  1  0.66931200  0.29690300  0.82968700  1
  H  80  1  0.56906800  0.24346200  0.80648300  1
  H  83  1  0.47107600  0.24641500  0.78479900  1
  H  84  1  0.50057800  0.27772800  0.87570400  1
  H  86  1  0.71624200  0.26438100  0.80679500  1
  H  87  1  0.67511400  0.28208200  0.78932700  1
  H  89  1  0.55654000  0.32214100  0.85898900  1
  H  90  1  0.63482200  0.32091100  0.85661500  1
  H  92  1  0.41825000  0.21645400  0.88720800  1
  H  93  1  0.34347200  0.21815500  0.87830300  1
  H  95  1  0.31131500  0.21832300  0.79744800  1
  H  96  1  0.37514600  0.22321200  0.78126700  1
  H  103  1  0.98597600  0.26281800  0.13435300  1
  H  104  1  0.83173500  0.28699900  0.16518600  1
  H  111  1  0.16939000  0.20315000  0.17030900  1
  H  112  1  0.06910200  0.25657300  0.19352900  1
  H  115  1  0.97111400  0.25360700  0.21521300  1
  H  116  1  0.00062100  0.22231100  0.12430300  1
  H  118  1  0.21628800  0.23568000  0.19321000  1
  H  119  1  0.17519900  0.21795500  0.21066600  1
  H  121  1  0.05663100  0.17790000  0.14101600  1
  H  122  1  0.13491300  0.17914000  0.14337900  1
  H  124  1  0.91826400  0.28358400  0.11281000  1
  H  125  1  0.84348800  0.28187100  0.12171300  1
  H  127  1  0.81134000  0.28169000  0.20257300  1
  H  128  1  0.87517200  0.27680100  0.21875100  1
  H  135  1  0.76220400  0.88556300  0.98760000  1
  H  136  1  0.91938000  0.91409700  0.96328300  1
  H  143  1  0.58900000  0.92238900  0.05081300  1
  H  144  1  0.68895600  0.94686000  0.99795200  1
  H  147  1  0.79018500  0.96569300  0.99971500  1
  H  148  1  0.74753400  0.87371000  0.02707900  1
  H  150  1  0.55738800  0.95545800  0.03504700  1
  H  151  1  0.61902300  0.97096100  0.02586700  1
  H  153  1  0.69764300  0.88962500  0.07305500  1
  H  154  1  0.61960600  0.89307400  0.07243900  1
  H  156  1  0.82623000  0.86328600  0.96597900  1
  H  157  1  0.90206800  0.87081700  0.96784200  1
  H  159  1  0.94361300  0.95095900  0.96864600  1
  H  160  1  0.88334200  0.96817600  0.97542700  1
  H  167  1  0.26219900  0.61446000  0.01241300  1
  H  168  1  0.41937800  0.58592600  0.03672700  1
  H  175  1  0.08896700  0.57763400  0.94921100  1
  H  176  1  0.18894500  0.55316400  0.00206700  1
  H  179  1  0.29017300  0.53432900  0.00030000  1
  H  180  1  0.24751600  0.62631200  0.97293500  1
  H  182  1  0.05735900  0.54456600  0.96498200  1
  H  183  1  0.11899500  0.52906400  0.97416000  1
  H  185  1  0.19760100  0.61040100  0.92696400  1
  H  186  1  0.11956700  0.60695000  0.92758400  1
  H  188  1  0.32622700  0.63673500  0.03403200  1
  H  189  1  0.40206400  0.62920700  0.03216600  1
  H  191  1  0.44360200  0.54906400  0.03136600  1
  H  192  1  0.38332800  0.53184800  0.02458800  1
  H  199  1  0.51175900  0.76214900  0.13407500  1
  H  200  1  0.66627700  0.78645800  0.16461700  1
  H  207  1  0.32783900  0.70309200  0.17053900  1
  H  208  1  0.42888100  0.75651500  0.19331900  1
  H  211  1  0.52693400  0.75356600  0.21498600  1
  H  212  1  0.49700800  0.72154100  0.12442000  1
  H  214  1  0.28149500  0.73599600  0.19319700  1
  H  215  1  0.32208000  0.71814900  0.21068500  1
  H  217  1  0.44017400  0.67735000  0.14148700  1
  H  218  1  0.36189200  0.67880700  0.14377800  1
  H  220  1  0.57942200  0.78277900  0.11233000  1
  H  221  1  0.65423400  0.78108900  0.12120100  1
  H  223  1  0.68681500  0.78144400  0.20203800  1
  H  224  1  0.62308000  0.77667000  0.21830500  1
  H  231  1  0.01174800  0.73785800  0.86594600  1
  H  232  1  0.16627000  0.71355800  0.83540100  1
  H  239  1  0.82781200  0.79691400  0.82949100  1
  H  240  1  0.92887600  0.74349900  0.80670300  1
  H  243  1  0.02692700  0.74645600  0.78503800  1
  H  244  1  0.99698700  0.77846500  0.87560900  1
  H  246  1  0.78148200  0.76400900  0.80682700  1
  H  247  1  0.82205600  0.78186300  0.78934300  1
  H  249  1  0.94013800  0.82265800  0.85854500  1
  H  250  1  0.86185800  0.82119600  0.85625500  1
  H  252  1  0.07941200  0.71722500  0.88768900  1
  H  253  1  0.15422800  0.71891700  0.87881800  1
  H  255  1  0.18680700  0.71857700  0.79798000  1
  H  256  1  0.12307200  0.72335400  0.78171400  1
  H  263  1  0.73709700  0.61597000  0.51175000  1
  H  264  1  0.58289600  0.58529400  0.53616400  1
  H  271  1  0.92138800  0.57962800  0.45280300  1
  H  272  1  0.82017900  0.55679800  0.50616200  1
  H  275  1  0.72231000  0.53505200  0.50313500  1
  H  276  1  0.75194000  0.62565000  0.47114900  1
  H  278  1  0.96771000  0.55703700  0.48570800  1
  H  279  1  0.92720200  0.53944500  0.46793900  1
  H  281  1  0.80907000  0.60865300  0.42699300  1
  H  282  1  0.88734800  0.60638100  0.42850100  1
  H  284  1  0.66932700  0.63766200  0.53239400  1
  H  285  1  0.59457700  0.62868900  0.53088500  1
  H  287  1  0.56255000  0.54786200  0.53114100  1
  H  288  1  0.62636300  0.53165400  0.52631800  1
  H  295  1  0.23709400  0.88405200  0.48827600  1
  H  296  1  0.08290200  0.91473000  0.46385700  1
  H  303  1  0.42138700  0.92039100  0.54722200  1
  H  304  1  0.32017600  0.94322200  0.49386500  1
  H  307  1  0.22231200  0.96497000  0.49688800  1
  H  308  1  0.25194100  0.87436900  0.52887300  1
  H  310  1  0.46771100  0.94298600  0.51432100  1
  H  311  1  0.42719200  0.96057900  0.53208700  1
  H  313  1  0.30907100  0.89136100  0.57302900  1
  H  314  1  0.38734900  0.89363600  0.57152300  1
  H  316  1  0.16932700  0.86236000  0.46763100  1
  H  317  1  0.09457500  0.87133300  0.46913900  1
  H  319  1  0.06256100  0.95216200  0.46887600  1
  H  320  1  0.12637500  0.96837000  0.47370200  1
  H  327  1  0.98716500  0.73785200  0.36444500  1
  H  328  1  0.83011300  0.71362000  0.33575100  1
  H  335  1  0.16086400  0.80100500  0.32792400  1
  H  336  1  0.06071600  0.74829600  0.30323400  1
  H  339  1  0.95960000  0.75016300  0.28433200  1
  H  340  1  0.00179900  0.77729000  0.37639100  1
  H  342  1  0.19259200  0.78528600  0.29484200  1
  H  343  1  0.13098100  0.77620000  0.27926700  1
  H  345  1  0.05217600  0.82329900  0.36058000  1
  H  346  1  0.13025200  0.82257200  0.35727700  1
  H  348  1  0.92300800  0.71620000  0.38663100  1
  H  349  1  0.84721000  0.71806900  0.37905300  1
  H  351  1  0.80614300  0.71903500  0.29888400  1
  H  352  1  0.86646100  0.72588600  0.28172300  1
  H  359  1  0.48715800  0.76217700  0.63557400  1
  H  360  1  0.33011500  0.78640700  0.66427400  1
  H  367  1  0.66086100  0.69901500  0.67208300  1
  H  368  1  0.56071600  0.75172200  0.69678300  1
  H  371  1  0.45960400  0.74985600  0.71568700  1
  H  372  1  0.50180000  0.72274100  0.62362000  1
  H  374  1  0.69258400  0.71472700  0.70517000  1
  H  375  1  0.63097400  0.72380900  0.72074500  1
  H  377  1  0.55217200  0.67673200  0.63941900  1
  H  378  1  0.63024600  0.67745500  0.64272500  1
  H  380  1  0.42299600  0.78383300  0.61339300  1
  H  381  1  0.34719900  0.78196200  0.62097300  1
  H  383  1  0.30615400  0.78099000  0.70114300  1
  H  384  1  0.36647600  0.77413700  0.71830000  1
  H  391  1  0.26127500  0.38557200  0.48873800  1
  H  392  1  0.41862100  0.41370300  0.46409700  1
  H  399  1  0.08876500  0.42303100  0.55180600  1
  H  400  1  0.18903800  0.44704300  0.49881300  1
  H  403  1  0.29045900  0.46570500  0.50041600  1
  H  404  1  0.24641200  0.37390700  0.52827400  1
  H  406  1  0.05747600  0.45604100  0.53580200  1
  H  407  1  0.11914400  0.47142500  0.52644500  1
  H  409  1  0.19684000  0.38983800  0.57407500  1
  H  410  1  0.11894700  0.39372300  0.57356300  1
  H  412  1  0.32462800  0.36310000  0.46701800  1
  H  413  1  0.40060400  0.37044500  0.46885600  1
  H  415  1  0.44332100  0.45055900  0.46920400  1
  H  416  1  0.38322600  0.46788400  0.47591500  1
  H  423  1  0.76125200  0.11444600  0.51128600  1
  H  424  1  0.91860600  0.08631500  0.53591700  1
  H  431  1  0.58873000  0.07699400  0.44822100  1
  H  432  1  0.68901400  0.05297900  0.50120900  1
  H  435  1  0.79043500  0.03431500  0.49959900  1
  H  436  1  0.74639600  0.12611300  0.47174800  1
  H  438  1  0.55743300  0.04398600  0.46422800  1
  H  439  1  0.61910600  0.02859900  0.47357700  1
  H  441  1  0.69680700  0.11018200  0.42594600  1
  H  442  1  0.61891200  0.10630200  0.42646200  1
  H  444  1  0.82459600  0.13691500  0.53301100  1
  H  445  1  0.90057500  0.12957700  0.53115800  1
  H  447  1  0.94330200  0.04945900  0.53080900  1
  H  448  1  0.88320600  0.03213500  0.52409700  1
  H  455  1  0.01060300  0.26132900  0.63531300  1
  H  456  1  0.16827100  0.28575700  0.66339000  1
  H  463  1  0.83777600  0.19841800  0.67291800  1
  H  464  1  0.93822200  0.25144000  0.69677000  1
  H  467  1  0.03966900  0.24971100  0.71544800  1
  H  468  1  0.99570400  0.22173800  0.62376600  1
  H  470  1  0.80660800  0.21450300  0.70589400  1
  H  471  1  0.86830400  0.22389600  0.72123500  1
  H  473  1  0.94580000  0.17592900  0.63993900  1
  H  474  1  0.86784800  0.17656500  0.64366100  1
  H  476  1  0.07405500  0.28300900  0.61282900  1
  H  477  1  0.15004400  0.28098200  0.62011300  1
  H  479  1  0.19289100  0.28069100  0.70026200  1
  H  480  1  0.13275600  0.27405300  0.71759900  1
  H  487  1  0.51063700  0.23867300  0.36471100  1
  H  488  1  0.66828800  0.21425100  0.33661400  1
  H  495  1  0.33775600  0.30158000  0.32713700  1
  H  496  1  0.43822200  0.24857700  0.30325700  1
  H  499  1  0.53965700  0.25030900  0.28457400  1
  H  500  1  0.49572000  0.27825800  0.37626900  1
  H  502  1  0.30658700  0.28550800  0.29415500  1
  H  503  1  0.36829200  0.27613200  0.27880700  1
  H  505  1  0.44577900  0.32406900  0.36010800  1
  H  506  1  0.36782500  0.32342300  0.35639700  1
  H  508  1  0.57411000  0.21699300  0.38718500  1
  H  509  1  0.65009200  0.21901700  0.37989300  1
  H  511  1  0.69287900  0.21932400  0.29974200  1
  H  512  1  0.63273300  0.22596600  0.28241200  1
  H  518  1  0.04549100  0.96603000  0.98052000  1
  H  519  1  0.10189800  0.00014100  0.97899600  1
  H  522  1  0.96512100  0.94717100  0.00778800  1
  H  524  1  0.04508100  0.04981400  0.99247000  1
  H  530  1  0.54548000  0.53399400  0.01949200  1
  H  531  1  0.60189200  0.49988400  0.02101900  1
  H  534  1  0.46511000  0.55284800  0.99222300  1
  H  536  1  0.54507700  0.45020700  0.00755200  1
  H  542  1  0.29458500  0.26909000  0.71566200  1
  H  543  1  0.35074100  0.27078100  0.74982100  1
  H  546  1  0.21462500  0.24158500  0.69680800  1
  H  548  1  0.29377600  0.25731100  0.79948000  1
  H  554  1  0.79458200  0.23092900  0.28435400  1
  H  555  1  0.85076000  0.22923900  0.25020100  1
  H  558  1  0.71460600  0.25843400  0.30319800  1
  H  560  1  0.79382000  0.24270100  0.20053400  1
  H  566  1  0.94148600  0.54084600  0.00327200  1
  H  567  1  0.87847800  0.50839100  0.00233600  1
  H  570  1  0.04159900  0.55562600  0.00331000  1
  H  572  1  0.92215400  0.45935700  0.98330000  1
  H  578  1  0.44150200  0.95918300  0.99674900  1
  H  579  1  0.37849400  0.99163800  0.99768400  1
  H  582  1  0.54161400  0.94440400  0.99671600  1
  H  584  1  0.42214900  0.04066700  0.01673600  1
  H  590  1  0.69070600  0.25278200  0.70902700  1
  H  591  1  0.62752900  0.25212700  0.74144400  1
  H  594  1  0.79087800  0.25271300  0.69432000  1
  H  596  1  0.67109900  0.23355900  0.79064700  1
  H  602  1  0.19072300  0.24720700  0.29099000  1
  H  603  1  0.12755300  0.24786600  0.25857200  1
  H  606  1  0.29088800  0.24728800  0.30569800  1
  H  608  1  0.17110100  0.26647900  0.20938300  1
  H  614  1  0.70414000  0.73090300  0.28402300  1
  H  615  1  0.64758000  0.72921500  0.24995700  1
  H  618  1  0.78459200  0.75820400  0.30274100  1
  H  620  1  0.70424300  0.74244300  0.20021200  1
  H  626  1  0.20415100  0.76912600  0.71600200  1
  H  627  1  0.14758600  0.77081100  0.75006600  1
  H  630  1  0.28459700  0.74182200  0.69728600  1
  H  632  1  0.20423500  0.75757900  0.79981300  1
  H  638  1  0.30822300  0.74695800  0.29098700  1
  H  639  1  0.37106700  0.74778100  0.25848500  1
  H  642  1  0.20815000  0.74695400  0.30582500  1
  H  644  1  0.32722800  0.76665400  0.20938500  1
  H  650  1  0.80822000  0.75306200  0.70903400  1
  H  651  1  0.87106400  0.75224300  0.74153800  1
  H  654  1  0.70814900  0.75306000  0.69419500  1
  H  656  1  0.82723500  0.73335900  0.79063000  1
  H  662  1  0.54525600  0.46581100  0.48074500  1
  H  663  1  0.60158800  0.49992100  0.47890200  1
  H  666  1  0.46529300  0.44709800  0.50831500  1
  H  668  1  0.54486700  0.54965200  0.49215100  1
  H  674  1  0.04523600  0.03421300  0.51926900  1
  H  675  1  0.10158200  0.00010600  0.52111300  1
  H  678  1  0.96527300  0.05292200  0.49169800  1
  H  680  1  0.04486900  0.95037200  0.50786700  1
  H  686  1  0.44162100  0.04073300  0.50268500  1
  H  687  1  0.37855200  0.00828400  0.50215100  1
  H  690  1  0.54173000  0.05548400  0.50244700  1
  H  692  1  0.42199600  0.95904000  0.48358600  1
  H  698  1  0.94164200  0.45928800  0.49734200  1
  H  699  1  0.87856700  0.49173300  0.49787300  1
  H  702  1  0.04175300  0.44454000  0.49758400  1
  H  704  1  0.92198900  0.54097500  0.51643800  1
  H  710  1  0.28596700  0.18634000  0.89641100  1
  H  711  1  0.27169200  0.16323100  0.92860800  1
  H  714  1  0.35666500  0.18311300  0.85967600  1
  H  716  1  0.38565200  0.13730100  0.95591500  1
  H  722  1  0.78597100  0.31368800  0.10360800  1
  H  723  1  0.77171200  0.33679500  0.07141100  1
  H  726  1  0.85663200  0.31691000  0.14034900  1
  H  728  1  0.88568600  0.36273500  0.04411100  1
  H  734  1  0.53623800  0.35332500  0.93667800  1
  H  735  1  0.52149200  0.32124300  0.91344700  1
  H  738  1  0.60657100  0.39015900  0.93327000  1
  H  740  1  0.63481800  0.29418900  0.88692400  1
  H  746  1  0.03622700  0.14667500  0.06337300  1
  H  747  1  0.02149000  0.17876700  0.08658900  1
  H  750  1  0.10660500  0.10985900  0.06676100  1
  H  752  1  0.13485200  0.20585900  0.11306700  1
  H  758  1  0.71247000  0.81268400  0.10330700  1
  H  759  1  0.72850400  0.83611500  0.07146600  1
  H  762  1  0.64079200  0.81622200  0.13979200  1
  H  764  1  0.61585000  0.86387100  0.04440000  1
  H  770  1  0.21246800  0.68730900  0.89669400  1
  H  771  1  0.22848900  0.66388600  0.92854200  1
  H  774  1  0.14078600  0.68378900  0.86021800  1
  H  776  1  0.11581400  0.63614800  0.95562400  1
  H  782  1  0.46101700  0.64575500  0.06402000  1
  H  783  1  0.47601400  0.67780900  0.08724700  1
  H  786  1  0.38984700  0.60927600  0.06692600  1
  H  788  1  0.36259300  0.70530300  0.11328500  1
  H  794  1  0.96102000  0.85427900  0.93597800  1
  H  795  1  0.97601400  0.82221700  0.91276300  1
  H  798  1  0.88983200  0.89074800  0.93308300  1
  H  800  1  0.86256900  0.79470100  0.88674700  1
  H  806  1  0.78822800  0.68617100  0.39549900  1
  H  807  1  0.77312600  0.66289200  0.42750600  1
  H  810  1  0.85956600  0.68335700  0.35905700  1
  H  812  1  0.88646800  0.63684300  0.45502900  1
  H  818  1  0.28821500  0.81386700  0.60453700  1
  H  819  1  0.27311700  0.83714100  0.57252600  1
  H  822  1  0.35956300  0.81667200  0.64097100  1
  H  824  1  0.38647700  0.86317700  0.54499000  1
  H  830  1  0.03654300  0.85366200  0.43735300  1
  H  831  1  0.02043900  0.82183700  0.41390600  1
  H  834  1  0.10894500  0.88994600  0.43404400  1
  H  836  1  0.13326400  0.79448500  0.38645500  1
  H  842  1  0.53653100  0.64634700  0.56268200  1
  H  843  1  0.52042800  0.67817700  0.58611800  1
  H  846  1  0.60894400  0.61007500  0.56598000  1
  H  848  1  0.63327000  0.70555000  0.61355400  1
  H  854  1  0.20944300  0.31244300  0.60349400  1
  H  855  1  0.22574000  0.33618000  0.57191800  1
  H  858  1  0.13857800  0.31577700  0.64013100  1
  H  860  1  0.11361500  0.36468500  0.54542700  1
  H  866  1  0.70949000  0.18753700  0.39649300  1
  H  867  1  0.72576900  0.16381100  0.42807800  1
  H  870  1  0.63859800  0.18422500  0.35986900  1
  H  872  1  0.61360500  0.13534100  0.45459800  1
  H  878  1  0.95966400  0.14609000  0.56276100  1
  H  879  1  0.97574800  0.17775200  0.58640200  1
  H  882  1  0.88838000  0.10957400  0.56594200  1
  H  884  1  0.86319900  0.20451900  0.61444600  1
  H  890  1  0.45970600  0.35396000  0.43723300  1
  H  891  1  0.47580400  0.32228700  0.41360800  1
  H  894  1  0.38834500  0.39044500  0.43407200  1
  H  896  1  0.36323600  0.29546500  0.38561000  1
  N  517  1  0.95891000  0.99749700  0.01135100  1
  N  520  1  0.98944800  0.01584900  0.01060000  1
  N  521  1  0.93978800  0.96011500  0.00223300  1
  N  523  1  0.07324100  0.03784600  0.99835800  1
  N  529  1  0.45889800  0.50252100  0.98866700  1
  N  532  1  0.48943800  0.48416900  0.98941900  1
  N  533  1  0.43977500  0.53990400  0.99778000  1
  N  535  1  0.57323400  0.46217700  0.00166300  1
  N  541  1  0.20814600  0.23820000  0.74712200  1
  N  544  1  0.23855200  0.23903800  0.76550000  1
  N  545  1  0.18917200  0.24718600  0.70970100  1
  N  547  1  0.32207200  0.25144800  0.78754300  1
  N  553  1  0.70814600  0.26181000  0.25288200  1
  N  556  1  0.73856700  0.26097200  0.23450800  1
  N  557  1  0.68915700  0.25283100  0.29030500  1
  N  559  1  0.82210500  0.24856500  0.21247400  1
  N  565  1  0.04510100  0.50244800  0.99828900  1
  N  568  1  0.01115900  0.48493200  0.99769900  1
  N  569  1  0.06346000  0.54123900  0.99958300  1
  N  571  1  0.91456800  0.46701600  0.99808600  1
  N  577  1  0.54511300  0.99758100  0.00174900  1
  N  580  1  0.51116900  0.01509700  0.00233800  1
  N  581  1  0.56347500  0.95879000  0.00044500  1
  N  583  1  0.41457700  0.03301100  0.00194600  1
  N  589  1  0.79414900  0.24829200  0.74754900  1
  N  592  1  0.76011500  0.24785500  0.76504600  1
  N  593  1  0.81268500  0.24915200  0.70876100  1
  N  595  1  0.66341700  0.24828100  0.78287600  1
  N  601  1  0.29416500  0.25174400  0.25247300  1
  N  604  1  0.26013600  0.25218300  0.23497600  1
  N  605  1  0.31269500  0.25086200  0.29126100  1
  N  607  1  0.16344200  0.25174900  0.21714300  1
  N  613  1  0.79044400  0.76165900  0.25238400  1
  N  616  1  0.75981400  0.76082400  0.23405400  1
  N  617  1  0.80985200  0.75264100  0.28978000  1
  N  619  1  0.67604800  0.74838300  0.21214400  1
  N  625  1  0.29044600  0.73836500  0.74764300  1
  N  628  1  0.25981300  0.73920000  0.76597100  1
  N  629  1  0.30986100  0.74738300  0.71024700  1
  N  631  1  0.17604400  0.75164000  0.78788000  1
  N  637  1  0.20443300  0.75193100  0.25265000  1
  N  640  1  0.23828300  0.75246000  0.23510900  1
  N  641  1  0.18625800  0.75069600  0.29144700  1
  N  643  1  0.33475900  0.75190400  0.21712500  1
  N  649  1  0.70443100  0.74807500  0.74737000  1
  N  652  1  0.73828100  0.74754900  0.76491100  1
  N  653  1  0.68625600  0.74931500  0.70857200  1
  N  655  1  0.83475600  0.74811000  0.78289600  1
  N  661  1  0.45912800  0.49744200  0.51157700  1
  N  664  1  0.48963400  0.51579400  0.51065600  1
  N  665  1  0.43988500  0.46000300  0.50271300  1
  N  667  1  0.57316000  0.53774500  0.49807500  1
  N  673  1  0.95912400  0.00257800  0.48843700  1
  N  676  1  0.98963200  0.98422500  0.48935900  1
  N  677  1  0.93986800  0.04001600  0.49730100  1
  N  679  1  0.07316100  0.96227900  0.50194200  1
  N  685  1  0.54513600  0.00226100  0.49797300  1
  N  688  1  0.51116400  0.98474800  0.49759700  1
  N  689  1  0.56356000  0.04105200  0.49886900  1
  N  691  1  0.41456400  0.96686700  0.49829600  1
  N  697  1  0.04514600  0.49776500  0.50205700  1
  N  700  1  0.01117000  0.51527400  0.50242800  1
  N  701  1  0.06358000  0.45897400  0.50115800  1
  N  703  1  0.91456200  0.53315200  0.50172600  1
  N  709  1  0.41806800  0.16207100  0.89828700  1
  N  712  1  0.41017500  0.14949300  0.91550100  1
  N  713  1  0.38740300  0.18783300  0.87127500  1
  N  715  1  0.35062600  0.13492100  0.94525900  1
  N  721  1  0.91806800  0.33796100  0.10174200  1
  N  724  1  0.91018300  0.35053500  0.08452500  1
  N  725  1  0.88738400  0.31219700  0.12875100  1
  N  727  1  0.85064800  0.36510500  0.05476400  1
  N  733  1  0.66760400  0.35171400  0.91185800  1
  N  736  1  0.65944900  0.33456600  0.89921600  1
  N  737  1  0.63749900  0.37857600  0.93785700  1
  N  739  1  0.59968500  0.30483500  0.88471500  1
  N  745  1  0.16765700  0.14832900  0.08814500  1
  N  748  1  0.15951000  0.16548700  0.10077600  1
  N  749  1  0.13751900  0.12144600  0.06216900  1
  N  751  1  0.09973100  0.19520900  0.11528400  1
  N  757  1  0.58108200  0.83743300  0.10108100  1
  N  760  1  0.58994300  0.85020000  0.08407100  1
  N  761  1  0.61038500  0.81146400  0.12809100  1
  N  763  1  0.65129400  0.86521800  0.05504700  1
  N  769  1  0.08104400  0.66258600  0.89894100  1
  N  772  1  0.08990000  0.64982600  0.91595600  1
  N  773  1  0.11037900  0.68854500  0.87192000  1
  N  775  1  0.15125600  0.63480500  0.94497600  1
  N  781  1  0.32908200  0.64784500  0.08839700  1
  N  784  1  0.33739000  0.66497600  0.10105500  1
  N  785  1  0.35909500  0.62093500  0.06237700  1
  N  787  1  0.39753000  0.69459500  0.11561000  1
  N  793  1  0.82904900  0.85216300  0.91162900  1
  N  796  1  0.83735400  0.83502500  0.89897900  1
  N  797  1  0.85908800  0.87908700  0.93763300  1
  N  799  1  0.89750200  0.80541100  0.88442200  1
  N  805  1  0.92019300  0.66182000  0.39762600  1
  N  808  1  0.91182700  0.64913200  0.41473300  1
  N  809  1  0.89025700  0.68788300  0.37074400  1
  N  811  1  0.85158500  0.63452200  0.44429600  1
  N  817  1  0.42020300  0.83820100  0.60239300  1
  N  820  1  0.41184300  0.85088400  0.58528300  1
  N  821  1  0.39025300  0.81214600  0.62928300  1
  N  823  1  0.35159200  0.86549500  0.55572300  1
  N  829  1  0.16845500  0.85106700  0.41301800  1
  N  832  1  0.15955900  0.83406500  0.40024100  1
  N  833  1  0.13906900  0.87817500  0.43887500  1
  N  835  1  0.09798300  0.80519700  0.38505300  1
  N  841  1  0.66847400  0.64896900  0.58699300  1
  N  844  1  0.65958000  0.66597600  0.59976100  1
  N  845  1  0.63906500  0.62184600  0.56114800  1
  N  847  1  0.59798800  0.69483800  0.61495300  1
  N  853  1  0.07889000  0.33783400  0.60190600  1
  N  856  1  0.08793900  0.35079000  0.58504900  1
  N  857  1  0.10775300  0.31129900  0.62847400  1
  N  859  1  0.14929900  0.36578100  0.55599500  1
  N  865  1  0.57888000  0.16218500  0.39811200  1
  N  868  1  0.58791800  0.14923800  0.41497800  1
  N  869  1  0.60778200  0.18870400  0.37153000  1
  N  871  1  0.64928700  0.13424200  0.44402900  1
  N  877  1  0.82858400  0.14795700  0.58776200  1
  N  880  1  0.83751000  0.16486200  0.60066700  1
  N  881  1  0.85773000  0.12126300  0.56138500  1
  N  883  1  0.89879800  0.19392900  0.61568400  1
  N  889  1  0.32855100  0.35202600  0.41228800  1
  N  892  1  0.33748700  0.33511200  0.39939500  1
  N  893  1  0.35771700  0.37874800  0.43863500  1
  N  895  1  0.39882000  0.30606200  0.38436900  1
  O  17  1  0.20441000  0.04539100  0.99317700  1
  O  18  1  0.24194700  0.11148700  0.96604000  1
  O  49  1  0.70440400  0.45463400  0.00684700  1
  O  50  1  0.74194600  0.38853500  0.03398200  1
  O  81  1  0.45304900  0.25691500  0.79515000  1
  O  82  1  0.49054600  0.28409700  0.86131500  1
  O  113  1  0.95309400  0.24310700  0.20486100  1
  O  114  1  0.99060200  0.21593900  0.13869100  1
  O  145  1  0.80707700  0.95452000  0.00961000  1
  O  146  1  0.76054200  0.88751100  0.03399300  1
  O  177  1  0.30706100  0.54550300  0.99040300  1
  O  178  1  0.26052000  0.61251000  0.96602000  1
  O  209  1  0.54488500  0.74296900  0.20471600  1
  O  210  1  0.50687000  0.71524600  0.13885600  1
  O  241  1  0.04487700  0.75705100  0.79530900  1
  O  242  1  0.00684500  0.78476300  0.86117300  1
  O  273  1  0.70427000  0.54531500  0.49255000  1
  O  274  1  0.74216000  0.61121300  0.46484000  1
  O  305  1  0.20427200  0.95470700  0.50747200  1
  O  306  1  0.24215800  0.88880600  0.53518200  1
  O  337  1  0.94264400  0.76003500  0.29551300  1
  O  338  1  0.98895400  0.78426200  0.36259800  1
  O  369  1  0.44264900  0.73998600  0.70450500  1
  O  370  1  0.48895200  0.71576900  0.63741200  1
  O  401  1  0.30728000  0.45455500  0.51035400  1
  O  402  1  0.25974200  0.38770500  0.53511200  1
  O  433  1  0.80725600  0.04546500  0.48966200  1
  O  434  1  0.75972000  0.11231500  0.46490900  1
  O  465  1  0.05643800  0.23973700  0.70432000  1
  O  466  1  0.00888700  0.21489400  0.63758000  1
  O  497  1  0.55642600  0.26028000  0.29570300  1
  O  498  1  0.50889000  0.28510500  0.36245500  1
