# generated using pymatgen
data_H15(C4N)4
_symmetry_space_group_name_H-M   'P 1'
_cell_length_a   53.74050000
_cell_length_b   53.74050000
_cell_length_c   53.74050000
_cell_angle_alpha   90.00000000
_cell_angle_beta   90.00000000
_cell_angle_gamma   90.00000000
_symmetry_Int_Tables_number   1
_chemical_formula_structural   H15(C4N)4
_chemical_formula_sum   'H720 C768 N192'
_cell_volume   155204.78564571
_cell_formula_units_Z   48
loop_
 _symmetry_equiv_pos_site_id
 _symmetry_equiv_pos_as_xyz
  1  'x, y, z'
loop_
 _atom_site_type_symbol
 _atom_site_label
 _atom_site_symmetry_multiplicity
 _atom_site_fract_x
 _atom_site_fract_y
 _atom_site_fract_z
 _atom_site_occupancy
  H  7  1  0.31083500  0.33464500  0.03505700  1
  H  16  1  0.33497500  0.31073200  0.96781200  1
  H  19  1  0.35750000  0.35384500  0.96377800  1
  H  20  1  0.34080400  0.37355300  0.94766500  1
  H  21  1  0.37353600  0.34075200  0.05535200  1
  H  22  1  0.35385400  0.35741000  0.03917700  1
  H  23  1  0.40527900  0.26108600  0.01912100  1
  H  24  1  0.39358000  0.25124400  0.99288800  1
  H  25  1  0.26111000  0.40506500  0.98398400  1
  H  26  1  0.25131100  0.39329700  0.01020300  1
  H  31  1  0.35095900  0.26771400  0.95331700  1
  H  32  1  0.31165700  0.40412200  0.95243300  1
  H  33  1  0.26774800  0.35046800  0.04955200  1
  H  34  1  0.40414600  0.31160900  0.05083400  1
  H  41  1  0.69190500  0.66762000  0.03503100  1
  H  50  1  0.66831900  0.69223200  0.96786600  1
  H  53  1  0.64595100  0.64910100  0.96310100  1
  H  54  1  0.66280000  0.62954600  0.94696800  1
  H  55  1  0.62775900  0.66029500  0.05371600  1
  H  56  1  0.64852600  0.64430000  0.03815200  1
  H  57  1  0.59656100  0.74017200  0.01881700  1
  H  58  1  0.60827100  0.75050500  0.99276900  1
  H  59  1  0.74219100  0.59772800  0.98374800  1
  H  60  1  0.75178500  0.60932500  0.01011700  1
  H  65  1  0.65198300  0.73516600  0.95362400  1
  H  66  1  0.69166800  0.59868600  0.95202700  1
  H  67  1  0.73507000  0.65195000  0.04956100  1
  H  68  1  0.59218100  0.70095600  0.04275200  1
  H  75  1  0.69166100  0.33515300  0.96739200  1
  H  84  1  0.66806200  0.31060400  0.03460500  1
  H  87  1  0.64554100  0.35392500  0.03914300  1
  H  88  1  0.66232600  0.37361800  0.05519900  1
  H  89  1  0.62739700  0.34258000  0.94882300  1
  H  90  1  0.64823400  0.35851900  0.96435700  1
  H  91  1  0.59626900  0.26266200  0.98371300  1
  H  92  1  0.60794600  0.25235700  0.00978700  1
  H  93  1  0.74183000  0.40508400  0.01877000  1
  H  94  1  0.75151000  0.39355100  0.99240100  1
  H  99  1  0.65173000  0.26765700  0.04885700  1
  H  100  1  0.69234200  0.40426500  0.05065500  1
  H  101  1  0.73492800  0.35076200  0.95297600  1
  H  102  1  0.59183700  0.30172800  0.95983300  1
  H  109  1  0.31074300  0.66846600  0.96811400  1
  H  118  1  0.33537500  0.69208500  0.03536900  1
  H  121  1  0.35818800  0.64853900  0.03867900  1
  H  122  1  0.34193800  0.62797300  0.05426200  1
  H  123  1  0.37334000  0.66248600  0.94742900  1
  H  124  1  0.35373300  0.64577800  0.96364400  1
  H  125  1  0.40542400  0.74193000  0.98387100  1
  H  126  1  0.39388000  0.75166800  0.01020600  1
  H  127  1  0.26209100  0.59717400  0.01904200  1
  H  128  1  0.25198900  0.60882000  0.99287500  1
  H  133  1  0.35126400  0.73517400  0.04979200  1
  H  134  1  0.30153200  0.59272400  0.04342100  1
  H  135  1  0.26769900  0.65227900  0.95372800  1
  H  136  1  0.40414600  0.69143600  0.95205300  1
  H  143  1  0.03534100  0.31092900  0.33485700  1
  H  152  1  0.96804300  0.33497800  0.31079200  1
  H  155  1  0.96402400  0.35762200  0.35383200  1
  H  156  1  0.94785000  0.34094000  0.37350100  1
  H  157  1  0.05560700  0.37362000  0.34062800  1
  H  158  1  0.03945100  0.35398300  0.35735300  1
  H  159  1  0.01920400  0.40529200  0.26101200  1
  H  160  1  0.99297600  0.39354900  0.25121500  1
  H  161  1  0.98402500  0.26121800  0.40510200  1
  H  162  1  0.01026800  0.25140600  0.39340400  1
  H  167  1  0.95347500  0.35091000  0.26777000  1
  H  168  1  0.95248900  0.31178200  0.40407000  1
  H  169  1  0.04988700  0.26796600  0.35081400  1
  H  170  1  0.05110400  0.40414600  0.31141500  1
  H  177  1  0.03497800  0.69195700  0.66751900  1
  H  186  1  0.96781600  0.66838200  0.69218000  1
  H  189  1  0.96302200  0.64601600  0.64906600  1
  H  190  1  0.94687800  0.66286700  0.62952200  1
  H  191  1  0.05366200  0.62782100  0.66023400  1
  H  192  1  0.03808800  0.64857400  0.64423300  1
  H  193  1  0.01877700  0.59662800  0.74011600  1
  H  194  1  0.99273600  0.60834200  0.75045600  1
  H  195  1  0.98366200  0.74223400  0.59764800  1
  H  196  1  0.01004600  0.75181900  0.60921500  1
  H  201  1  0.95359600  0.65205400  0.73513300  1
  H  202  1  0.95192300  0.69171300  0.59865300  1
  H  203  1  0.04949300  0.73513300  0.65182300  1
  H  204  1  0.04271700  0.59225500  0.70087700  1
  H  211  1  0.96772700  0.69184900  0.33492400  1
  H  220  1  0.03493000  0.66777800  0.31067300  1
  H  223  1  0.03877800  0.64491400  0.35429900  1
  H  224  1  0.05439300  0.66121800  0.37478600  1
  H  225  1  0.94875200  0.62762700  0.34222400  1
  H  226  1  0.96432300  0.64839400  0.35821800  1
  H  227  1  0.98382100  0.59632100  0.26243900  1
  H  228  1  0.00999600  0.60785800  0.25224700  1
  H  229  1  0.01904400  0.74107300  0.40556200  1
  H  230  1  0.99272400  0.75099600  0.39412000  1
  H  235  1  0.04918200  0.65155900  0.26772200  1
  H  236  1  0.04354700  0.70185100  0.41027400  1
  H  237  1  0.95336100  0.73494900  0.35086800  1
  H  238  1  0.95993000  0.59186800  0.30151800  1
  H  245  1  0.96799500  0.31083100  0.66858700  1
  H  254  1  0.03518200  0.33552000  0.69218900  1
  H  257  1  0.03838400  0.35855100  0.64867700  1
  H  258  1  0.05396500  0.34242200  0.62801600  1
  H  259  1  0.94720400  0.37348600  0.66269800  1
  H  260  1  0.96339700  0.35387800  0.64596900  1
  H  261  1  0.98370300  0.40550600  0.74214200  1
  H  262  1  0.01005200  0.39396400  0.75184800  1
  H  263  1  0.01899200  0.26248700  0.59713300  1
  H  264  1  0.99289400  0.25225700  0.60882200  1
  H  269  1  0.04961500  0.35135100  0.73530600  1
  H  270  1  0.04333800  0.30200300  0.59257700  1
  H  271  1  0.95373200  0.26775200  0.65230500  1
  H  272  1  0.95193800  0.40433600  0.69160700  1
  H  279  1  0.33493200  0.03519500  0.31081200  1
  H  288  1  0.31084900  0.96793900  0.33491700  1
  H  291  1  0.35391400  0.96392500  0.35756700  1
  H  292  1  0.37360300  0.94774500  0.34091400  1
  H  293  1  0.34081900  0.05547800  0.37351500  1
  H  294  1  0.35750700  0.03930300  0.35386200  1
  H  295  1  0.26113100  0.01922900  0.40517900  1
  H  296  1  0.25130400  0.99299800  0.39346500  1
  H  297  1  0.40521400  0.98386300  0.26116600  1
  H  298  1  0.39350800  0.01009300  0.25132400  1
  H  303  1  0.26782400  0.95341700  0.35088400  1
  H  304  1  0.40413300  0.95218700  0.31168300  1
  H  305  1  0.35090700  0.04969500  0.26781100  1
  H  306  1  0.31164600  0.05095100  0.40409400  1
  H  313  1  0.66778300  0.03478200  0.69207000  1
  H  322  1  0.69209800  0.96762800  0.66793200  1
  H  325  1  0.64858200  0.96366800  0.64513700  1
  H  326  1  0.62811300  0.94803200  0.66143100  1
  H  327  1  0.66066400  0.05395000  0.62798800  1
  H  328  1  0.64460300  0.03833800  0.64866500  1
  H  329  1  0.74038400  0.01883500  0.59657600  1
  H  330  1  0.75058500  0.99266900  0.60812400  1
  H  331  1  0.59697300  0.98354500  0.74111900  1
  H  332  1  0.60844300  0.00984300  0.75106500  1
  H  337  1  0.73506200  0.95340200  0.65172300  1
  H  338  1  0.59237300  0.95945700  0.70192500  1
  H  339  1  0.65174500  0.04917300  0.73510100  1
  H  340  1  0.70117000  0.04281100  0.59219200  1
  H  347  1  0.33520700  0.96739700  0.69166100  1
  H  356  1  0.31063900  0.03462200  0.66809000  1
  H  359  1  0.35395700  0.03918200  0.64558400  1
  H  360  1  0.37364400  0.05523300  0.66237800  1
  H  361  1  0.34263900  0.94886400  0.62739300  1
  H  362  1  0.35857700  0.96439800  0.64823400  1
  H  363  1  0.26270300  0.98373300  0.59629000  1
  H  364  1  0.25239400  0.00980100  0.60797400  1
  H  365  1  0.40511200  0.01877000  0.74186700  1
  H  366  1  0.39359000  0.99239000  0.75152800  1
  H  371  1  0.26769000  0.04887300  0.65175400  1
  H  372  1  0.40429700  0.05067200  0.69238500  1
  H  373  1  0.35081700  0.95294800  0.73490000  1
  H  374  1  0.30177400  0.95986800  0.59184400  1
  H  381  1  0.66858500  0.96797800  0.31084400  1
  H  390  1  0.69217800  0.03516900  0.33555300  1
  H  393  1  0.64867800  0.03833500  0.35860300  1
  H  394  1  0.62801600  0.05392700  0.34248700  1
  H  395  1  0.66276800  0.94714800  0.37348200  1
  H  396  1  0.64601600  0.96334400  0.35389700  1
  H  397  1  0.74219300  0.98369200  0.40549700  1
  H  398  1  0.75187600  0.01005300  0.39396400  1
  H  399  1  0.59710800  0.01898600  0.26254700  1
  H  400  1  0.60879800  0.99289400  0.25230100  1
  H  405  1  0.73529100  0.04961900  0.35136100  1
  H  406  1  0.59263100  0.04313400  0.30207200  1
  H  407  1  0.65230300  0.95372200  0.26778500  1
  H  408  1  0.69170900  0.95185600  0.40430400  1
  H  415  1  0.80899900  0.83413600  0.53454700  1
  H  424  1  0.83430200  0.80902100  0.46818500  1
  H  427  1  0.85690700  0.85194800  0.46340900  1
  H  428  1  0.84093600  0.87238100  0.44744700  1
  H  429  1  0.87226000  0.84087200  0.55545600  1
  H  430  1  0.85185900  0.85684200  0.53946500  1
  H  431  1  0.90882700  0.76434400  0.51818700  1
  H  432  1  0.89799700  0.75413700  0.49163700  1
  H  433  1  0.76435800  0.90879300  0.48471500  1
  H  434  1  0.75414600  0.89791300  0.51124000  1
  H  439  1  0.85688800  0.75936800  0.45941000  1
  H  440  1  0.81214700  0.90494500  0.45309200  1
  H  441  1  0.75889500  0.85710200  0.54293300  1
  H  442  1  0.90492700  0.81217000  0.54978300  1
  H  449  1  0.19413500  0.16818300  0.53438700  1
  H  458  1  0.16856200  0.19369400  0.46814600  1
  H  461  1  0.14652000  0.15075600  0.46292700  1
  H  462  1  0.16254200  0.13038900  0.44695200  1
  H  463  1  0.13027900  0.16017200  0.55456500  1
  H  464  1  0.15114600  0.14474000  0.53861800  1
  H  465  1  0.09423400  0.23749500  0.51918400  1
  H  466  1  0.10446900  0.24779600  0.49243500  1
  H  467  1  0.23895000  0.09372200  0.48442600  1
  H  468  1  0.24905800  0.10449900  0.51103400  1
  H  473  1  0.14516800  0.24359800  0.46034700  1
  H  474  1  0.19100500  0.09766000  0.45294300  1
  H  475  1  0.24423100  0.14526000  0.54282700  1
  H  476  1  0.09306900  0.19966500  0.54422300  1
  H  483  1  0.19402700  0.83456100  0.46829100  1
  H  492  1  0.16838100  0.80881500  0.53444800  1
  H  495  1  0.14484200  0.85173400  0.53865500  1
  H  496  1  0.16011700  0.87267700  0.55465300  1
  H  497  1  0.13055300  0.84070100  0.44714700  1
  H  498  1  0.15090900  0.85668400  0.46319600  1
  H  499  1  0.09441400  0.76380800  0.48391800  1
  H  500  1  0.10507300  0.75366100  0.51056500  1
  H  501  1  0.23739600  0.90904600  0.51946700  1
  H  502  1  0.24781700  0.89885100  0.49274800  1
  H  507  1  0.14565000  0.75881700  0.54291300  1
  H  508  1  0.19964500  0.91011800  0.54471800  1
  H  509  1  0.24367800  0.85799200  0.46043900  1
  H  510  1  0.09776900  0.81156300  0.45302700  1
  H  517  1  0.80923500  0.16869300  0.46836800  1
  H  526  1  0.83487300  0.19444700  0.53452200  1
  H  529  1  0.85836000  0.15149000  0.53876000  1
  H  530  1  0.84297900  0.13064500  0.55480000  1
  H  531  1  0.87247600  0.16278500  0.44703000  1
  H  532  1  0.85219700  0.14674700  0.46310000  1
  H  533  1  0.90912500  0.23929300  0.48428300  1
  H  534  1  0.89839700  0.24943800  0.51089800  1
  H  535  1  0.76571700  0.09436600  0.51965800  1
  H  536  1  0.75527200  0.10458100  0.49295600  1
  H  541  1  0.85743900  0.24423900  0.54316800  1
  H  542  1  0.80386100  0.09344600  0.54485500  1
  H  543  1  0.75982400  0.14560100  0.46018700  1
  H  544  1  0.90519600  0.19145300  0.45271500  1
  H  551  1  0.53455200  0.80875300  0.83430900  1
  H  560  1  0.46816800  0.83401200  0.80916600  1
  H  563  1  0.46334300  0.85656500  0.85209300  1
  H  564  1  0.44741300  0.84058800  0.87254300  1
  H  565  1  0.55537300  0.87203900  0.84112200  1
  H  566  1  0.53937200  0.85163200  0.85707400  1
  H  567  1  0.51825200  0.90845300  0.76443900  1
  H  568  1  0.49170600  0.89762300  0.75422600  1
  H  569  1  0.48479800  0.76408900  0.90900200  1
  H  570  1  0.51135600  0.75392900  0.89814600  1
  H  575  1  0.45941500  0.85660900  0.75950000  1
  H  576  1  0.45312800  0.81183500  0.90514400  1
  H  577  1  0.54286600  0.75858100  0.85738500  1
  H  578  1  0.54961000  0.90476700  0.81242300  1
  H  585  1  0.53439200  0.19412900  0.16819500  1
  H  594  1  0.46816700  0.16854700  0.19372500  1
  H  597  1  0.46292700  0.14651500  0.15078500  1
  H  598  1  0.44694600  0.16254000  0.13042500  1
  H  599  1  0.55458000  0.13027900  0.16016200  1
  H  600  1  0.53862400  0.15114700  0.14474000  1
  H  601  1  0.51921000  0.09418200  0.23746000  1
  H  602  1  0.49247000  0.10441800  0.24778300  1
  H  603  1  0.48442400  0.23893300  0.09373200  1
  H  604  1  0.51103000  0.24904700  0.10451000  1
  H  609  1  0.46047000  0.14504900  0.24370300  1
  H  610  1  0.45293200  0.19099400  0.09768800  1
  H  611  1  0.54282300  0.24423100  0.14526600  1
  H  612  1  0.54425100  0.09305400  0.19962000  1
  H  619  1  0.46835300  0.19388500  0.83447000  1
  H  628  1  0.53453000  0.16821400  0.80881300  1
  H  631  1  0.53869400  0.14471000  0.85175400  1
  H  632  1  0.55468000  0.16000800  0.87269200  1
  H  633  1  0.44717900  0.13043500  0.84061900  1
  H  634  1  0.46321500  0.15079600  0.85660900  1
  H  635  1  0.48406300  0.09418100  0.76384500  1
  H  636  1  0.51070800  0.10484500  0.75369800  1
  H  637  1  0.51946900  0.23732000  0.90895900  1
  H  638  1  0.49276100  0.24773900  0.89872500  1
  H  643  1  0.54311400  0.14557000  0.75892700  1
  H  644  1  0.54473100  0.19956300  0.91007200  1
  H  645  1  0.46048700  0.24356700  0.85786500  1
  H  646  1  0.45295600  0.09772200  0.81145100  1
  H  653  1  0.46842900  0.80919200  0.16867100  1
  H  662  1  0.53459300  0.83482300  0.19439000  1
  H  665  1  0.53885600  0.85824500  0.15140500  1
  H  666  1  0.55487400  0.84283600  0.13056200  1
  H  667  1  0.44712800  0.87243900  0.16266100  1
  H  668  1  0.46319600  0.85213600  0.14664800  1
  H  669  1  0.48436100  0.90912800  0.23915900  1
  H  670  1  0.51096700  0.89839700  0.24932600  1
  H  671  1  0.51963600  0.76559600  0.09433300  1
  H  672  1  0.49293600  0.75517500  0.10457200  1
  H  677  1  0.54325100  0.85738300  0.24413800  1
  H  678  1  0.54488000  0.80371600  0.09339200  1
  H  679  1  0.46020400  0.75977200  0.14564000  1
  H  680  1  0.45280900  0.90516900  0.19130300  1
  H  687  1  0.83433600  0.53459900  0.80886300  1
  H  696  1  0.80925400  0.46814100  0.83413600  1
  H  699  1  0.85212700  0.46345900  0.85677300  1
  H  700  1  0.87259300  0.44751700  0.84082600  1
  H  701  1  0.84085900  0.55545800  0.87218400  1
  H  702  1  0.85691800  0.53950900  0.85181200  1
  H  703  1  0.76422600  0.51824800  0.90837700  1
  H  704  1  0.75410900  0.49163900  0.89760800  1
  H  705  1  0.90906100  0.48481500  0.76429200  1
  H  706  1  0.89820700  0.51135900  0.75409800  1
  H  711  1  0.75948300  0.45937100  0.85666500  1
  H  712  1  0.90517400  0.45318000  0.81206400  1
  H  713  1  0.85732800  0.54304300  0.75883000  1
  H  714  1  0.81161700  0.54961000  0.90489300  1
  H  721  1  0.16865300  0.53440900  0.19378100  1
  H  730  1  0.19379800  0.46791500  0.16869900  1
  H  733  1  0.15098100  0.46305100  0.14611400  1
  H  734  1  0.13055100  0.44713400  0.16212200  1
  H  735  1  0.16210300  0.55509900  0.13045000  1
  H  736  1  0.14605700  0.53916700  0.15084300  1
  H  737  1  0.23882600  0.51782700  0.09432800  1
  H  738  1  0.24889600  0.49122200  0.10514500  1
  H  739  1  0.09396700  0.48470000  0.23850900  1
  H  740  1  0.10483500  0.51125700  0.24864500  1
  H  745  1  0.24399900  0.45953600  0.14568200  1
  H  746  1  0.09789300  0.45308900  0.19065700  1
  H  747  1  0.14569700  0.54300400  0.24376600  1
  H  748  1  0.19093800  0.54927100  0.09781300  1
  H  755  1  0.83452500  0.46825400  0.19393200  1
  H  764  1  0.80882200  0.53444200  0.16833600  1
  H  767  1  0.85173400  0.53859200  0.14472400  1
  H  768  1  0.87268800  0.55458400  0.15999200  1
  H  769  1  0.84055600  0.44711900  0.13043600  1
  H  770  1  0.85657000  0.46312200  0.15080400  1
  H  771  1  0.76378000  0.48408600  0.09427500  1
  H  772  1  0.75365500  0.51072700  0.10497400  1
  H  773  1  0.90901700  0.51942400  0.23730300  1
  H  774  1  0.89881400  0.49270700  0.24772800  1
  H  779  1  0.75886900  0.54302600  0.14569300  1
  H  780  1  0.91011600  0.54465100  0.19953300  1
  H  781  1  0.85795500  0.46039200  0.24357400  1
  H  782  1  0.81137300  0.45296200  0.09773900  1
  H  789  1  0.16864300  0.46844900  0.80918700  1
  H  798  1  0.19438000  0.53462300  0.83479900  1
  H  801  1  0.15140800  0.53890300  0.85821300  1
  H  802  1  0.13057700  0.55492800  0.84279500  1
  H  803  1  0.16267900  0.44715300  0.87242000  1
  H  804  1  0.14664800  0.46322800  0.85213400  1
  H  805  1  0.23919800  0.48438300  0.90906700  1
  H  806  1  0.24935000  0.51099500  0.89833800  1
  H  807  1  0.09432000  0.51967000  0.76557900  1
  H  808  1  0.10454700  0.49296000  0.75516800  1
  H  813  1  0.24423700  0.54324200  0.85745800  1
  H  814  1  0.09339900  0.54493200  0.80370900  1
  H  815  1  0.14557700  0.46022700  0.75975900  1
  H  816  1  0.19134900  0.45282400  0.90513500  1
  H  822  1  0.42040900  0.29101700  0.92405000  1
  H  823  1  0.44759400  0.27058200  0.89593900  1
  H  826  1  0.35576500  0.22796800  0.93464200  1
  H  827  1  0.37634900  0.22254500  0.95997100  1
  H  828  1  0.37305800  0.20050100  0.93640800  1
  H  830  1  0.41997200  0.18779900  0.88889400  1
  H  831  1  0.38846100  0.19119800  0.89621300  1
  H  832  1  0.41038700  0.18358000  0.91987800  1
  H  840  1  0.58332600  0.71131100  0.92311800  1
  H  841  1  0.55637900  0.73166600  0.89475600  1
  H  844  1  0.64701300  0.77507900  0.93539500  1
  H  845  1  0.62590400  0.77994300  0.96040800  1
  H  846  1  0.62930800  0.80228300  0.93714100  1
  H  848  1  0.58320600  0.81479900  0.88878400  1
  H  849  1  0.61460400  0.81172100  0.89670200  1
  H  850  1  0.59212700  0.81889100  0.91998600  1
  H  858  1  0.58314100  0.29158800  0.07943600  1
  H  859  1  0.55613200  0.27125200  0.10773900  1
  H  862  1  0.64675100  0.22774800  0.06716600  1
  H  863  1  0.62565300  0.22291800  0.04213900  1
  H  864  1  0.62901700  0.20056200  0.06540100  1
  H  866  1  0.58279900  0.18806700  0.11365900  1
  H  867  1  0.61421700  0.19108900  0.10579500  1
  H  868  1  0.59176200  0.18400100  0.08246500  1
  H  876  1  0.42053200  0.71182500  0.07920300  1
  H  877  1  0.44771300  0.73227300  0.10733400  1
  H  880  1  0.35610600  0.77502100  0.06826900  1
  H  881  1  0.37675700  0.78035400  0.04297600  1
  H  882  1  0.37345800  0.80244900  0.06649200  1
  H  884  1  0.42035700  0.81516000  0.11402000  1
  H  885  1  0.38884800  0.81184600  0.10665600  1
  H  886  1  0.41083900  0.81931500  0.08300400  1
  H  894  1  0.92420800  0.42038700  0.29104100  1
  H  895  1  0.89608800  0.44756000  0.27060200  1
  H  898  1  0.93472200  0.35567600  0.22805300  1
  H  899  1  0.96005300  0.37624500  0.22257700  1
  H  900  1  0.93646200  0.37293300  0.20056400  1
  H  902  1  0.88897200  0.41987000  0.18785100  1
  H  903  1  0.89627400  0.38835700  0.19127500  1
  H  904  1  0.91994700  0.41026000  0.18361800  1
  H  912  1  0.92308800  0.58336600  0.71132800  1
  H  913  1  0.89478200  0.55639400  0.73173100  1
  H  916  1  0.93537300  0.64709700  0.77504900  1
  H  917  1  0.96041000  0.62601600  0.77990500  1
  H  918  1  0.93715700  0.62940800  0.80226300  1
  H  920  1  0.88889200  0.58323200  0.81485900  1
  H  921  1  0.89676000  0.61464300  0.81176600  1
  H  922  1  0.92008800  0.59220200  0.81890800  1
  H  930  1  0.07980100  0.58302000  0.29138000  1
  H  931  1  0.10818100  0.55616200  0.27094500  1
  H  934  1  0.06715300  0.64667600  0.22764600  1
  H  935  1  0.04219500  0.62549100  0.22285100  1
  H  936  1  0.06539000  0.62896500  0.20044700  1
  H  938  1  0.11382100  0.58297400  0.18779100  1
  H  939  1  0.10582500  0.61435200  0.19086900  1
  H  940  1  0.08257900  0.59180500  0.18379900  1
  H  948  1  0.07904900  0.42059000  0.71191400  1
  H  949  1  0.10723500  0.44774600  0.73231700  1
  H  952  1  0.06815200  0.35617700  0.77512900  1
  H  953  1  0.04288600  0.37685000  0.78049900  1
  H  954  1  0.06643100  0.37353200  0.80255700  1
  H  956  1  0.11403100  0.42038100  0.81519400  1
  H  957  1  0.10662800  0.38888000  0.81189100  1
  H  958  1  0.08301200  0.41089500  0.81939900  1
  H  966  1  0.29111200  0.92421700  0.42037900  1
  H  967  1  0.27068400  0.89611600  0.44758100  1
  H  970  1  0.22809600  0.93469200  0.35568700  1
  H  971  1  0.22263700  0.96003800  0.37624300  1
  H  972  1  0.20061600  0.93645000  0.37295900  1
  H  974  1  0.18792000  0.88898500  0.41992500  1
  H  975  1  0.19133200  0.89626800  0.38840700  1
  H  976  1  0.18368500  0.91995400  0.41030000  1
  H  984  1  0.71139500  0.92295400  0.58308400  1
  H  985  1  0.73180600  0.89455300  0.55621700  1
  H  988  1  0.77509300  0.93541400  0.64681600  1
  H  989  1  0.77995200  0.96038900  0.62566600  1
  H  990  1  0.80231100  0.93715000  0.62913100  1
  H  992  1  0.81491400  0.88871700  0.58313200  1
  H  993  1  0.81180700  0.89669600  0.61451200  1
  H  994  1  0.81897100  0.91994300  0.59199300  1
  H  1002  1  0.29161100  0.07945100  0.58316000  1
  H  1003  1  0.27126500  0.10774000  0.55613900  1
  H  1006  1  0.22777600  0.06718000  0.64677300  1
  H  1007  1  0.22294900  0.04214600  0.62568100  1
  H  1008  1  0.20059000  0.06540500  0.62904200  1
  H  1010  1  0.18807600  0.11364000  0.58280500  1
  H  1011  1  0.19110200  0.10578900  0.61422600  1
  H  1012  1  0.18402200  0.08244800  0.59177900  1
  H  1020  1  0.71195100  0.07904200  0.42061600  1
  H  1021  1  0.73237100  0.10723900  0.44775000  1
  H  1024  1  0.77512100  0.06814200  0.35615600  1
  H  1025  1  0.78050600  0.04288000  0.37683100  1
  H  1026  1  0.80256200  0.06642600  0.37349500  1
  H  1028  1  0.81522300  0.11404500  0.42031600  1
  H  1029  1  0.81189600  0.10663200  0.38882000  1
  H  1030  1  0.81942900  0.08302400  0.41083700  1
  H  1038  1  0.29125200  0.41937500  0.07958500  1
  H  1039  1  0.27092400  0.44631200  0.10799800  1
  H  1042  1  0.22782800  0.35531900  0.06793100  1
  H  1043  1  0.22257100  0.37626800  0.04287100  1
  H  1044  1  0.20046200  0.37278600  0.06634600  1
  H  1046  1  0.18789600  0.41925000  0.11433800  1
  H  1047  1  0.19109200  0.38780600  0.10665000  1
  H  1048  1  0.18374300  0.41007300  0.08322000  1
  H  1056  1  0.71145600  0.58295700  0.07920300  1
  H  1057  1  0.73167200  0.55586200  0.10753500  1
  H  1060  1  0.77493900  0.64704100  0.06806400  1
  H  1061  1  0.78031500  0.62619100  0.04294900  1
  H  1062  1  0.80231300  0.62958300  0.06654400  1
  H  1064  1  0.81468900  0.58278600  0.11426900  1
  H  1065  1  0.81158000  0.61428200  0.10675700  1
  H  1066  1  0.81894500  0.59214000  0.08321500  1
  H  1074  1  0.29173300  0.58351900  0.92359600  1
  H  1075  1  0.27149400  0.55629700  0.89541400  1
  H  1078  1  0.22786700  0.64718200  0.93522600  1
  H  1079  1  0.22288600  0.62626000  0.96036700  1
  H  1080  1  0.20065300  0.62949400  0.93696900  1
  H  1082  1  0.18829000  0.58278400  0.88915500  1
  H  1083  1  0.19125100  0.61427600  0.89673500  1
  H  1084  1  0.18416300  0.59202500  0.92026000  1
  H  1092  1  0.71150800  0.41959800  0.92299100  1
  H  1093  1  0.73190600  0.44661700  0.89467900  1
  H  1096  1  0.77497400  0.35564400  0.93481300  1
  H  1097  1  0.78017700  0.37656900  0.95990200  1
  H  1098  1  0.80233200  0.37311900  0.93646300  1
  H  1100  1  0.81500400  0.41975800  0.88866500  1
  H  1101  1  0.81185700  0.38828800  0.89627000  1
  H  1102  1  0.81905800  0.41051900  0.91978100  1
  H  1110  1  0.41971700  0.92303400  0.71154000  1
  H  1111  1  0.44669900  0.89470500  0.73194000  1
  H  1114  1  0.35566100  0.93478300  0.77493900  1
  H  1115  1  0.37658900  0.95986100  0.78017900  1
  H  1116  1  0.37311200  0.93640600  0.80231100  1
  H  1118  1  0.41971500  0.88856800  0.81497800  1
  H  1119  1  0.38825100  0.89618800  0.81180700  1
  H  1120  1  0.41048200  0.91968300  0.81906000  1
  H  1128  1  0.58350400  0.92352500  0.29183000  1
  H  1129  1  0.55628600  0.89536000  0.27154600  1
  H  1132  1  0.64719200  0.93521100  0.22799800  1
  H  1133  1  0.62627600  0.96036700  0.22303900  1
  H  1134  1  0.62951000  0.93699400  0.20078000  1
  H  1136  1  0.58282100  0.88916800  0.18836400  1
  H  1137  1  0.61431100  0.89675000  0.19135100  1
  H  1138  1  0.59206600  0.92027400  0.18424800  1
  H  1146  1  0.58298500  0.07920300  0.71133300  1
  H  1147  1  0.55591800  0.10750400  0.73161800  1
  H  1150  1  0.64677900  0.06742700  0.77506600  1
  H  1151  1  0.62578900  0.04235300  0.78009300  1
  H  1152  1  0.62913600  0.06574500  0.80231500  1
  H  1154  1  0.58266500  0.11377900  0.81473200  1
  H  1155  1  0.61411800  0.10606400  0.81169900  1
  H  1156  1  0.59179000  0.08264200  0.81888300  1
  H  1164  1  0.42025100  0.07911800  0.29104100  1
  H  1165  1  0.44736500  0.10729000  0.27057400  1
  H  1168  1  0.35571500  0.06819200  0.22796000  1
  H  1169  1  0.37637200  0.04290900  0.22259800  1
  H  1170  1  0.37302600  0.06641900  0.20050400  1
  H  1172  1  0.41980300  0.11403800  0.18772400  1
  H  1173  1  0.38831600  0.10663100  0.19113100  1
  H  1174  1  0.41031600  0.08301600  0.18357700  1
  H  1182  1  0.92356400  0.29185800  0.58349500  1
  H  1183  1  0.89540100  0.27159600  0.55624400  1
  H  1186  1  0.93514600  0.22799900  0.64716600  1
  H  1187  1  0.96033000  0.22302000  0.62628800  1
  H  1188  1  0.93693200  0.20078000  0.62948600  1
  H  1190  1  0.88914200  0.18840700  0.58275100  1
  H  1191  1  0.89669300  0.19139600  0.61425000  1
  H  1192  1  0.92023400  0.18425900  0.59203200  1
  H  1200  1  0.92317500  0.71139800  0.41961300  1
  H  1201  1  0.89485800  0.73179800  0.44658500  1
  H  1204  1  0.93529700  0.77499700  0.35577500  1
  H  1205  1  0.96032800  0.78002300  0.37681500  1
  H  1206  1  0.93698400  0.80227800  0.37336500  1
  H  1208  1  0.88892600  0.81490000  0.41975600  1
  H  1209  1  0.89668700  0.81180900  0.38831800  1
  H  1210  1  0.92009200  0.81895000  0.41067900  1
  H  1218  1  0.07921900  0.29105800  0.42020800  1
  H  1219  1  0.10728500  0.27054500  0.44735500  1
  H  1222  1  0.06831700  0.22804400  0.35558700  1
  H  1223  1  0.04302000  0.22270000  0.37622700  1
  H  1224  1  0.06650700  0.20058100  0.37288300  1
  H  1226  1  0.11397700  0.18770000  0.41979100  1
  H  1227  1  0.10664900  0.19109800  0.38828300  1
  H  1228  1  0.08296400  0.18363300  0.41023800  1
  H  1236  1  0.07918300  0.71144300  0.58288500  1
  H  1237  1  0.10755100  0.73164800  0.55578000  1
  H  1240  1  0.06800400  0.77499500  0.64687900  1
  H  1241  1  0.04287800  0.78034800  0.62603600  1
  H  1242  1  0.06646500  0.80235600  0.62940100  1
  H  1244  1  0.11424600  0.81469700  0.58265600  1
  H  1245  1  0.10670400  0.81158500  0.61414400  1
  H  1246  1  0.08318700  0.81897100  0.59198200  1
  H  1254  1  0.57984400  0.70959700  0.08789000  1
  H  1255  1  0.55628100  0.73730600  0.11323100  1
  H  1258  1  0.64304600  0.75772300  0.04982100  1
  H  1259  1  0.62802900  0.78664700  0.04908800  1
  H  1260  1  0.64829700  0.77889500  0.07403700  1
  H  1262  1  0.59512300  0.81578300  0.10788600  1
  H  1263  1  0.62539100  0.80637000  0.10083000  1
  H  1264  1  0.60459600  0.81492000  0.07658200  1
  H  1272  1  0.42372300  0.29266600  0.08802500  1
  H  1273  1  0.44710800  0.26421800  0.11267100  1
  H  1276  1  0.35779700  0.24660000  0.05201300  1
  H  1277  1  0.37201600  0.21729800  0.05058000  1
  H  1278  1  0.35281200  0.22538300  0.07625400  1
  H  1280  1  0.40626200  0.18682600  0.10792000  1
  H  1281  1  0.37590500  0.19706900  0.10233500  1
  H  1282  1  0.39540200  0.18829400  0.07710800  1
  H  1290  1  0.42397100  0.71036600  0.91515900  1
  H  1291  1  0.44743900  0.73865900  0.89042700  1
  H  1294  1  0.35795500  0.75667500  0.95071700  1
  H  1295  1  0.37218100  0.78597900  0.95199500  1
  H  1296  1  0.35303900  0.77773600  0.92632600  1
  H  1298  1  0.40657600  0.81607600  0.89455300  1
  H  1299  1  0.37620600  0.80586500  0.90012400  1
  H  1300  1  0.39563700  0.81481200  0.92534500  1
  H  1308  1  0.57972100  0.29322000  0.91450200  1
  H  1309  1  0.55613700  0.26531000  0.88939500  1
  H  1312  1  0.64306400  0.24543700  0.95275800  1
  H  1313  1  0.62804800  0.21651800  0.95378700  1
  H  1314  1  0.64825600  0.22404700  0.92872200  1
  H  1316  1  0.59498700  0.18688700  0.89530300  1
  H  1317  1  0.62528600  0.19633800  0.90219100  1
  H  1318  1  0.60455300  0.18801500  0.92657100  1
  H  1326  1  0.08782000  0.57987700  0.70955100  1
  H  1327  1  0.11316800  0.55630700  0.73724500  1
  H  1330  1  0.04978800  0.64308100  0.75770100  1
  H  1331  1  0.04907400  0.62806600  0.78662700  1
  H  1332  1  0.07402000  0.64833200  0.77885400  1
  H  1334  1  0.10788700  0.59515600  0.81572400  1
  H  1335  1  0.10082600  0.62542200  0.80631200  1
  H  1336  1  0.07658200  0.60463200  0.81488300  1
  H  1344  1  0.08796800  0.42395800  0.29235300  1
  H  1345  1  0.11262600  0.44739100  0.26396500  1
  H  1348  1  0.05222600  0.35793100  0.24620200  1
  H  1349  1  0.05086900  0.37213500  0.21689200  1
  H  1350  1  0.07655200  0.35298300  0.22507200  1
  H  1352  1  0.10823500  0.40647000  0.18659100  1
  H  1353  1  0.10267800  0.37611300  0.19684400  1
  H  1354  1  0.07744100  0.39554900  0.18796100  1
  H  1362  1  0.91488400  0.42404900  0.71053700  1
  H  1363  1  0.89023400  0.44749100  0.73892900  1
  H  1366  1  0.95062400  0.35802400  0.75668100  1
  H  1367  1  0.95200800  0.37223100  0.78598800  1
  H  1368  1  0.92631300  0.35308900  0.77782900  1
  H  1370  1  0.89466400  0.40660000  0.81631400  1
  H  1371  1  0.90020200  0.37623400  0.80607000  1
  H  1372  1  0.92545300  0.39566400  0.81493100  1
  H  1380  1  0.91461900  0.57977900  0.29309000  1
  H  1381  1  0.88947800  0.55615200  0.26524500  1
  H  1384  1  0.95278600  0.64307800  0.24517100  1
  H  1385  1  0.95377400  0.62802600  0.21626700  1
  H  1386  1  0.92871500  0.64823600  0.22381300  1
  H  1388  1  0.89525400  0.59490700  0.18677000  1
  H  1389  1  0.90214700  0.62522100  0.19617100  1
  H  1390  1  0.92652100  0.60448600  0.18783600  1
  H  1398  1  0.70978900  0.08793800  0.57991500  1
  H  1399  1  0.73746400  0.11329900  0.55633700  1
  H  1402  1  0.75799600  0.04982600  0.64302900  1
  H  1403  1  0.78690400  0.04911400  0.62797900  1
  H  1404  1  0.77916700  0.07404400  0.64827700  1
  H  1406  1  0.81598600  0.10794400  0.59508400  1
  H  1407  1  0.80661000  0.10086200  0.62535700  1
  H  1408  1  0.81514300  0.07663200  0.60453500  1
  H  1416  1  0.29267900  0.08812600  0.42368100  1
  H  1417  1  0.26420500  0.11271900  0.44708900  1
  H  1420  1  0.24663900  0.05209600  0.35774500  1
  H  1421  1  0.21734500  0.05061100  0.37197500  1
  H  1422  1  0.22538500  0.07630900  0.35278400  1
  H  1424  1  0.18680300  0.10788600  0.40626700  1
  H  1425  1  0.19704500  0.10233800  0.37590300  1
  H  1426  1  0.18831200  0.07708500  0.39538500  1
  H  1434  1  0.71062400  0.91484300  0.42399500  1
  H  1435  1  0.73896200  0.89011300  0.44741100  1
  H  1438  1  0.75686300  0.95061300  0.35804700  1
  H  1439  1  0.78616900  0.95191200  0.37226700  1
  H  1440  1  0.77796100  0.92626400  0.35307800  1
  H  1442  1  0.81636400  0.89444500  0.40654300  1
  H  1443  1  0.80614100  0.90006600  0.37618600  1
  H  1444  1  0.81505200  0.92526000  0.39566600  1
  H  1452  1  0.29328900  0.91452600  0.57973200  1
  H  1453  1  0.26538100  0.88942600  0.55613600  1
  H  1456  1  0.24549500  0.95277100  0.64307800  1
  H  1457  1  0.21658000  0.95381200  0.62805200  1
  H  1458  1  0.22409700  0.92873700  0.64825400  1
  H  1460  1  0.18694800  0.89534000  0.59496500  1
  H  1461  1  0.19639200  0.90221700  0.62527000  1
  H  1462  1  0.18808000  0.92660500  0.60454200  1
  H  1470  1  0.71035600  0.57914200  0.91475900  1
  H  1471  1  0.73851200  0.55564800  0.88989300  1
  H  1474  1  0.75703100  0.64473200  0.95062200  1
  H  1475  1  0.78627500  0.63037400  0.95176800  1
  H  1476  1  0.77806700  0.64968900  0.92621800  1
  H  1478  1  0.81610500  0.59616900  0.89406700  1
  H  1479  1  0.80604200  0.62654400  0.89985200  1
  H  1480  1  0.81496800  0.60692400  0.92493200  1
  H  1488  1  0.29288900  0.42364900  0.91504200  1
  H  1489  1  0.26457700  0.44710100  0.89030100  1
  H  1492  1  0.24655500  0.35781400  0.95087300  1
  H  1493  1  0.21726600  0.37207300  0.95216300  1
  H  1494  1  0.22544600  0.35285100  0.92653200  1
  H  1496  1  0.18711800  0.40634000  0.89466200  1
  H  1497  1  0.19729600  0.37597700  0.90032900  1
  H  1498  1  0.18841100  0.39550600  0.92549400  1
  H  1506  1  0.71048100  0.42292100  0.08796800  1
  H  1507  1  0.73847500  0.44643400  0.11298100  1
  H  1510  1  0.75757400  0.35769700  0.05189000  1
  H  1511  1  0.78672900  0.37224600  0.05085300  1
  H  1512  1  0.77860300  0.35275600  0.07629900  1
  H  1514  1  0.81627800  0.40633400  0.10875700  1
  H  1515  1  0.80641200  0.37592500  0.10280900  1
  H  1516  1  0.81524200  0.39572600  0.07783700  1
  H  1524  1  0.29206300  0.57933200  0.08736100  1
  H  1525  1  0.26418400  0.55568900  0.11243800  1
  H  1528  1  0.24466800  0.64427400  0.05129300  1
  H  1529  1  0.21553400  0.62967800  0.05039200  1
  H  1530  1  0.22372000  0.64922600  0.07577200  1
  H  1532  1  0.18628400  0.59563500  0.10849400  1
  H  1533  1  0.19608100  0.62603800  0.10242700  1
  H  1534  1  0.18715300  0.60617400  0.07754100  1
  H  1542  1  0.57979600  0.08777900  0.29329700  1
  H  1543  1  0.55589400  0.11290500  0.26568600  1
  H  1546  1  0.64338600  0.05059600  0.24498300  1
  H  1547  1  0.62836800  0.04980900  0.21606200  1
  H  1548  1  0.64834900  0.07496000  0.22390900  1
  H  1550  1  0.59476800  0.10832800  0.18717700  1
  H  1551  1  0.62511300  0.10158000  0.19655000  1
  H  1552  1  0.60459600  0.07713000  0.18790500  1
  H  1560  1  0.42294900  0.08798100  0.71053500  1
  H  1561  1  0.44645700  0.11298500  0.73854200  1
  H  1564  1  0.35771200  0.05189700  0.75760600  1
  H  1565  1  0.37225000  0.05085700  0.78676400  1
  H  1566  1  0.35276600  0.07630500  0.77863600  1
  H  1568  1  0.40633400  0.10875400  0.81633200  1
  H  1569  1  0.37592700  0.10280800  0.80645500  1
  H  1570  1  0.39572600  0.07783500  0.81528800  1
  H  1578  1  0.42368200  0.91499700  0.29285900  1
  H  1579  1  0.44709700  0.89027300  0.26451000  1
  H  1582  1  0.35783100  0.95091100  0.24660200  1
  H  1583  1  0.37207700  0.95222400  0.21730900  1
  H  1584  1  0.35284600  0.92659600  0.22547100  1
  H  1586  1  0.40629500  0.89473900  0.18708100  1
  H  1587  1  0.37594200  0.90040300  0.19728100  1
  H  1588  1  0.39547300  0.92557200  0.18841300  1
  H  1596  1  0.57936200  0.91513700  0.71117500  1
  H  1597  1  0.55593500  0.88999200  0.73917100  1
  H  1600  1  0.64430000  0.95157900  0.75828300  1
  H  1601  1  0.62978200  0.95250300  0.78745800  1
  H  1602  1  0.64940800  0.92718000  0.77928600  1
  H  1604  1  0.59605500  0.89433500  0.81695800  1
  H  1605  1  0.62641200  0.90049800  0.80706600  1
  H  1606  1  0.60646800  0.92532700  0.81597500  1
  H  1614  1  0.08803700  0.71067600  0.42268900  1
  H  1615  1  0.11329800  0.73862700  0.44606200  1
  H  1618  1  0.05090500  0.75801900  0.35832200  1
  H  1619  1  0.04998300  0.78710900  0.37301500  1
  H  1620  1  0.07517300  0.77915200  0.35313000  1
  H  1622  1  0.10834400  0.81662800  0.40642200  1
  H  1623  1  0.10195000  0.80690600  0.37605900  1
  H  1624  1  0.07726400  0.81559500  0.39627500  1
  H  1632  1  0.08787300  0.29330200  0.57980500  1
  H  1633  1  0.11299100  0.26569000  0.55589600  1
  H  1636  1  0.05065600  0.24498500  0.64337000  1
  H  1637  1  0.04985300  0.21607000  0.62833600  1
  H  1638  1  0.07500300  0.22389100  0.64832900  1
  H  1640  1  0.10837000  0.18716600  0.59474000  1
  H  1641  1  0.10161500  0.19652800  0.62508900  1
  H  1642  1  0.07716700  0.18790900  0.60455700  1
  H  1650  1  0.91476500  0.71062600  0.57897500  1
  H  1651  1  0.89007900  0.73895700  0.55549500  1
  H  1654  1  0.95051400  0.75692600  0.64488800  1
  H  1655  1  0.95184100  0.78621400  0.63063400  1
  H  1656  1  0.92617700  0.77804500  0.64981500  1
  H  1658  1  0.89441700  0.81640100  0.59628400  1
  H  1659  1  0.90001800  0.80621100  0.62665400  1
  H  1660  1  0.92522400  0.81508700  0.60717700  1
  H  1668  1  0.91514200  0.29298400  0.42357800  1
  H  1669  1  0.89036600  0.26468100  0.44700000  1
  H  1672  1  0.95102200  0.24663700  0.35777300  1
  H  1673  1  0.95227800  0.21734800  0.37203200  1
  H  1674  1  0.92667600  0.22554300  0.35278100  1
  H  1676  1  0.89472000  0.18722900  0.40622600  1
  H  1677  1  0.90043100  0.19740600  0.37587300  1
  H  1678  1  0.92556700  0.18850200  0.39543200  1
  C  1  1  0.32651000  0.34535800  0.00067400  1
  C  2  1  0.30884200  0.34642200  0.02014700  1
  C  3  1  0.28921400  0.36383200  0.02038100  1
  C  4  1  0.28505300  0.37901200  0.99899300  1
  C  5  1  0.30255000  0.37798900  0.97890400  1
  C  6  1  0.32390500  0.36201900  0.98008200  1
  C  9  1  0.34554000  0.32640600  0.00224300  1
  C  10  1  0.36215900  0.32383400  0.02287500  1
  C  11  1  0.37815100  0.30250200  0.02410500  1
  C  12  1  0.37925400  0.28500100  0.00402300  1
  C  13  1  0.36415400  0.28915800  0.98257900  1
  C  14  1  0.34669600  0.30874500  0.98276700  1
  C  27  1  0.36611300  0.27508500  0.96087300  1
  C  28  1  0.39305400  0.29811800  0.04484700  1
  C  29  1  0.29813100  0.39295700  0.95820300  1
  C  30  1  0.27511300  0.36566700  0.04207800  1
  C  35  1  0.67658500  0.65719700  0.00040000  1
  C  36  1  0.69407600  0.65600100  0.02001700  1
  C  37  1  0.71377500  0.63867700  0.02022800  1
  C  38  1  0.71809900  0.62363400  0.99877400  1
  C  39  1  0.70072300  0.62474300  0.97858200  1
  C  40  1  0.67936900  0.64071400  0.97969300  1
  C  43  1  0.65753000  0.67609200  0.00200400  1
  C  44  1  0.64067500  0.67827300  0.02246800  1
  C  45  1  0.62465200  0.69952100  0.02387600  1
  C  46  1  0.62328600  0.71704000  0.00381200  1
  C  47  1  0.63867500  0.71328900  0.98249600  1
  C  48  1  0.65643100  0.69396500  0.98272100  1
  C  61  1  0.63681600  0.72757200  0.96092900  1
  C  62  1  0.61039500  0.70314800  0.04522400  1
  C  63  1  0.70520600  0.60979500  0.95788300  1
  C  64  1  0.72776600  0.63677300  0.04198200  1
  C  69  1  0.67632800  0.34557900  0.00201900  1
  C  70  1  0.69383800  0.34675900  0.98241200  1
  C  71  1  0.71355500  0.36407200  0.98223100  1
  C  72  1  0.71789100  0.37905500  0.00372400  1
  C  73  1  0.70053000  0.37786600  0.02391700  1
  C  74  1  0.67909500  0.36204400  0.02273000  1
  C  77  1  0.65726600  0.32670900  0.00045000  1
  C  78  1  0.64038100  0.32456000  0.98001700  1
  C  79  1  0.62432300  0.30334100  0.97866200  1
  C  80  1  0.62297900  0.28581100  0.99871800  1
  C  81  1  0.63839000  0.28955400  0.02001700  1
  C  82  1  0.65615000  0.30887500  0.01976900  1
  C  95  1  0.63655700  0.27527500  0.04158500  1
  C  96  1  0.61006700  0.29972200  0.95732700  1
  C  97  1  0.70517800  0.39228500  0.04489500  1
  C  98  1  0.72760800  0.36595100  0.96051400  1
  C  103  1  0.32664000  0.65770900  0.00238100  1
  C  104  1  0.30886000  0.65664600  0.98300600  1
  C  105  1  0.28941300  0.63902700  0.98275100  1
  C  106  1  0.28543300  0.62375700  0.00410900  1
  C  107  1  0.30283900  0.62510200  0.02426700  1
  C  108  1  0.32421600  0.64096000  0.02290900  1
  C  111  1  0.34569100  0.67661600  0.00077400  1
  C  112  1  0.36219400  0.67925900  0.98006200  1
  C  113  1  0.37823100  0.70055700  0.97885600  1
  C  114  1  0.37943500  0.71798600  0.99899700  1
  C  115  1  0.36442900  0.71376300  0.02049700  1
  C  116  1  0.34701000  0.69414300  0.02035500  1
  C  129  1  0.36641300  0.72781800  0.04220900  1
  C  130  1  0.39311300  0.70494700  0.95809900  1
  C  131  1  0.29896100  0.61093800  0.04560600  1
  C  132  1  0.27527100  0.63713000  0.96109700  1
  C  137  1  0.00091200  0.32660300  0.34542900  1
  C  138  1  0.02039900  0.30895100  0.34659700  1
  C  139  1  0.02059400  0.28935200  0.36404200  1
  C  140  1  0.99914400  0.28517800  0.37912900  1
  C  141  1  0.97905300  0.30267100  0.37802800  1
  C  142  1  0.98028300  0.32401500  0.36204700  1
  C  145  1  0.00248700  0.34558100  0.32641300  1
  C  146  1  0.02311400  0.36219600  0.32377400  1
  C  147  1  0.02431500  0.37815200  0.30240900  1
  C  148  1  0.00419200  0.37923900  0.28495300  1
  C  149  1  0.98276200  0.36413500  0.28916200  1
  C  150  1  0.98299300  0.34669900  0.30876700  1
  C  163  1  0.96103000  0.36607400  0.27512400  1
  C  164  1  0.04505400  0.39304600  0.29796000  1
  C  165  1  0.95830200  0.29825600  0.39292700  1
  C  166  1  0.04229900  0.27526900  0.36598500  1
  C  171  1  0.00033500  0.67664100  0.65712800  1
  C  172  1  0.01995700  0.69412700  0.65591100  1
  C  173  1  0.02016200  0.71381900  0.63857600  1
  C  174  1  0.99869800  0.71814600  0.62355000  1
  C  175  1  0.97850100  0.70077700  0.62468000  1
  C  176  1  0.97961900  0.67942800  0.64065800  1
  C  179  1  0.00194900  0.65759000  0.67603000  1
  C  180  1  0.02241700  0.64074000  0.67821500  1
  C  181  1  0.02383500  0.62472400  0.69946900  1
  C  182  1  0.00377200  0.62335700  0.71699000  1
  C  183  1  0.98245300  0.63874200  0.71324100  1
  C  184  1  0.98267100  0.65649600  0.69391100  1
  C  197  1  0.96089200  0.63688700  0.72753200  1
  C  198  1  0.04518500  0.61046500  0.70309400  1
  C  199  1  0.95779400  0.70526000  0.60974000  1
  C  200  1  0.04191900  0.72780500  0.63665600  1
  C  205  1  0.00220900  0.67625400  0.34542900  1
  C  206  1  0.98270000  0.69387500  0.34661600  1
  C  207  1  0.98249000  0.71339900  0.36415400  1
  C  208  1  0.00392800  0.71750200  0.37928200  1
  C  209  1  0.02411200  0.70013300  0.37790500  1
  C  210  1  0.02281100  0.67876200  0.36205300  1
  C  213  1  0.00060900  0.65720700  0.32656400  1
  C  214  1  0.98010300  0.64042200  0.32433800  1
  C  215  1  0.97878000  0.62434300  0.30313500  1
  C  216  1  0.99888900  0.62292500  0.28567100  1
  C  217  1  0.02024900  0.63823200  0.28950200  1
  C  218  1  0.02003100  0.65595600  0.30885500  1
  C  231  1  0.04183600  0.63637500  0.27524900  1
  C  232  1  0.95744000  0.61010100  0.29949700  1
  C  233  1  0.04545400  0.70407200  0.39198000  1
  C  234  1  0.96083200  0.72753700  0.36604600  1
  C  239  1  0.00219400  0.32685600  0.65780600  1
  C  240  1  0.98287000  0.30902000  0.65673800  1
  C  241  1  0.98265200  0.28961400  0.63907100  1
  C  242  1  0.00399400  0.28574900  0.62374900  1
  C  243  1  0.02407300  0.30324400  0.62507200  1
  C  244  1  0.02268800  0.32456300  0.64100100  1
  C  247  1  0.00057300  0.34585100  0.67676200  1
  C  248  1  0.97986100  0.36234700  0.67942600  1
  C  249  1  0.97867900  0.37837400  0.70073200  1
  C  250  1  0.99882200  0.37955200  0.71816100  1
  C  251  1  0.02031500  0.36453900  0.71392000  1
  C  252  1  0.02016400  0.34714600  0.69427700  1
  C  265  1  0.04203400  0.36650600  0.72796100  1
  C  266  1  0.95794600  0.39328600  0.70512400  1
  C  267  1  0.04535000  0.29950000  0.61082200  1
  C  268  1  0.96104600  0.27539900  0.63717300  1
  C  273  1  0.34550900  0.00077800  0.32650800  1
  C  274  1  0.34667200  0.02025100  0.30884300  1
  C  275  1  0.36412000  0.02043500  0.28924700  1
  C  276  1  0.37921700  0.99898600  0.28509600  1
  C  277  1  0.37811200  0.97890800  0.30260200  1
  C  278  1  0.36213300  0.98015100  0.32394600  1
  C  281  1  0.32651000  0.00237400  0.34549200  1
  C  282  1  0.32391600  0.02300400  0.36210900  1
  C  283  1  0.30256500  0.02423100  0.37807800  1
  C  284  1  0.28507000  0.00414400  0.37916800  1
  C  285  1  0.28924600  0.98269900  0.36407400  1
  C  286  1  0.30884500  0.98289800  0.34663100  1
  C  299  1  0.27518500  0.96098500  0.36603700  1
  C  300  1  0.29816600  0.04496600  0.39298700  1
  C  301  1  0.39300200  0.95815700  0.29821600  1
  C  302  1  0.36607000  0.04213100  0.27515600  1
  C  307  1  0.65731300  0.00030900  0.67644200  1
  C  308  1  0.65609600  0.01980100  0.69407400  1
  C  309  1  0.63851900  0.02001200  0.71356100  1
  C  310  1  0.62336800  0.99858400  0.71763400  1
  C  311  1  0.62480100  0.97836300  0.70030100  1
  C  312  1  0.64070700  0.97968400  0.67895700  1
  C  315  1  0.67620500  0.00196200  0.65740700  1
  C  316  1  0.67848300  0.02251700  0.64068100  1
  C  317  1  0.69971600  0.02389200  0.62463700  1
  C  318  1  0.71715800  0.00376500  0.62318200  1
  C  319  1  0.71330600  0.98237800  0.63844800  1
  C  320  1  0.69393500  0.98256100  0.65615500  1
  C  333  1  0.72754800  0.96079000  0.63655400  1
  C  334  1  0.70337700  0.04525300  0.61040800  1
  C  335  1  0.61059000  0.95701600  0.70411000  1
  C  336  1  0.63658500  0.04168800  0.72766400  1
  C  341  1  0.34562000  0.00203800  0.67634900  1
  C  342  1  0.34680900  0.98241900  0.69384600  1
  C  343  1  0.36412400  0.98223000  0.71356100  1
  C  344  1  0.37909800  0.00372600  0.71791300  1
  C  345  1  0.37790300  0.02392800  0.70056300  1
  C  346  1  0.36207900  0.02275100  0.67912900  1
  C  349  1  0.32675200  0.00047300  0.65728500  1
  C  350  1  0.32460800  0.98004700  0.64039200  1
  C  351  1  0.30338800  0.97868900  0.62433600  1
  C  352  1  0.28585300  0.99874000  0.62299800  1
  C  353  1  0.28959400  0.02003700  0.63841200  1
  C  354  1  0.30891200  0.01978900  0.65617200  1
  C  367  1  0.27530800  0.04160400  0.63658100  1
  C  368  1  0.29977400  0.95735600  0.61007600  1
  C  369  1  0.39232100  0.04490600  0.70522100  1
  C  370  1  0.36600900  0.96050300  0.72760000  1
  C  375  1  0.65780800  0.00216900  0.32688900  1
  C  376  1  0.65673400  0.98285300  0.30904400  1
  C  377  1  0.63906200  0.98264100  0.28964400  1
  C  378  1  0.62374000  0.00398600  0.28578800  1
  C  379  1  0.62507200  0.02406400  0.30328700  1
  C  380  1  0.64100300  0.02266500  0.32460400  1
  C  383  1  0.67677600  0.00054500  0.34587300  1
  C  384  1  0.67946900  0.97982400  0.36235100  1
  C  385  1  0.70078600  0.97864400  0.37836500  1
  C  386  1  0.71819600  0.99880400  0.37955000  1
  C  387  1  0.71393100  0.02030200  0.36455400  1
  C  388  1  0.69428100  0.02014700  0.34717000  1
  C  401  1  0.72796300  0.04202800  0.36651900  1
  C  402  1  0.70520800  0.95789800  0.39325100  1
  C  403  1  0.61084700  0.04538200  0.29954900  1
  C  404  1  0.63716600  0.96104100  0.27542000  1
  C  409  1  0.82547600  0.84439100  0.50031700  1
  C  410  1  0.80755500  0.84587600  0.51954500  1
  C  411  1  0.78861800  0.86399100  0.51949100  1
  C  412  1  0.78550100  0.87983400  0.49846600  1
  C  413  1  0.80272400  0.87773300  0.47827600  1
  C  414  1  0.82347400  0.86100300  0.47958800  1
  C  417  1  0.84444300  0.82545400  0.50246800  1
  C  418  1  0.86101700  0.82345400  0.52322900  1
  C  419  1  0.87776500  0.80271900  0.52456000  1
  C  420  1  0.87992300  0.78551800  0.50435900  1
  C  421  1  0.86413100  0.78864400  0.48329500  1
  C  422  1  0.84597900  0.80754600  0.48323200  1
  C  435  1  0.86713200  0.77455900  0.46189400  1
  C  436  1  0.89285000  0.79892800  0.54524300  1
  C  437  1  0.79892300  0.89284100  0.45761200  1
  C  438  1  0.77446100  0.86685700  0.54086000  1
  C  443  1  0.17780700  0.15810000  0.50003300  1
  C  444  1  0.19567200  0.15654900  0.51931200  1
  C  445  1  0.21459400  0.13842000  0.51926800  1
  C  446  1  0.21775400  0.12263200  0.49820700  1
  C  447  1  0.20058600  0.12479600  0.47797500  1
  C  448  1  0.17986000  0.14156300  0.47925500  1
  C  451  1  0.15872700  0.17689800  0.50233400  1
  C  452  1  0.14221000  0.17856000  0.52315700  1
  C  453  1  0.12548800  0.19925400  0.52487800  1
  C  454  1  0.12295400  0.21653100  0.50476500  1
  C  455  1  0.13856600  0.21364500  0.48353300  1
  C  456  1  0.15693700  0.19494400  0.48325000  1
  C  469  1  0.13545400  0.22799400  0.46231800  1
  C  470  1  0.11128600  0.20235000  0.54631600  1
  C  471  1  0.20438200  0.10964200  0.45733100  1
  C  472  1  0.22868600  0.13549300  0.54067600  1
  C  477  1  0.17712600  0.84430800  0.50245700  1
  C  478  1  0.19520100  0.84617800  0.48340600  1
  C  479  1  0.21382000  0.86462900  0.48373800  1
  C  480  1  0.21657000  0.88026600  0.50496900  1
  C  481  1  0.19924300  0.87765500  0.52502500  1
  C  482  1  0.17864200  0.86083000  0.52328000  1
  C  485  1  0.15840300  0.82518200  0.50008100  1
  C  486  1  0.14192800  0.82318000  0.47925700  1
  C  487  1  0.12528000  0.80238400  0.47783900  1
  C  488  1  0.12309500  0.78512300  0.49798200  1
  C  489  1  0.13875100  0.78829400  0.51913700  1
  C  490  1  0.15681400  0.80728000  0.51932400  1
  C  503  1  0.13567100  0.77419500  0.54051200  1
  C  504  1  0.11034900  0.79860800  0.45706300  1
  C  505  1  0.20224200  0.89184700  0.54643000  1
  C  506  1  0.22817400  0.86784300  0.46254700  1
  C  511  1  0.82611500  0.15898000  0.50255200  1
  C  512  1  0.80803500  0.15710500  0.48350300  1
  C  513  1  0.78936800  0.13870600  0.48387700  1
  C  514  1  0.78655000  0.12313900  0.50515200  1
  C  515  1  0.80385200  0.12576700  0.52522600  1
  C  516  1  0.82451400  0.14251800  0.52342700  1
  C  519  1  0.84487100  0.17809100  0.50015900  1
  C  520  1  0.86133800  0.18014800  0.47932200  1
  C  521  1  0.87804900  0.20091200  0.47795100  1
  C  522  1  0.88026400  0.21809600  0.49816300  1
  C  523  1  0.86454600  0.21494000  0.51927500  1
  C  524  1  0.84645900  0.19598100  0.51941100  1
  C  537  1  0.86760500  0.22899500  0.54068500  1
  C  538  1  0.89311600  0.20469300  0.45725300  1
  C  539  1  0.80075000  0.11163700  0.54668600  1
  C  540  1  0.77505100  0.13541100  0.46268100  1
  C  545  1  0.50029900  0.82518600  0.84455500  1
  C  546  1  0.51955400  0.80729300  0.84605100  1
  C  547  1  0.51953400  0.78836800  0.86417700  1
  C  548  1  0.49851600  0.78523300  0.88002700  1
  C  549  1  0.47829900  0.80242500  0.87791700  1
  C  550  1  0.47957500  0.82316500  0.86116800  1
  C  553  1  0.50244100  0.84415900  0.82562300  1
  C  554  1  0.52318500  0.86075300  0.82365300  1
  C  555  1  0.52453600  0.87748900  0.80291200  1
  C  556  1  0.50436500  0.87961600  0.78567000  1
  C  557  1  0.48329300  0.86383500  0.78878900  1
  C  558  1  0.48321500  0.84568800  0.80770000  1
  C  571  1  0.46189900  0.86684900  0.77469500  1
  C  572  1  0.54518700  0.89263200  0.79919400  1
  C  573  1  0.45764600  0.79861000  0.89303800  1
  C  574  1  0.54092400  0.77423000  0.86702800  1
  C  579  1  0.50003800  0.17779900  0.15811700  1
  C  580  1  0.51931400  0.19566600  0.15656500  1
  C  581  1  0.51926600  0.21459100  0.13843800  1
  C  582  1  0.49820300  0.21774800  0.12265200  1
  C  583  1  0.47797100  0.20058100  0.12482000  1
  C  584  1  0.47925500  0.17985500  0.14158800  1
  C  587  1  0.50234900  0.15871500  0.17691100  1
  C  588  1  0.52317500  0.14220000  0.17856200  1
  C  589  1  0.52490600  0.12547200  0.19925000  1
  C  590  1  0.50479600  0.12293100  0.21653300  1
  C  591  1  0.48356600  0.13854900  0.21366400  1
  C  592  1  0.48327200  0.15692200  0.19496700  1
  C  605  1  0.46236500  0.13543400  0.22802700  1
  C  606  1  0.54634400  0.11126600  0.20233500  1
  C  607  1  0.45732600  0.20437300  0.10966600  1
  C  608  1  0.54067200  0.22868000  0.13550600  1
  C  613  1  0.50250800  0.17698800  0.84426300  1
  C  614  1  0.48346000  0.19507100  0.84609800  1
  C  615  1  0.48377900  0.21371000  0.86452700  1
  C  616  1  0.50499700  0.21647400  0.88017800  1
  C  617  1  0.52505500  0.19914400  0.87759900  1
  C  618  1  0.52331700  0.17852300  0.86079800  1
  C  621  1  0.50014600  0.15824900  0.82515300  1
  C  622  1  0.47931500  0.14178500  0.82313200  1
  C  623  1  0.47791500  0.12512600  0.80234300  1
  C  624  1  0.49808600  0.12291100  0.78511900  1
  C  625  1  0.51924000  0.13856800  0.78829900  1
  C  626  1  0.51940500  0.15664700  0.80727000  1
  C  639  1  0.54062800  0.13548900  0.77422400  1
  C  640  1  0.45710200  0.11026400  0.79849700  1
  C  641  1  0.54645000  0.20216000  0.89180100  1
  C  642  1  0.46258400  0.22806100  0.86771600  1
  C  647  1  0.50262100  0.82603800  0.15892600  1
  C  648  1  0.48355700  0.80797200  0.15707600  1
  C  649  1  0.48390700  0.78928900  0.13869000  1
  C  650  1  0.50516800  0.78645000  0.12311000  1
  C  651  1  0.52525900  0.80373500  0.12571900  1
  C  652  1  0.52348600  0.82441000  0.14245700  1
  C  655  1  0.50023900  0.84482100  0.17801400  1
  C  656  1  0.47941100  0.86130000  0.18004600  1
  C  657  1  0.47804000  0.87803300  0.20079300  1
  C  658  1  0.49824400  0.88025200  0.21798500  1
  C  659  1  0.51935300  0.86452500  0.21484900  1
  C  660  1  0.51948700  0.84642000  0.19590600  1
  C  673  1  0.54075800  0.86758000  0.22891500  1
  C  674  1  0.45734400  0.89310500  0.20455900  1
  C  675  1  0.54671300  0.80060500  0.11158300  1
  C  676  1  0.46270100  0.77498200  0.13542600  1
  C  681  1  0.84457500  0.50036400  0.82533700  1
  C  682  1  0.84609000  0.51960800  0.80743600  1
  C  683  1  0.86424200  0.51958400  0.78853200  1
  C  684  1  0.88009100  0.49856300  0.78542300  1
  C  685  1  0.87797100  0.47836000  0.80262900  1
  C  686  1  0.86120500  0.47965000  0.82335500  1
  C  689  1  0.82558600  0.50248000  0.84425900  1
  C  690  1  0.82349100  0.52326300  0.86079000  1
  C  691  1  0.80267600  0.52459900  0.87742800  1
  C  692  1  0.78551600  0.50436800  0.87958800  1
  C  693  1  0.78875500  0.48326300  0.86387600  1
  C  694  1  0.80771300  0.48320500  0.84577800  1
  C  707  1  0.77469100  0.46185100  0.86688500  1
  C  708  1  0.79872900  0.54540100  0.89230500  1
  C  709  1  0.89308100  0.45769800  0.79883000  1
  C  710  1  0.86710400  0.54095900  0.77438100  1
  C  715  1  0.15844000  0.50012000  0.17740500  1
  C  716  1  0.15693200  0.51940000  0.19527200  1
  C  717  1  0.13876500  0.51942600  0.21416100  1
  C  718  1  0.12292400  0.49840400  0.21732600  1
  C  719  1  0.12504500  0.47815700  0.20017100  1
  C  720  1  0.14182200  0.47939800  0.17945000  1
  C  723  1  0.17742800  0.50220200  0.15847200  1
  C  724  1  0.17949100  0.52292600  0.14186000  1
  C  725  1  0.20028700  0.52422100  0.12518300  1
  C  726  1  0.21748600  0.50400900  0.12311500  1
  C  727  1  0.21426900  0.48295100  0.13889700  1
  C  728  1  0.19531300  0.48293800  0.15699800  1
  C  741  1  0.22837500  0.46154200  0.13600900  1
  C  742  1  0.20409000  0.54485400  0.11003500  1
  C  743  1  0.10988600  0.45751900  0.20401000  1
  C  744  1  0.13588000  0.54084000  0.22825200  1
  C  749  1  0.84428500  0.50241400  0.17702400  1
  C  750  1  0.84615200  0.48336400  0.19510100  1
  C  751  1  0.86460700  0.48369100  0.21371800  1
  C  752  1  0.88024500  0.50491900  0.21646600  1
  C  753  1  0.87764600  0.52497100  0.19913100  1
  C  754  1  0.86082000  0.52322600  0.17853200  1
  C  757  1  0.82513900  0.50006400  0.15831800  1
  C  758  1  0.82309600  0.47925100  0.14183500  1
  C  759  1  0.80229300  0.47788200  0.12519000  1
  C  760  1  0.78507700  0.49806400  0.12301200  1
  C  761  1  0.78827300  0.51919300  0.13869400  1
  C  762  1  0.80726100  0.51933100  0.15675600  1
  C  775  1  0.77420200  0.54058900  0.13565400  1
  C  776  1  0.79843100  0.45709100  0.11030000  1
  C  777  1  0.89184300  0.54637000  0.20212300  1
  C  778  1  0.86781500  0.46250000  0.22807600  1
  C  783  1  0.15891500  0.50265300  0.82602300  1
  C  784  1  0.15705500  0.48358500  0.80796200  1
  C  785  1  0.13867000  0.48393700  0.78928000  1
  C  786  1  0.12310000  0.50520400  0.78643300  1
  C  787  1  0.12571900  0.52530200  0.80370700  1
  C  788  1  0.14245800  0.52352700  0.82438200  1
  C  791  1  0.17800800  0.50027100  0.84480200  1
  C  792  1  0.18005500  0.47943700  0.86127400  1
  C  793  1  0.20081700  0.47806000  0.87799000  1
  C  794  1  0.21800900  0.49826700  0.88020400  1
  C  795  1  0.21486000  0.51937900  0.86448400  1
  C  796  1  0.19590300  0.51951700  0.84639300  1
  C  809  1  0.22892600  0.54078000  0.86752700  1
  C  810  1  0.20459200  0.45736300  0.89305700  1
  C  811  1  0.11158500  0.54675700  0.80057000  1
  C  812  1  0.13538900  0.46272400  0.77498700  1
  C  817  1  0.42994600  0.23530300  0.89759700  1
  C  818  1  0.43272600  0.26085700  0.90280700  1
  C  819  1  0.41678100  0.27284100  0.91954500  1
  C  820  1  0.39747100  0.25979900  0.93151600  1
  C  821  1  0.39390400  0.23396700  0.92625100  1
  C  824  1  0.41024700  0.22169100  0.90901700  1
  C  825  1  0.37382200  0.22039600  0.93995200  1
  C  829  1  0.40724200  0.19463900  0.90313800  1
  C  835  1  0.57359200  0.76713100  0.89697700  1
  C  836  1  0.57107000  0.74148400  0.90186400  1
  C  837  1  0.58686300  0.72954500  0.91877500  1
  C  838  1  0.60576700  0.74272500  0.93123100  1
  C  839  1  0.60911800  0.76864400  0.92625700  1
  C  842  1  0.59293800  0.78087100  0.90883600  1
  C  843  1  0.62875900  0.78234300  0.94046000  1
  C  847  1  0.59573500  0.80800300  0.90322800  1
  C  853  1  0.57330500  0.23576600  0.10552900  1
  C  854  1  0.57082300  0.26142100  0.10065000  1
  C  855  1  0.58664900  0.27334100  0.08375800  1
  C  856  1  0.60559700  0.26015800  0.07137400  1
  C  857  1  0.60885600  0.23421800  0.07628100  1
  C  860  1  0.59263700  0.22200200  0.09367400  1
  C  861  1  0.62849300  0.22050400  0.06208800  1
  C  865  1  0.59536500  0.19485700  0.09924500  1
  C  871  1  0.43018200  0.76758500  0.10547700  1
  C  872  1  0.43286700  0.74199700  0.10041400  1
  C  873  1  0.41694400  0.73002500  0.08365200  1
  C  874  1  0.39772600  0.74310100  0.07157200  1
  C  875  1  0.39421500  0.76895800  0.07675500  1
  C  878  1  0.41055400  0.78124000  0.09398900  1
  C  879  1  0.37419100  0.78254600  0.06298500  1
  C  883  1  0.40762900  0.80832200  0.09977500  1
  C  889  1  0.89771200  0.42988100  0.23533800  1
  C  890  1  0.90294500  0.43268100  0.26088700  1
  C  891  1  0.91968600  0.41674200  0.27287100  1
  C  892  1  0.93164000  0.39741500  0.25983900  1
  C  893  1  0.92635200  0.39382400  0.23401500  1
  C  896  1  0.90911300  0.41016400  0.22173800  1
  C  897  1  0.94002900  0.37372200  0.22045200  1
  C  901  1  0.90321300  0.40713600  0.19469100  1
  C  907  1  0.89702900  0.57362500  0.76718500  1
  C  908  1  0.90188200  0.57110000  0.74153000  1
  C  909  1  0.91876000  0.58690900  0.72956500  1
  C  910  1  0.93121200  0.60583200  0.74272300  1
  C  911  1  0.92626600  0.60918700  0.76864600  1
  C  914  1  0.90888300  0.59299000  0.78090100  1
  C  915  1  0.94046000  0.62885200  0.78232100  1
  C  919  1  0.90331000  0.59578200  0.80804100  1
  C  925  1  0.10582800  0.57338100  0.23549100  1
  C  926  1  0.10101300  0.57084000  0.26115100  1
  C  927  1  0.08407400  0.58657300  0.27313100  1
  C  928  1  0.07158400  0.60548900  0.25999800  1
  C  929  1  0.07642700  0.60880700  0.23405400  1
  C  932  1  0.09386200  0.59268000  0.22177900  1
  C  933  1  0.06212700  0.62840500  0.22039600  1
  C  937  1  0.09936600  0.59546700  0.19462600  1
  C  943  1  0.10541700  0.43021600  0.76763300  1
  C  944  1  0.10031800  0.43290600  0.74205300  1
  C  945  1  0.08352200  0.41699800  0.73010700  1
  C  946  1  0.07144300  0.39779500  0.74320300  1
  C  947  1  0.07666300  0.39427600  0.76905100  1
  C  950  1  0.09393300  0.41059900  0.78130700  1
  C  951  1  0.06289500  0.37426700  0.78265900  1
  C  955  1  0.09976100  0.40766700  0.80837700  1
  C  961  1  0.23541300  0.89772900  0.42991200  1
  C  962  1  0.26096200  0.90296500  0.43270200  1
  C  963  1  0.27294100  0.91969600  0.41674500  1
  C  964  1  0.25990300  0.93163600  0.39741500  1
  C  965  1  0.23407700  0.92634600  0.39383900  1
  C  968  1  0.22180300  0.90911900  0.41019500  1
  C  969  1  0.22050600  0.94001400  0.37373500  1
  C  973  1  0.19475600  0.90321800  0.40718100  1
  C  979  1  0.76724800  0.89684300  0.57346700  1
  C  980  1  0.74159900  0.90169600  0.57090800  1
  C  981  1  0.72962900  0.91863100  0.58665100  1
  C  982  1  0.74278100  0.93114000  0.60553800  1
  C  983  1  0.76870000  0.92619700  0.60893000  1
  C  986  1  0.78096100  0.90875600  0.59279900  1
  C  987  1  0.78236700  0.94044900  0.62855800  1
  C  991  1  0.80809600  0.90318100  0.59562500  1
  C  997  1  0.23578100  0.10552400  0.57331400  1
  C  998  1  0.26143600  0.10065300  0.57083400  1
  C  999  1  0.27336200  0.08376900  0.58666600  1
  C  1000  1  0.26018200  0.07138600  0.60561800  1
  C  1001  1  0.23424100  0.07628600  0.60887400  1
  C  1004  1  0.22202100  0.09367100  0.59265000  1
  C  1005  1  0.22053200  0.06209500  0.62851500  1
  C  1009  1  0.19487200  0.09923300  0.59537600  1
  C  1015  1  0.76767300  0.10542300  0.43019300  1
  C  1016  1  0.74209400  0.10031900  0.43290500  1
  C  1017  1  0.73014000  0.08351700  0.41701000  1
  C  1018  1  0.74322400  0.07143600  0.39779700  1
  C  1019  1  0.76906800  0.07666000  0.39426000  1
  C  1022  1  0.78133300  0.09393600  0.41056800  1
  C  1023  1  0.78266500  0.06288900  0.37424300  1
  C  1027  1  0.80840000  0.09976900  0.40761300  1
  C  1033  1  0.23551300  0.42896300  0.10597500  1
  C  1034  1  0.26111000  0.43161100  0.10090300  1
  C  1035  1  0.27303400  0.41581500  0.08398400  1
  C  1036  1  0.25989300  0.39677300  0.07170000  1
  C  1037  1  0.23402500  0.39330900  0.07684200  1
  C  1040  1  0.22180300  0.40951600  0.09424600  1
  C  1041  1  0.22036800  0.37348900  0.06284900  1
  C  1045  1  0.19470200  0.40664300  0.09996900  1
  C  1051  1  0.76708600  0.57322000  0.10573200  1
  C  1052  1  0.74148600  0.57065500  0.10063500  1
  C  1053  1  0.72963400  0.58653500  0.08374400  1
  C  1054  1  0.74285300  0.60558600  0.07155600  1
  C  1055  1  0.76870500  0.60901800  0.07680000  1
  C  1058  1  0.78085800  0.59270600  0.09415000  1
  C  1059  1  0.78242500  0.62889100  0.06294700  1
  C  1063  1  0.80794900  0.59549300  0.09995600  1
  C  1069  1  0.23599700  0.57346300  0.89741600  1
  C  1070  1  0.26163900  0.57103700  0.90237200  1
  C  1071  1  0.27350100  0.58698800  0.91919000  1
  C  1072  1  0.26026600  0.60601200  0.93140400  1
  C  1073  1  0.23433900  0.60922000  0.92639600  1
  C  1076  1  0.22218100  0.59285800  0.90910000  1
  C  1077  1  0.22057700  0.62896700  0.94039000  1
  C  1081  1  0.19503700  0.59549100  0.90346200  1
  C  1087  1  0.76732300  0.42933200  0.89686600  1
  C  1088  1  0.74169000  0.43189400  0.90177300  1
  C  1089  1  0.72974400  0.41607000  0.91864600  1
  C  1090  1  0.74288900  0.39706400  0.93098000  1
  C  1091  1  0.76878300  0.39364400  0.92592800  1
  C  1094  1  0.78104400  0.40989800  0.90860000  1
  C  1095  1  0.78241900  0.37381300  0.93992600  1
  C  1099  1  0.80817500  0.40710100  0.90298000  1
  C  1105  1  0.42934900  0.89680800  0.76734100  1
  C  1106  1  0.43197600  0.90179500  0.74172800  1
  C  1107  1  0.41615900  0.91866500  0.72976600  1
  C  1108  1  0.39712100  0.93097200  0.74289100  1
  C  1109  1  0.39366000  0.92588800  0.76877200  1
  C  1112  1  0.40989800  0.90854400  0.78103500  1
  C  1113  1  0.37382400  0.93988400  0.78240300  1
  C  1117  1  0.40706900  0.90289500  0.80815200  1
  C  1123  1  0.57345600  0.89742000  0.23605500  1
  C  1124  1  0.57102800  0.90233300  0.26170600  1
  C  1125  1  0.58698000  0.91912600  0.27359600  1
  C  1126  1  0.60595500  0.93142200  0.26036600  1
  C  1127  1  0.60922600  0.92638900  0.23445100  1
  C  1130  1  0.59286400  0.90910800  0.22226400  1
  C  1131  1  0.62897800  0.94039100  0.22070900  1
  C  1135  1  0.59552300  0.90347700  0.19512300  1
  C  1141  1  0.57317500  0.10547900  0.76707000  1
  C  1142  1  0.57065900  0.10050500  0.74143900  1
  C  1143  1  0.58651700  0.08361700  0.72955200  1
  C  1144  1  0.60553200  0.07135000  0.74275300  1
  C  1145  1  0.60883000  0.07637300  0.76866400  1
  C  1148  1  0.59256400  0.09374200  0.78084700  1
  C  1149  1  0.62856100  0.06232300  0.78239100  1
  C  1153  1  0.59529600  0.09940800  0.80797400  1
  C  1159  1  0.42978000  0.10546200  0.23528300  1
  C  1160  1  0.43252500  0.10035300  0.26085900  1
  C  1161  1  0.41663400  0.08356900  0.27284800  1
  C  1162  1  0.39738200  0.07150100  0.25981000  1
  C  1163  1  0.39383000  0.07669800  0.23396100  1
  C  1166  1  0.41012700  0.09396400  0.22166300  1
  C  1167  1  0.37379300  0.06291600  0.22040700  1
  C  1171  1  0.40711600  0.09977200  0.19459400  1
  C  1177  1  0.89745000  0.23609000  0.57338900  1
  C  1178  1  0.90243500  0.26172300  0.57093600  1
  C  1179  1  0.91920800  0.27360200  0.58691500  1
  C  1180  1  0.93144300  0.26037200  0.60592500  1
  C  1181  1  0.92638500  0.23445800  0.60918700  1
  C  1184  1  0.90911000  0.22228900  0.59280800  1
  C  1185  1  0.94034700  0.22070700  0.62896000  1
  C  1189  1  0.90344400  0.19515500  0.59546900  1
  C  1195  1  0.89706100  0.76723000  0.42931100  1
  C  1196  1  0.90192300  0.74158100  0.43184900  1
  C  1197  1  0.91881000  0.72962100  0.41604600  1
  C  1198  1  0.93124000  0.74278100  0.39711000  1
  C  1199  1  0.92624400  0.76868900  0.39371400  1
  C  1202  1  0.90888100  0.78094700  0.40992900  1
  C  1203  1  0.94036900  0.78235100  0.37399000  1
  C  1207  1  0.90330000  0.80808500  0.40715700  1
  C  1213  1  0.10553000  0.23527300  0.42970600  1
  C  1214  1  0.10044200  0.26085900  0.43245200  1
  C  1215  1  0.08370200  0.27288200  0.41653700  1
  C  1216  1  0.07169700  0.25988000  0.39721800  1
  C  1217  1  0.07681200  0.23401500  0.39370900  1
  C  1220  1  0.09402300  0.22168600  0.41003900  1
  C  1221  1  0.06302600  0.22048700  0.37365700  1
  C  1225  1  0.09975900  0.19460000  0.40706400  1
  C  1231  1  0.10566900  0.76707700  0.57307800  1
  C  1232  1  0.10056500  0.74148200  0.57052000  1
  C  1233  1  0.08366000  0.72965100  0.58639600  1
  C  1234  1  0.07148200  0.74287600  0.60544900  1
  C  1235  1  0.07672300  0.76873500  0.60885600  1
  C  1238  1  0.09409200  0.78087500  0.59255300  1
  C  1239  1  0.06287700  0.78246600  0.62872700  1
  C  1243  1  0.09991700  0.80796200  0.59534800  1
  C  1249  1  0.57721300  0.76965400  0.10473600  1
  C  1250  1  0.57114500  0.74420600  0.10349300  1
  C  1251  1  0.58489400  0.72794800  0.08849200  1
  C  1252  1  0.60518100  0.73668700  0.07431900  1
  C  1253  1  0.61236900  0.76218500  0.07609300  1
  C  1256  1  0.59840700  0.77879600  0.09165400  1
  C  1257  1  0.63408800  0.77172000  0.06144400  1
  C  1261  1  0.60615200  0.80538900  0.09443800  1
  C  1267  1  0.42498300  0.23253400  0.10471700  1
  C  1268  1  0.43181600  0.25778700  0.10329000  1
  C  1269  1  0.41812800  0.27448400  0.08872600  1
  C  1270  1  0.39711600  0.26642100  0.07521300  1
  C  1271  1  0.38920700  0.24114200  0.07719800  1
  C  1274  1  0.40313700  0.22407700  0.09228800  1
  C  1275  1  0.36676800  0.23228500  0.06323200  1
  C  1279  1  0.39486600  0.19764800  0.09511700  1
  C  1285  1  0.42530100  0.77039500  0.89812200  1
  C  1286  1  0.43211900  0.74515000  0.89972000  1
  C  1287  1  0.41837900  0.72854200  0.91433900  1
  C  1288  1  0.39732100  0.73668500  0.92773400  1
  C  1289  1  0.38943300  0.76195600  0.92557600  1
  C  1292  1  0.40341500  0.77892900  0.91042500  1
  C  1293  1  0.36696000  0.77091200  0.93942800  1
  C  1297  1  0.39514900  0.80533700  0.90739800  1
  C  1303  1  0.57713500  0.23305500  0.89808600  1
  C  1304  1  0.57104400  0.25850500  0.89913200  1
  C  1305  1  0.58479900  0.27487500  0.91399600  1
  C  1306  1  0.60509700  0.26623900  0.92821400  1
  C  1307  1  0.61232600  0.24074200  0.92660500  1
  C  1310  1  0.59835000  0.22401000  0.91119700  1
  C  1311  1  0.63407900  0.23133400  0.94128700  1
  C  1315  1  0.60606600  0.19738900  0.90862800  1
  C  1321  1  0.10469900  0.57723700  0.76960000  1
  C  1322  1  0.10343700  0.57117300  0.74415000  1
  C  1323  1  0.08843100  0.58492600  0.72790200  1
  C  1324  1  0.07427000  0.60521800  0.73664600  1
  C  1325  1  0.07605900  0.61240200  0.76214600  1
  C  1328  1  0.09162700  0.59843700  0.77874800  1
  C  1329  1  0.06142000  0.63412500  0.77169000  1
  C  1333  1  0.09443200  0.60618400  0.80533700  1
  C  1339  1  0.10482400  0.42523400  0.23226600  1
  C  1340  1  0.10329800  0.43207500  0.25751200  1
  C  1341  1  0.08872500  0.41835500  0.27417700  1
  C  1342  1  0.07530000  0.39729300  0.26609500  1
  C  1343  1  0.07737100  0.38939000  0.24082000  1
  C  1346  1  0.09247700  0.40335000  0.22379000  1
  C  1347  1  0.06347900  0.36691700  0.23192400  1
  C  1351  1  0.09541700  0.39506000  0.19738000  1
  C  1357  1  0.89805500  0.42534000  0.77062800  1
  C  1358  1  0.89955800  0.43217300  0.74537800  1
  C  1359  1  0.91412500  0.41844800  0.72871500  1
  C  1360  1  0.92756300  0.39739900  0.73680600  1
  C  1361  1  0.92549600  0.38949200  0.76207700  1
  C  1364  1  0.91039700  0.40345600  0.77910700  1
  C  1365  1  0.93938500  0.36701600  0.77096600  1
  C  1369  1  0.90747000  0.39517700  0.80552300  1
  C  1375  1  0.89811600  0.57711400  0.23295300  1
  C  1376  1  0.89919700  0.57105700  0.25840900  1
  C  1377  1  0.91408200  0.58483600  0.27473900  1
  C  1378  1  0.92828900  0.60512300  0.26605500  1
  C  1379  1  0.92663500  0.61232400  0.24055200  1
  C  1382  1  0.91120500  0.59832400  0.22386300  1
  C  1383  1  0.94129400  0.63407100  0.23109800  1
  C  1387  1  0.90859100  0.60600500  0.19723500  1
  C  1393  1  0.76984000  0.10479400  0.57722400  1
  C  1394  1  0.74438300  0.10355400  0.57118800  1
  C  1395  1  0.72814600  0.08854100  0.58494400  1
  C  1396  1  0.73691000  0.07434800  0.60520700  1
  C  1397  1  0.76241800  0.07612400  0.61236900  1
  C  1400  1  0.77900900  0.09170000  0.59840000  1
  C  1401  1  0.77198000  0.06146000  0.63406600  1
  C  1405  1  0.80560900  0.09448500  0.60611500  1
  C  1411  1  0.23252700  0.10473800  0.42496800  1
  C  1412  1  0.25778100  0.10333900  0.43179400  1
  C  1413  1  0.27449300  0.08880600  0.41809100  1
  C  1414  1  0.26644300  0.07529700  0.39707100  1
  C  1415  1  0.24115900  0.07725200  0.38917400  1
  C  1418  1  0.22407700  0.09231000  0.40311900  1
  C  1419  1  0.23231100  0.06328800  0.36672900  1
  C  1423  1  0.19764200  0.09510700  0.39485900  1
  C  1429  1  0.77068500  0.89791000  0.42528600  1
  C  1430  1  0.74543600  0.89944800  0.43211000  1
  C  1431  1  0.72880200  0.91406500  0.41840000  1
  C  1432  1  0.73692300  0.92752000  0.39737300  1
  C  1433  1  0.76219400  0.92542000  0.38947500  1
  C  1436  1  0.77919300  0.91026900  0.40342200  1
  C  1437  1  0.77112200  0.93932900  0.36702500  1
  C  1441  1  0.80560500  0.90729900  0.39514300  1
  C  1447  1  0.23312200  0.89811800  0.57712900  1
  C  1448  1  0.25857400  0.89916200  0.57104400  1
  C  1449  1  0.27494200  0.91402200  0.58480700  1
  C  1450  1  0.26630200  0.92823700  0.60510400  1
  C  1451  1  0.24080400  0.92662900  0.61232800  1
  C  1454  1  0.22407300  0.91122700  0.59834400  1
  C  1455  1  0.23139300  0.94130500  0.63408200  1
  C  1459  1  0.19744900  0.90865800  0.60605100  1
  C  1465  1  0.77036300  0.57760000  0.89765500  1
  C  1466  1  0.74509000  0.57089000  0.89925900  1
  C  1467  1  0.72856100  0.58464500  0.91395000  1
  C  1468  1  0.73682200  0.60559400  0.92744200  1
  C  1469  1  0.76213100  0.61336800  0.92530000  1
  C  1472  1  0.77901600  0.59938600  0.91005500  1
  C  1473  1  0.77120800  0.63572700  0.93925600  1
  C  1477  1  0.80545000  0.60756100  0.90701300  1
  C  1483  1  0.23282300  0.42503100  0.89812000  1
  C  1484  1  0.25808300  0.43181400  0.89964800  1
  C  1485  1  0.27470000  0.41808700  0.91426800  1
  C  1486  1  0.26654600  0.39708600  0.92774400  1
  C  1487  1  0.24126100  0.38922600  0.92565600  1
  C  1490  1  0.22428200  0.40318800  0.91049800  1
  C  1491  1  0.23230500  0.36680200  0.93958400  1
  C  1495  1  0.19786000  0.39494400  0.90753500  1
  C  1501  1  0.77043000  0.42464400  0.10518800  1
  C  1502  1  0.74512700  0.43123700  0.10359800  1
  C  1503  1  0.72870200  0.41748200  0.08879800  1
  C  1504  1  0.73710700  0.39665400  0.07520700  1
  C  1505  1  0.76244200  0.38897700  0.07737100  1
  C  1508  1  0.77922600  0.40296200  0.09271300  1
  C  1509  1  0.77167700  0.36673800  0.06331700  1
  C  1513  1  0.80570900  0.39493900  0.09574300  1
  C  1519  1  0.23212500  0.57734700  0.10471200  1
  C  1520  1  0.25745200  0.57084700  0.10305000  1
  C  1521  1  0.27380800  0.58467600  0.08823100  1
  C  1522  1  0.26530300  0.60545800  0.07463800  1
  C  1523  1  0.23994600  0.61303700  0.07684500  1
  C  1526  1  0.22324900  0.59901200  0.09225400  1
  C  1527  1  0.23062100  0.63523200  0.06279000  1
  C  1531  1  0.19677300  0.60701000  0.09539800  1
  C  1537  1  0.57689300  0.10476200  0.23329200  1
  C  1538  1  0.57086900  0.10337300  0.25874300  1
  C  1539  1  0.58482000  0.08849500  0.27494400  1
  C  1540  1  0.60526100  0.07458500  0.26614000  1
  C  1541  1  0.61240600  0.07653100  0.24064200  1
  C  1544  1  0.59824700  0.09198100  0.22409500  1
  C  1545  1  0.63429100  0.06217300  0.23103800  1
  C  1549  1  0.60595100  0.09496300  0.19751200  1
  C  1555  1  0.42465900  0.10518600  0.77049000  1
  C  1556  1  0.43125600  0.10360300  0.74518700  1
  C  1557  1  0.41750500  0.08880900  0.72875400  1
  C  1558  1  0.39667700  0.07521400  0.73715200  1
  C  1559  1  0.38899000  0.07737500  0.76248700  1
  C  1562  1  0.40297400  0.09271400  0.77927600  1
  C  1563  1  0.36675000  0.06332300  0.77171200  1
  C  1567  1  0.39494200  0.09574200  0.80575700  1
  C  1573  1  0.42501100  0.89813500  0.23277800  1
  C  1574  1  0.43181200  0.89963300  0.25803400  1
  C  1575  1  0.41810600  0.91424500  0.27467400  1
  C  1576  1  0.39710500  0.92774200  0.26654900  1
  C  1577  1  0.38922600  0.92568000  0.24126700  1
  C  1580  1  0.40316900  0.91053100  0.22426300  1
  C  1581  1  0.36680500  0.93963200  0.23233700  1
  C  1585  1  0.39491100  0.90760200  0.19784200  1
  C  1591  1  0.57764500  0.89790400  0.77115000  1
  C  1592  1  0.57106800  0.89946100  0.74583800  1
  C  1593  1  0.58477300  0.91432000  0.72941300  1
  C  1594  1  0.60550400  0.92804300  0.73783300  1
  C  1595  1  0.61318000  0.92591600  0.76316600  1
  C  1598  1  0.59927400  0.91048100  0.77993900  1
  C  1599  1  0.63534400  0.94008600  0.77238800  1
  C  1603  1  0.60735200  0.90744600  0.80640300  1
  C  1609  1  0.10509600  0.77069100  0.42457700  1
  C  1610  1  0.10369100  0.74533900  0.43103300  1
  C  1611  1  0.08876800  0.72894600  0.41737100  1
  C  1612  1  0.07482500  0.73745900  0.39682900  1
  C  1613  1  0.07680700  0.76283100  0.38925200  1
  C  1616  1  0.09230700  0.77957200  0.40311100  1
  C  1617  1  0.06241300  0.77212200  0.36726300  1
  C  1621  1  0.09517200  0.80609600  0.39517300  1
  C  1627  1  0.10483100  0.23329300  0.57688500  1
  C  1628  1  0.10347100  0.25875100  0.57088200  1
  C  1629  1  0.08859000  0.27494900  0.58483100  1
  C  1630  1  0.07466000  0.26614000  0.60525300  1
  C  1631  1  0.07659500  0.24064000  0.61239500  1
  C  1634  1  0.09204100  0.22409200  0.59823400  1
  C  1635  1  0.06222500  0.23103400  0.63427000  1
  C  1639  1  0.09500600  0.19750300  0.60592300  1
  C  1645  1  0.89787600  0.77070200  0.57758900  1
  C  1646  1  0.89940200  0.74544400  0.57079900  1
  C  1647  1  0.91399200  0.72881400  0.58454400  1
  C  1648  1  0.92743500  0.73695100  0.60557500  1
  C  1649  1  0.92534700  0.76223500  0.61343700  1
  C  1652  1  0.91022100  0.77922600  0.59945500  1
  C  1653  1  0.93924500  0.77118000  0.63588600  1
  C  1657  1  0.90726000  0.80565000  0.60770000  1
  C  1663  1  0.89818100  0.23292900  0.42492500  1
  C  1664  1  0.89972600  0.25818300  0.43172300  1
  C  1665  1  0.91436600  0.27479700  0.41801100  1
  C  1666  1  0.92785500  0.26664100  0.39701900  1
  C  1667  1  0.92576200  0.24135800  0.38915500  1
  C  1670  1  0.91058200  0.22438400  0.40309800  1
  C  1671  1  0.93971200  0.23239500  0.36674600  1
  C  1675  1  0.90761400  0.19796200  0.39484800  1
  N  8  1  0.26446200  0.39409000  0.99790700  1
  N  15  1  0.39432300  0.26440800  0.00517600  1
  N  17  1  0.34183900  0.36265000  0.96199200  1
  N  18  1  0.36273400  0.34178700  0.04094800  1
  N  42  1  0.73872200  0.60859700  0.99772400  1
  N  49  1  0.60778200  0.73727600  0.00500000  1
  N  51  1  0.66158500  0.64022300  0.96145200  1
  N  52  1  0.63961500  0.65988400  0.04008900  1
  N  76  1  0.73848800  0.39411400  0.00483900  1
  N  83  1  0.60749700  0.26555800  0.99752300  1
  N  85  1  0.66124300  0.36267100  0.04090200  1
  N  86  1  0.63933700  0.34293000  0.96237300  1
  N  110  1  0.26510200  0.60836800  0.00522900  1
  N  117  1  0.39451400  0.73857000  0.99784400  1
  N  119  1  0.34249200  0.63982900  0.04064000  1
  N  120  1  0.36263200  0.66139100  0.96189900  1
  N  144  1  0.99799200  0.26457700  0.39418900  1
  N  151  1  0.00529000  0.39430200  0.26435200  1
  N  153  1  0.96219800  0.34195800  0.36262600  1
  N  154  1  0.04120700  0.36281800  0.34170300  1
  N  178  1  0.99764600  0.73876100  0.60850600  1
  N  185  1  0.00496400  0.60785300  0.73722600  1
  N  187  1  0.96137200  0.66164800  0.64018600  1
  N  188  1  0.04003300  0.63967400  0.65982300  1
  N  212  1  0.00511900  0.73792400  0.39454200  1
  N  219  1  0.99768700  0.60746400  0.26540300  1
  N  221  1  0.04065200  0.66058600  0.36307600  1
  N  222  1  0.96236900  0.63949000  0.34263000  1
  N  246  1  0.00517300  0.26543900  0.60833600  1
  N  253  1  0.99768200  0.39461100  0.73876000  1
  N  255  1  0.04036300  0.34289600  0.63989600  1
  N  256  1  0.96167900  0.36278600  0.66158100  1
  N  280  1  0.39428700  0.99782500  0.26450400  1
  N  287  1  0.26446400  0.00528800  0.39422000  1
  N  289  1  0.36271500  0.96208700  0.34191000  1
  N  290  1  0.34186900  0.04107500  0.36271300  1
  N  314  1  0.60801100  0.99745300  0.73798500  1
  N  321  1  0.73741400  0.00495900  0.60770200  1
  N  323  1  0.63973200  0.96185000  0.66077200  1
  N  324  1  0.66018800  0.04024300  0.63974900  1
  N  348  1  0.39415300  0.00483500  0.73851200  1
  N  355  1  0.26559900  0.99754400  0.60751800  1
  N  357  1  0.36270200  0.04093400  0.66128500  1
  N  358  1  0.34298500  0.96240800  0.63934100  1
  N  382  1  0.60832200  0.00517200  0.26548500  1
  N  389  1  0.73879900  0.99767000  0.39460600  1
  N  391  1  0.63990100  0.04032800  0.34295000  1
  N  392  1  0.66163500  0.96162900  0.36279000  1
  N  416  1  0.76647000  0.89686900  0.49809200  1
  N  423  1  0.89695300  0.76648200  0.50476800  1
  N  425  1  0.84151100  0.86119200  0.46159100  1
  N  426  1  0.86117900  0.84148500  0.54122900  1
  N  450  1  0.23677500  0.10558500  0.49784800  1
  N  457  1  0.10584800  0.23545600  0.50554100  1
  N  459  1  0.16187300  0.14142700  0.46121100  1
  N  460  1  0.14191200  0.16010300  0.54074300  1
  N  484  1  0.23543000  0.89744300  0.50580500  1
  N  491  1  0.10615900  0.76600900  0.49743900  1
  N  493  1  0.16015500  0.86104400  0.54083400  1
  N  494  1  0.14173900  0.84125600  0.46129700  1
  N  518  1  0.76766500  0.10598900  0.50601000  1
  N  525  1  0.89729000  0.23713400  0.49773100  1
  N  527  1  0.84298600  0.14229900  0.54099800  1
  N  528  1  0.86147000  0.16212700  0.46131100  1
  N  552  1  0.49817600  0.76621900  0.89708200  1
  N  559  1  0.50481100  0.89661100  0.76660100  1
  N  561  1  0.46155100  0.84117400  0.86134900  1
  N  562  1  0.54115400  0.86094300  0.84171500  1
  N  586  1  0.49784300  0.23676600  0.10560000  1
  N  593  1  0.50557600  0.10580900  0.23544400  1
  N  595  1  0.46120900  0.16186900  0.14145600  1
  N  596  1  0.54075600  0.14190800  0.16010000  1
  N  620  1  0.50582000  0.23535000  0.89733800  1
  N  627  1  0.49756700  0.10594900  0.76602800  1
  N  629  1  0.54087200  0.16003400  0.86104700  1
  N  630  1  0.46132800  0.14162000  0.84118100  1
  N  654  1  0.50600000  0.76755700  0.10596800  1
  N  661  1  0.49780900  0.89729000  0.23701300  1
  N  663  1  0.54107400  0.84286500  0.14222100  1
  N  664  1  0.46140600  0.86142300  0.16201900  1
  N  688  1  0.89714700  0.49820000  0.76641100  1
  N  695  1  0.76642000  0.50480000  0.89654700  1
  N  697  1  0.86138400  0.46164600  0.84138400  1
  N  698  1  0.84150700  0.54127500  0.86104200  1
  N  722  1  0.10587500  0.49808300  0.23634700  1
  N  729  1  0.23658900  0.50438900  0.10616000  1
  N  731  1  0.14164400  0.46135200  0.16146700  1
  N  732  1  0.16146300  0.54093100  0.14160500  1
  N  756  1  0.89741500  0.50576000  0.23533300  1
  N  763  1  0.76597600  0.49757500  0.10605900  1
  N  765  1  0.86104400  0.54077500  0.16003700  1
  N  766  1  0.84113500  0.46125700  0.14163500  1
  N  790  1  0.10595300  0.50603200  0.76754200  1
  N  797  1  0.23704500  0.49783100  0.89723200  1
  N  799  1  0.14222700  0.54112300  0.84283200  1
  N  800  1  0.16202800  0.46143200  0.86140800  1
  N  833  1  0.44885500  0.22345500  0.88675200  1
  N  834  1  0.38754600  0.27199400  0.95071700  1
  N  851  1  0.55468400  0.77889100  0.88603200  1
  N  852  1  0.61549500  0.73047500  0.95049200  1
  N  869  1  0.55435500  0.22404300  0.11643900  1
  N  870  1  0.61525500  0.27240200  0.05207100  1
  N  887  1  0.44914200  0.77942500  0.11623000  1
  N  888  1  0.38785300  0.73090300  0.05235000  1
  N  905  1  0.88686200  0.44878500  0.22348100  1
  N  906  1  0.95085500  0.38749900  0.27202400  1
  N  923  1  0.88614900  0.55468800  0.77895800  1
  N  924  1  0.95045800  0.61556600  0.73045100  1
  N  941  1  0.11675300  0.55447200  0.22371600  1
  N  942  1  0.05226300  0.61505600  0.27228600  1
  N  959  1  0.11619500  0.44917300  0.77945700  1
  N  960  1  0.05219600  0.38793800  0.73103200  1
  N  977  1  0.22356500  0.88688200  0.44882400  1
  N  978  1  0.27208900  0.95083400  0.38747500  1
  N  995  1  0.77903300  0.88592000  0.55456500  1
  N  996  1  0.73051300  0.95041700  0.61520800  1
  N  1013  1  0.22405500  0.11642600  0.55436000  1
  N  1014  1  0.27243100  0.05208800  0.61527900  1
  N  1031  1  0.77951100  0.11621000  0.44913600  1
  N  1032  1  0.73104800  0.05218500  0.38795100  1
  N  1049  1  0.22374400  0.44785600  0.11694400  1
  N  1050  1  0.27206900  0.38703000  0.05239300  1
  N  1067  1  0.77877800  0.55418700  0.11651500  1
  N  1068  1  0.73077100  0.61536800  0.05221900  1
  N  1085  1  0.22434300  0.55439400  0.88665400  1
  N  1086  1  0.27242200  0.61578000  0.95070600  1
  N  1103  1  0.77910700  0.44832700  0.88611000  1
  N  1104  1  0.73069700  0.38734300  0.95028000  1
  N  1121  1  0.44835800  0.88606600  0.77910700  1
  N  1122  1  0.38740600  0.95027800  0.73070000  1
  N  1139  1  0.55436400  0.88672100  0.22438200  1
  N  1140  1  0.61581300  0.95065200  0.27256200  1
  N  1157  1  0.55416300  0.11629700  0.77876100  1
  N  1158  1  0.61521200  0.05200700  0.73059300  1
  N  1175  1  0.44860200  0.11642800  0.22338700  1
  N  1176  1  0.38749900  0.05229200  0.27203100  1
  N  1193  1  0.88673400  0.22443000  0.55429700  1
  N  1194  1  0.95066100  0.27255600  0.61581900  1
  N  1211  1  0.88633400  0.77898100  0.44833800  1
  N  1212  1  0.95053500  0.73055900  0.38741700  1
  N  1229  1  0.11642400  0.22339200  0.44857400  1
  N  1230  1  0.05245500  0.27211900  0.38741400  1
  N  1247  1  0.11652500  0.77878900  0.55409400  1
  N  1248  1  0.05215100  0.73079700  0.61524700  1
  N  1265  1  0.56225800  0.78356200  0.11880700  1
  N  1266  1  0.61779500  0.72097600  0.05975900  1
  N  1283  1  0.43954600  0.21801800  0.11849400  1
  N  1284  1  0.38450300  0.28254500  0.06115400  1
  N  1301  1  0.43991400  0.78482000  0.88429400  1
  N  1302  1  0.38466000  0.72067300  0.94188400  1
  N  1319  1  0.56210500  0.21900100  0.88426200  1
  N  1320  1  0.61764000  0.28204600  0.94270400  1
  N  1337  1  0.11878400  0.56228200  0.78349500  1
  N  1338  1  0.05971000  0.61784300  0.72094200  1
  N  1355  1  0.11864600  0.43980600  0.21779500  1
  N  1356  1  0.06122900  0.38462400  0.28217500  1
  N  1373  1  0.88427900  0.43994000  0.78511200  1
  N  1374  1  0.94165700  0.38476400  0.72072700  1
  N  1391  1  0.88429600  0.56205300  0.21893400  1
  N  1392  1  0.94282500  0.61767400  0.28181700  1
  N  1409  1  0.78372800  0.11886500  0.56225400  1
  N  1410  1  0.72122300  0.05976000  0.61781700  1
  N  1427  1  0.21799600  0.11849300  0.43953800  1
  N  1428  1  0.28258200  0.06126800  0.38444600  1
  N  1445  1  0.78513800  0.88408900  0.43987900  1
  N  1446  1  0.72087900  0.94166200  0.38474500  1
  N  1463  1  0.21907100  0.88430200  0.56209200  1
  N  1464  1  0.28210800  0.94272700  0.61765200  1
  N  1481  1  0.78466300  0.56297000  0.88371900  1
  N  1482  1  0.72087500  0.61826900  0.94164600  1
  N  1499  1  0.21839000  0.43964400  0.88429800  1
  N  1500  1  0.28259000  0.38444000  0.94186300  1
  N  1517  1  0.78468600  0.43936300  0.11904900  1
  N  1518  1  0.72135200  0.38403300  0.06075800  1
  N  1535  1  0.21795100  0.56259600  0.11865900  1
  N  1536  1  0.28105400  0.61813400  0.06016000  1
  N  1553  1  0.56174200  0.11866700  0.21943400  1
  N  1554  1  0.61804400  0.06009200  0.28177600  1
  N  1571  1  0.43938400  0.11903300  0.78475300  1
  N  1572  1  0.38405900  0.06076600  0.72139300  1
  N  1589  1  0.43960900  0.88432600  0.21832100  1
  N  1590  1  0.38448100  0.94186500  0.28260800  1
  N  1607  1  0.56297200  0.88397200  0.78541700  1
  N  1608  1  0.61802000  0.94259100  0.72202000  1
  N  1625  1  0.11902800  0.78491800  0.43925700  1
  N  1626  1  0.06019400  0.72167600  0.38440700  1
  N  1643  1  0.11871500  0.21942900  0.56172200  1
  N  1644  1  0.06014600  0.28177300  0.61801600  1
  N  1661  1  0.88407600  0.78514400  0.56296700  1
  N  1662  1  0.94154900  0.72091100  0.61823600  1
  N  1679  1  0.88435700  0.21849600  0.43953800  1
  N  1680  1  0.94200900  0.28267500  0.38439200  1
