# generated using pymatgen
data_H11C15N2
_symmetry_space_group_name_H-M   'P 1'
_cell_length_a   37.14210000
_cell_length_b   37.14210000
_cell_length_c   37.14210000
_cell_angle_alpha   90.00000000
_cell_angle_beta   90.00000000
_cell_angle_gamma   90.00000000
_symmetry_Int_Tables_number   1
_chemical_formula_structural   H11C15N2
_chemical_formula_sum   'H352 C480 N64'
_cell_volume   51238.84892685
_cell_formula_units_Z   32
loop_
 _symmetry_equiv_pos_site_id
 _symmetry_equiv_pos_as_xyz
  1  'x, y, z'
loop_
 _atom_site_type_symbol
 _atom_site_label
 _atom_site_symmetry_multiplicity
 _atom_site_fract_x
 _atom_site_fract_y
 _atom_site_fract_z
 _atom_site_occupancy
  H  7  1  0.94992000  0.99832400  0.03871100  1
  H  8  1  0.05593800  0.96998400  0.00896700  1
  H  9  1  0.00449000  0.91686100  0.09416200  1
  H  16  1  0.94627500  0.01256900  0.97924300  1
  H  17  1  0.00017900  0.09053500  0.91811500  1
  H  18  1  0.05765700  0.02929300  0.99303600  1
  H  23  1  0.08449000  0.08220800  0.96166700  1
  H  24  1  0.08295300  0.91579700  0.03945600  1
  H  25  1  0.93146700  0.96711100  0.10439600  1
  H  26  1  0.91309100  0.06134400  0.94770500  1
  H  33  1  0.55263200  0.00419700  0.53872900  1
  H  34  1  0.44662000  0.03255400  0.50898100  1
  H  35  1  0.49808000  0.08567800  0.59417300  1
  H  42  1  0.55626400  0.98998300  0.47924400  1
  H  43  1  0.50236600  0.91200100  0.41813800  1
  H  44  1  0.44489500  0.97323100  0.49307700  1
  H  49  1  0.41807000  0.92028300  0.46172200  1
  H  50  1  0.41961900  0.08675300  0.53946400  1
  H  51  1  0.57109100  0.03540900  0.60441400  1
  H  52  1  0.58944500  0.94118900  0.44771300  1
  H  59  1  0.25634200  0.69386600  0.28785400  1
  H  60  1  0.28427300  0.80015200  0.25851500  1
  H  61  1  0.33988400  0.74730600  0.34116800  1
  H  68  1  0.23878900  0.69072100  0.23000800  1
  H  69  1  0.16092200  0.74598400  0.17006600  1
  H  70  1  0.22578900  0.80278800  0.24233800  1
  H  75  1  0.17237900  0.83050900  0.21159700  1
  H  76  1  0.34034200  0.82601800  0.28815600  1
  H  77  1  0.28959900  0.67569200  0.35327900  1
  H  78  1  0.18824300  0.65855300  0.20122600  1
  H  85  1  0.24621600  0.30865300  0.78788300  1
  H  86  1  0.21828200  0.20238700  0.75847400  1
  H  87  1  0.16264300  0.25519200  0.84113300  1
  H  94  1  0.26376900  0.31183200  0.73002900  1
  H  95  1  0.34164200  0.25659100  0.67007300  1
  H  96  1  0.27677500  0.19976300  0.74232300  1
  H  101  1  0.33020200  0.17206500  0.71158900  1
  H  102  1  0.16221300  0.17649600  0.78809800  1
  H  103  1  0.21310800  0.32711400  0.85295200  1
  H  104  1  0.31444100  0.34398500  0.70132900  1
  H  111  1  0.74608900  0.30230700  0.71560900  1
  H  112  1  0.72093200  0.19486600  0.74289600  1
  H  113  1  0.66335300  0.24788400  0.66173000  1
  H  120  1  0.76303800  0.30371800  0.77488200  1
  H  121  1  0.84333500  0.24797300  0.83141100  1
  H  122  1  0.78089100  0.19337300  0.75537000  1
  H  127  1  0.83699200  0.16681400  0.78382000  1
  H  128  1  0.66584400  0.16782100  0.71341000  1
  H  129  1  0.71368400  0.32341200  0.65374100  1
  H  130  1  0.81168900  0.33609100  0.80670800  1
  H  137  1  0.75642300  0.70025500  0.21560100  1
  H  138  1  0.78164200  0.80767700  0.24289700  1
  H  139  1  0.83918900  0.75463200  0.16172200  1
  H  146  1  0.73949300  0.69884700  0.27488200  1
  H  147  1  0.65920400  0.75460800  0.33139800  1
  H  148  1  0.72168000  0.80919800  0.25537000  1
  H  153  1  0.66556600  0.83576400  0.28381300  1
  H  154  1  0.83673100  0.83470300  0.21340500  1
  H  155  1  0.78880700  0.67918100  0.15368200  1
  H  156  1  0.69075900  0.66649000  0.30665800  1
  H  163  1  0.44769200  0.48752000  0.52281700  1
  H  164  1  0.55981000  0.47523200  0.51031900  1
  H  165  1  0.50298500  0.40848000  0.58112300  1
  H  172  1  0.45132900  0.50469700  0.46453500  1
  H  173  1  0.50353400  0.59072100  0.41381700  1
  H  174  1  0.55614300  0.53485500  0.49644000  1
  H  179  1  0.58009700  0.59341600  0.46895600  1
  H  180  1  0.58847800  0.42225700  0.54071000  1
  H  181  1  0.41617500  0.43474200  0.54979700  1
  H  182  1  0.42735100  0.53578300  0.40728800  1
  H  189  1  0.05485000  0.51509000  0.02277800  1
  H  190  1  0.94272600  0.52734300  0.01029400  1
  H  191  1  0.99954600  0.59415100  0.08105100  1
  H  198  1  0.05121400  0.49789600  0.96450500  1
  H  199  1  0.99904000  0.41183800  0.91381800  1
  H  200  1  0.94640400  0.46772300  0.99641500  1
  H  205  1  0.92246900  0.40915100  0.96894700  1
  H  206  1  0.91403700  0.58029900  0.04068200  1
  H  207  1  0.08639200  0.56780900  0.04978300  1
  H  208  1  0.07515900  0.46679200  0.90720900  1
  H  214  1  0.89187000  0.86680400  0.06066700  1
  H  216  1  0.87420000  0.88198900  0.18911800  1
  H  217  1  0.91291900  0.92227500  0.15700800  1
  H  219  1  0.85228700  0.81723800  0.05706600  1
  H  220  1  0.81717900  0.81827400  0.08906000  1
  H  221  1  0.85556900  0.79071000  0.09637000  1
  H  229  1  0.61065500  0.13574600  0.56068500  1
  H  231  1  0.62841700  0.12050000  0.68911400  1
  H  232  1  0.58968500  0.08022100  0.65701500  1
  H  234  1  0.65024700  0.18530600  0.55707700  1
  H  235  1  0.68536600  0.18426600  0.58905700  1
  H  236  1  0.64697500  0.21182800  0.59638600  1
  H  244  1  0.38658600  0.63078900  0.30682200  1
  H  246  1  0.37785200  0.62185000  0.43668800  1
  H  247  1  0.33640300  0.65907200  0.40414800  1
  H  249  1  0.43680700  0.59180600  0.30382800  1
  H  250  1  0.43618500  0.55768000  0.33683100  1
  H  251  1  0.46399400  0.59617900  0.34256300  1
  H  259  1  0.11605400  0.37170500  0.80695300  1
  H  261  1  0.12469900  0.38067900  0.93681400  1
  H  262  1  0.16614100  0.34342500  0.90430900  1
  H  264  1  0.06587200  0.41071200  0.80389700  1
  H  265  1  0.06648200  0.44486200  0.83687100  1
  H  266  1  0.03866000  0.40637500  0.84261900  1
  H  274  1  0.62423800  0.88534100  0.43402800  1
  H  276  1  0.61095400  0.86604000  0.30570700  1
  H  277  1  0.57151400  0.90664100  0.33624100  1
  H  279  1  0.67311800  0.84497500  0.43896600  1
  H  280  1  0.70015000  0.84279700  0.39993700  1
  H  281  1  0.66772000  0.80874600  0.40865800  1
  H  289  1  0.87827900  0.11719000  0.93402700  1
  H  291  1  0.89161700  0.13657200  0.80572800  1
  H  292  1  0.93105800  0.09596100  0.83625900  1
  H  294  1  0.82938600  0.15754500  0.93896000  1
  H  295  1  0.80237100  0.15974000  0.89992000  1
  H  296  1  0.83479500  0.19378800  0.90867300  1
  H  304  1  0.12949800  0.62650300  0.19141600  1
  H  306  1  0.10957300  0.63287500  0.06267900  1
  H  307  1  0.15195000  0.67254500  0.09051700  1
  H  309  1  0.08712900  0.57951300  0.19936700  1
  H  310  1  0.08371100  0.55037600  0.16196200  1
  H  311  1  0.05100400  0.58458300  0.16886100  1
  H  319  1  0.37306200  0.37605600  0.69148300  1
  H  321  1  0.39298800  0.36975600  0.56272600  1
  H  322  1  0.35062100  0.33004900  0.59054300  1
  H  324  1  0.41541900  0.42305900  0.69944700  1
  H  325  1  0.41875400  0.45222300  0.66205500  1
  H  326  1  0.45154200  0.41808900  0.66892400  1
  H  334  1  0.12096600  0.13145200  0.94139600  1
  H  336  1  0.11332800  0.13955000  0.81135500  1
  H  337  1  0.07457400  0.09931000  0.84325200  1
  H  339  1  0.16750300  0.17443400  0.94528100  1
  H  340  1  0.19629000  0.17459300  0.90747300  1
  H  341  1  0.16224700  0.20788500  0.91192000  1
  H  349  1  0.38159700  0.87104500  0.44145100  1
  H  351  1  0.38920300  0.86297300  0.31140700  1
  H  352  1  0.42796500  0.90320800  0.34329800  1
  H  354  1  0.33504600  0.82807700  0.44533900  1
  H  355  1  0.30625900  0.82792700  0.40753000  1
  H  356  1  0.34029100  0.79462500  0.41198000  1
  H  364  1  0.60920200  0.35684100  0.69123800  1
  H  366  1  0.63231800  0.38055200  0.56501400  1
  H  367  1  0.67156500  0.34159700  0.59812800  1
  H  369  1  0.55832100  0.39488400  0.69311700  1
  H  370  1  0.56061000  0.43146500  0.66288500  1
  H  371  1  0.53460700  0.39284600  0.65196700  1
  H  379  1  0.89325400  0.64565300  0.19121700  1
  H  381  1  0.87023200  0.62205800  0.06495900  1
  H  382  1  0.83093700  0.66094300  0.09809700  1
  H  384  1  0.94418300  0.60768600  0.19308100  1
  H  385  1  0.94194600  0.57111800  0.16282900  1
  H  386  1  0.96790500  0.60977500  0.15193900  1
  H  394  1  0.37901200  0.13350500  0.56047000  1
  H  396  1  0.38397200  0.14054600  0.69070200  1
  H  397  1  0.42256400  0.09984400  0.65939000  1
  H  399  1  0.33328300  0.17751400  0.55605200  1
  H  400  1  0.30366400  0.17764500  0.59322200  1
  H  401  1  0.33823100  0.21052700  0.58990000  1
  H  409  1  0.12356200  0.86905000  0.06047200  1
  H  411  1  0.11859900  0.86202300  0.19070400  1
  H  412  1  0.08000600  0.90272300  0.15938400  1
  H  414  1  0.16929000  0.82503500  0.05606300  1
  H  415  1  0.19890800  0.82490600  0.09323500  1
  H  416  1  0.16433400  0.79202900  0.08992000  1
  H  424  1  0.86770900  0.37076300  0.81865900  1
  H  426  1  0.89016100  0.35618100  0.94634200  1
  H  427  1  0.85025400  0.31580100  0.91598800  1
  H  429  1  0.90626600  0.42100200  0.81362200  1
  H  430  1  0.90836600  0.44750100  0.85301400  1
  H  431  1  0.94331300  0.41640700  0.84305800  1
  H  439  1  0.63479800  0.63182500  0.31863600  1
  H  441  1  0.61242700  0.64636400  0.44635100  1
  H  442  1  0.65232000  0.68676000  0.41598700  1
  H  444  1  0.59623000  0.58158600  0.31361500  1
  H  445  1  0.59420500  0.55507400  0.35300400  1
  H  446  1  0.55920700  0.58612500  0.34308800  1
  H  455  1  0.94992000  0.99832400  0.30794700  1
  H  456  1  0.05593800  0.96998400  0.27820300  1
  H  457  1  0.00449000  0.91686100  0.36339800  1
  H  464  1  0.94627500  0.01256900  0.24847900  1
  H  465  1  0.00017900  0.09053500  0.18735100  1
  H  466  1  0.05765700  0.02929300  0.26227200  1
  H  471  1  0.08449000  0.08220800  0.23090300  1
  H  472  1  0.08295300  0.91579700  0.30869200  1
  H  473  1  0.93146700  0.96711100  0.37363200  1
  H  474  1  0.91309100  0.06134400  0.21694100  1
  H  481  1  0.55263200  0.00419700  0.80796500  1
  H  482  1  0.44662000  0.03255400  0.77821700  1
  H  483  1  0.49808000  0.08567800  0.86340900  1
  H  490  1  0.55626400  0.98998300  0.74848000  1
  H  491  1  0.50236600  0.91200100  0.68737400  1
  H  492  1  0.44489500  0.97323100  0.76231300  1
  H  497  1  0.41807000  0.92028300  0.73095800  1
  H  498  1  0.41961900  0.08675300  0.80870000  1
  H  499  1  0.57109100  0.03540900  0.87365000  1
  H  500  1  0.58944500  0.94118900  0.71694900  1
  H  507  1  0.25634200  0.69386600  0.55709000  1
  H  508  1  0.28427300  0.80015200  0.52775100  1
  H  509  1  0.33988400  0.74730600  0.61040400  1
  H  516  1  0.23878900  0.69072100  0.49924400  1
  H  517  1  0.16092200  0.74598400  0.43930200  1
  H  518  1  0.22578900  0.80278800  0.51157400  1
  H  523  1  0.17237900  0.83050900  0.48083300  1
  H  524  1  0.34034200  0.82601800  0.55739200  1
  H  525  1  0.28959900  0.67569200  0.62251500  1
  H  526  1  0.18824300  0.65855300  0.47046200  1
  H  533  1  0.24621600  0.30865300  0.05711930  1
  H  534  1  0.21828200  0.20238700  0.02771030  1
  H  535  1  0.16264300  0.25519200  0.11036900  1
  H  542  1  0.26376900  0.31183200  0.99926500  1
  H  543  1  0.34164200  0.25659100  0.93930900  1
  H  544  1  0.27677500  0.19976300  0.01155930  1
  H  549  1  0.33020200  0.17206500  0.98082500  1
  H  550  1  0.16221300  0.17649600  0.05733430  1
  H  551  1  0.21310800  0.32711400  0.12218800  1
  H  552  1  0.31444100  0.34398500  0.97056500  1
  H  559  1  0.74608900  0.30230700  0.98484500  1
  H  560  1  0.72093200  0.19486600  0.01213230  1
  H  561  1  0.66335300  0.24788400  0.93096600  1
  H  568  1  0.76303800  0.30371800  0.04411830  1
  H  569  1  0.84333500  0.24797300  0.10064700  1
  H  570  1  0.78089100  0.19337300  0.02460630  1
  H  575  1  0.83699200  0.16681400  0.05305630  1
  H  576  1  0.66584400  0.16782100  0.98264600  1
  H  577  1  0.71368400  0.32341200  0.92297700  1
  H  578  1  0.81168900  0.33609100  0.07594430  1
  H  585  1  0.75642300  0.70025500  0.48483700  1
  H  586  1  0.78164200  0.80767700  0.51213300  1
  H  587  1  0.83918900  0.75463200  0.43095800  1
  H  594  1  0.73949300  0.69884700  0.54411800  1
  H  595  1  0.65920400  0.75460800  0.60063400  1
  H  596  1  0.72168000  0.80919800  0.52460600  1
  H  601  1  0.66556600  0.83576400  0.55304900  1
  H  602  1  0.83673100  0.83470300  0.48264100  1
  H  603  1  0.78880700  0.67918100  0.42291800  1
  H  604  1  0.69075900  0.66649000  0.57589400  1
  H  611  1  0.44769200  0.48752000  0.79205300  1
  H  612  1  0.55981000  0.47523200  0.77955500  1
  H  613  1  0.50298500  0.40848000  0.85035900  1
  H  620  1  0.45132900  0.50469700  0.73377100  1
  H  621  1  0.50353400  0.59072100  0.68305300  1
  H  622  1  0.55614300  0.53485500  0.76567600  1
  H  627  1  0.58009700  0.59341600  0.73819200  1
  H  628  1  0.58847800  0.42225700  0.80994600  1
  H  629  1  0.41617500  0.43474200  0.81903300  1
  H  630  1  0.42735100  0.53578300  0.67652400  1
  H  637  1  0.05485000  0.51509000  0.29201400  1
  H  638  1  0.94272600  0.52734300  0.27953000  1
  H  639  1  0.99954600  0.59415100  0.35028700  1
  H  646  1  0.05121400  0.49789600  0.23374100  1
  H  647  1  0.99904000  0.41183800  0.18305400  1
  H  648  1  0.94640400  0.46772300  0.26565100  1
  H  653  1  0.92246900  0.40915100  0.23818300  1
  H  654  1  0.91403700  0.58029900  0.30991800  1
  H  655  1  0.08639200  0.56780900  0.31901900  1
  H  656  1  0.07515900  0.46679200  0.17644500  1
  H  662  1  0.89187000  0.86680400  0.32990300  1
  H  664  1  0.87420000  0.88198900  0.45835400  1
  H  665  1  0.91291900  0.92227500  0.42624400  1
  H  667  1  0.85228700  0.81723800  0.32630200  1
  H  668  1  0.81717900  0.81827400  0.35829600  1
  H  669  1  0.85556900  0.79071000  0.36560600  1
  H  677  1  0.61065500  0.13574600  0.82992100  1
  H  679  1  0.62841700  0.12050000  0.95835000  1
  H  680  1  0.58968500  0.08022100  0.92625100  1
  H  682  1  0.65024700  0.18530600  0.82631300  1
  H  683  1  0.68536600  0.18426600  0.85829300  1
  H  684  1  0.64697500  0.21182800  0.86562200  1
  H  692  1  0.38658600  0.63078900  0.57605800  1
  H  694  1  0.37785200  0.62185000  0.70592400  1
  H  695  1  0.33640300  0.65907200  0.67338400  1
  H  697  1  0.43680700  0.59180600  0.57306400  1
  H  698  1  0.43618500  0.55768000  0.60606700  1
  H  699  1  0.46399400  0.59617900  0.61179900  1
  H  707  1  0.11605400  0.37170500  0.07618930  1
  H  709  1  0.12469900  0.38067900  0.20605000  1
  H  710  1  0.16614100  0.34342500  0.17354500  1
  H  712  1  0.06587200  0.41071200  0.07313330  1
  H  713  1  0.06648200  0.44486200  0.10610700  1
  H  714  1  0.03866000  0.40637500  0.11185500  1
  H  722  1  0.62423800  0.88534100  0.70326400  1
  H  724  1  0.61095400  0.86604000  0.57494300  1
  H  725  1  0.57151400  0.90664100  0.60547700  1
  H  727  1  0.67311800  0.84497500  0.70820200  1
  H  728  1  0.70015000  0.84279700  0.66917300  1
  H  729  1  0.66772000  0.80874600  0.67789400  1
  H  737  1  0.87827900  0.11719000  0.20326300  1
  H  739  1  0.89161700  0.13657200  0.07496430  1
  H  740  1  0.93105800  0.09596100  0.10549500  1
  H  742  1  0.82938600  0.15754500  0.20819600  1
  H  743  1  0.80237100  0.15974000  0.16915600  1
  H  744  1  0.83479500  0.19378800  0.17790900  1
  H  752  1  0.12949800  0.62650300  0.46065200  1
  H  754  1  0.10957300  0.63287500  0.33191500  1
  H  755  1  0.15195000  0.67254500  0.35975300  1
  H  757  1  0.08712900  0.57951300  0.46860300  1
  H  758  1  0.08371100  0.55037600  0.43119800  1
  H  759  1  0.05100400  0.58458300  0.43809700  1
  H  767  1  0.37306200  0.37605600  0.96071900  1
  H  769  1  0.39298800  0.36975600  0.83196200  1
  H  770  1  0.35062100  0.33004900  0.85977900  1
  H  772  1  0.41541900  0.42305900  0.96868300  1
  H  773  1  0.41875400  0.45222300  0.93129100  1
  H  774  1  0.45154200  0.41808900  0.93816000  1
  H  782  1  0.12096600  0.13145200  0.21063200  1
  H  784  1  0.11332800  0.13955000  0.08059130  1
  H  785  1  0.07457400  0.09931000  0.11248800  1
  H  787  1  0.16750300  0.17443400  0.21451700  1
  H  788  1  0.19629000  0.17459300  0.17670900  1
  H  789  1  0.16224700  0.20788500  0.18115600  1
  H  797  1  0.38159700  0.87104500  0.71068700  1
  H  799  1  0.38920300  0.86297300  0.58064300  1
  H  800  1  0.42796500  0.90320800  0.61253400  1
  H  802  1  0.33504600  0.82807700  0.71457500  1
  H  803  1  0.30625900  0.82792700  0.67676600  1
  H  804  1  0.34029100  0.79462500  0.68121600  1
  H  812  1  0.60920200  0.35684100  0.96047400  1
  H  814  1  0.63231800  0.38055200  0.83425000  1
  H  815  1  0.67156500  0.34159700  0.86736400  1
  H  817  1  0.55832100  0.39488400  0.96235300  1
  H  818  1  0.56061000  0.43146500  0.93212100  1
  H  819  1  0.53460700  0.39284600  0.92120300  1
  H  827  1  0.89325400  0.64565300  0.46045300  1
  H  829  1  0.87023200  0.62205800  0.33419500  1
  H  830  1  0.83093700  0.66094300  0.36733300  1
  H  832  1  0.94418300  0.60768600  0.46231700  1
  H  833  1  0.94194600  0.57111800  0.43206500  1
  H  834  1  0.96790500  0.60977500  0.42117500  1
  H  842  1  0.37901200  0.13350500  0.82970600  1
  H  844  1  0.38397200  0.14054600  0.95993800  1
  H  845  1  0.42256400  0.09984400  0.92862600  1
  H  847  1  0.33328300  0.17751400  0.82528800  1
  H  848  1  0.30366400  0.17764500  0.86245800  1
  H  849  1  0.33823100  0.21052700  0.85913600  1
  H  857  1  0.12356200  0.86905000  0.32970800  1
  H  859  1  0.11859900  0.86202300  0.45994000  1
  H  860  1  0.08000600  0.90272300  0.42862000  1
  H  862  1  0.16929000  0.82503500  0.32529900  1
  H  863  1  0.19890800  0.82490600  0.36247100  1
  H  864  1  0.16433400  0.79202900  0.35915600  1
  H  872  1  0.86770900  0.37076300  0.08789530  1
  H  874  1  0.89016100  0.35618100  0.21557800  1
  H  875  1  0.85025400  0.31580100  0.18522400  1
  H  877  1  0.90626600  0.42100200  0.08285830  1
  H  878  1  0.90836600  0.44750100  0.12225000  1
  H  879  1  0.94331300  0.41640700  0.11229400  1
  H  887  1  0.63479800  0.63182500  0.58787200  1
  H  889  1  0.61242700  0.64636400  0.71558700  1
  H  890  1  0.65232000  0.68676000  0.68522300  1
  H  892  1  0.59623000  0.58158600  0.58285100  1
  H  893  1  0.59420500  0.55507400  0.62224000  1
  H  894  1  0.55920700  0.58612500  0.61232400  1
  C  1  1  0.00289800  0.98898400  0.01890900  1
  C  2  1  0.97265500  0.98306600  0.04165400  1
  C  3  1  0.97265700  0.95618800  0.06851600  1
  C  4  1  0.00437000  0.93620000  0.07443300  1
  C  5  1  0.03560900  0.94180300  0.05349600  1
  C  6  1  0.03390800  0.96736400  0.02528500  1
  C  10  1  0.00218300  0.01580200  0.99062400  1
  C  11  1  0.96969800  0.02554700  0.97282700  1
  C  12  1  0.96819900  0.05292900  0.94636100  1
  C  13  1  0.00077400  0.06994600  0.93647200  1
  C  14  1  0.03399100  0.06063700  0.95247000  1
  C  15  1  0.03392200  0.03435700  0.98000800  1
  C  19  1  0.06548900  0.07866300  0.94316000  1
  C  20  1  0.06665800  0.92174200  0.05982100  1
  C  21  1  0.94225300  0.94845600  0.08853500  1
  C  22  1  0.93520400  0.06504000  0.93305000  1
  C  27  1  0.49965700  0.01354700  0.51892900  1
  C  28  1  0.52989800  0.01945500  0.54167700  1
  C  29  1  0.52990300  0.04633700  0.56853300  1
  C  30  1  0.49819500  0.06633600  0.57444600  1
  C  31  1  0.46695600  0.06074100  0.55350700  1
  C  32  1  0.46864900  0.03517300  0.52530200  1
  C  36  1  0.50036500  0.98672500  0.49064900  1
  C  37  1  0.53284300  0.97699500  0.47283600  1
  C  38  1  0.53434300  0.94962700  0.44635400  1
  C  39  1  0.50177100  0.93257600  0.43651100  1
  C  40  1  0.46855800  0.94187800  0.45251700  1
  C  41  1  0.46862500  0.96816700  0.48004600  1
  C  45  1  0.43706200  0.92384700  0.44320900  1
  C  46  1  0.43591300  0.08080700  0.55982900  1
  C  47  1  0.56031100  0.05406500  0.58855100  1
  C  48  1  0.56733800  0.93750900  0.43304800  1
  C  53  1  0.26533100  0.74699400  0.26815800  1
  C  54  1  0.27191500  0.71642200  0.29034500  1
  C  55  1  0.29980600  0.71582200  0.31616700  1
  C  56  1  0.32004700  0.74739000  0.32193400  1
  C  57  1  0.31366900  0.77895000  0.30173600  1
  C  58  1  0.28730200  0.77779500  0.27429000  1
  C  62  1  0.23759000  0.74685100  0.24069200  1
  C  63  1  0.22634400  0.71444600  0.22368000  1
  C  64  1  0.19813000  0.71333100  0.19811200  1
  C  65  1  0.18195100  0.74623800  0.18793200  1
  C  66  1  0.19282400  0.77941600  0.20297500  1
  C  67  1  0.21971400  0.77897100  0.22993400  1
  C  71  1  0.17574900  0.81131500  0.19324700  1
  C  72  1  0.33333333  0.81004900  0.30844800  1
  C  73  1  0.30763800  0.68530700  0.33601000  1
  C  74  1  0.18453700  0.68042000  0.18619200  1
  C  79  1  0.23722200  0.25554100  0.76815100  1
  C  80  1  0.23063400  0.28609900  0.79035200  1
  C  81  1  0.20273400  0.28669100  0.81616400  1
  C  82  1  0.18248400  0.25512300  0.82189800  1
  C  83  1  0.18886900  0.22357200  0.80169200  1
  C  84  1  0.21524500  0.22473800  0.77425700  1
  C  88  1  0.26497200  0.25569800  0.74069400  1
  C  89  1  0.27621800  0.28811000  0.72369400  1
  C  90  1  0.30444200  0.28923500  0.69814100  1
  C  91  1  0.32061500  0.25633200  0.68793700  1
  C  92  1  0.30973000  0.22314600  0.70295500  1
  C  93  1  0.28284600  0.22358100  0.72992200  1
  C  97  1  0.32682400  0.19125400  0.69323600  1
  C  98  1  0.16919300  0.19246400  0.80839300  1
  C  99  1  0.19490100  0.31719000  0.83603600  1
  C  100  1  0.31801400  0.32215500  0.68621100  1
  C  105  1  0.73848400  0.24857600  0.73396300  1
  C  106  1  0.73095800  0.27949200  0.71260500  1
  C  107  1  0.70285300  0.27996300  0.68694400  1
  C  108  1  0.68327100  0.24798800  0.68086400  1
  C  109  1  0.69045200  0.21621200  0.70047500  1
  C  110  1  0.71711200  0.21744600  0.72759000  1
  C  114  1  0.76663800  0.24847600  0.76089700  1
  C  115  1  0.77654800  0.28022900  0.77982200  1
  C  116  1  0.80467800  0.28084100  0.80554800  1
  C  117  1  0.82235300  0.24806300  0.81348700  1
  C  118  1  0.81304600  0.21558000  0.79607900  1
  C  119  1  0.78604700  0.21657200  0.76929800  1
  C  123  1  0.83142700  0.18388600  0.80367100  1
  C  124  1  0.67162900  0.18463200  0.69343200  1
  C  125  1  0.69452300  0.31065600  0.66739200  1
  C  126  1  0.81660500  0.31337800  0.82003800  1
  C  131  1  0.76406100  0.75397800  0.23396000  1
  C  132  1  0.77156700  0.72306200  0.21259900  1
  C  133  1  0.79967000  0.72257700  0.18693600  1
  C  134  1  0.81927300  0.75453800  0.18085700  1
  C  135  1  0.81211200  0.78631600  0.20047400  1
  C  136  1  0.78545200  0.78509600  0.22759000  1
  C  140  1  0.73591000  0.75408800  0.26089500  1
  C  141  1  0.72598800  0.72233700  0.27982000  1
  C  142  1  0.69786900  0.72173400  0.30555900  1
  C  143  1  0.68018000  0.75451100  0.31346400  1
  C  144  1  0.68950400  0.78699500  0.29606300  1
  C  145  1  0.71651100  0.78599800  0.26929300  1
  C  149  1  0.67113100  0.81869200  0.30366100  1
  C  150  1  0.83094200  0.81789200  0.19342800  1
  C  151  1  0.80797300  0.69187900  0.16738000  1
  C  152  1  0.68591500  0.68919700  0.32002000  1
  C  157  1  0.50380600  0.48652400  0.51208800  1
  C  158  1  0.47143300  0.47493300  0.52885100  1
  C  159  1  0.47044800  0.44628600  0.55388100  1
  C  160  1  0.50332700  0.42982800  0.56364100  1
  C  161  1  0.53653700  0.44106300  0.54882000  1
  C  162  1  0.53601500  0.46860100  0.52249100  1
  C  166  1  0.50373300  0.51482300  0.48528000  1
  C  167  1  0.47340400  0.52105600  0.46269900  1
  C  168  1  0.47233500  0.54945800  0.43739600  1
  C  169  1  0.50357500  0.57060400  0.43273900  1
  C  170  1  0.53486500  0.56472900  0.45351000  1
  C  171  1  0.53400600  0.53772200  0.48031000  1
  C  175  1  0.56546400  0.58548700  0.44800400  1
  C  176  1  0.56866300  0.42428400  0.55856100  1
  C  177  1  0.43759300  0.43277100  0.56580300  1
  C  178  1  0.44164200  0.55621000  0.41708800  1
  C  183  1  0.99873300  0.51607300  0.01205000  1
  C  184  1  0.03110700  0.52767900  0.02880300  1
  C  185  1  0.03209100  0.55634800  0.05380400  1
  C  186  1  0.99920900  0.57280600  0.06356500  1
  C  187  1  0.96599900  0.56154400  0.04876300  1
  C  188  1  0.96652400  0.53398800  0.02245400  1
  C  192  1  0.99881100  0.48776200  0.98525500  1
  C  193  1  0.02914500  0.48153200  0.96267400  1
  C  194  1  0.03022200  0.45312200  0.93738200  1
  C  195  1  0.99899100  0.43196300  0.93273000  1
  C  196  1  0.96769300  0.43784100  0.95349600  1
  C  197  1  0.96854600  0.46485300  0.98028800  1
  C  201  1  0.93709900  0.41707400  0.94799500  1
  C  202  1  0.93386800  0.57830400  0.05851700  1
  C  203  1  0.06494000  0.56987400  0.06573100  1
  C  204  1  0.06092400  0.44636500  0.91709500  1
  C  209  1  0.90451900  0.89884300  0.10564100  1
  C  210  1  0.88688900  0.87056600  0.08754100  1
  C  211  1  0.86388300  0.84646100  0.10598900  1
  C  212  1  0.85909600  0.85052600  0.14375800  1
  C  213  1  0.87639500  0.87925100  0.16182300  1
  C  215  1  0.89895400  0.90312700  0.14297000  1
  C  218  1  0.84634200  0.81655100  0.08585300  1
  C  224  1  0.59805000  0.10367500  0.60565000  1
  C  225  1  0.61565500  0.13197200  0.58755500  1
  C  226  1  0.63866900  0.15607200  0.60599800  1
  C  227  1  0.64347000  0.15199900  0.64376300  1
  C  228  1  0.62615500  0.12328600  0.66182900  1
  C  230  1  0.60366100  0.09935600  0.64296900  1
  C  233  1  0.65619900  0.18598700  0.58586100  1
  C  239  1  0.35665000  0.64654700  0.35226100  1
  C  240  1  0.38370200  0.62713800  0.33400900  1
  C  241  1  0.40841300  0.60493700  0.35274300  1
  C  242  1  0.40569100  0.60231200  0.39084000  1
  C  243  1  0.37865400  0.62175600  0.40912900  1
  C  245  1  0.35415100  0.64341300  0.39005100  1
  C  248  1  0.43795100  0.58672300  0.33276300  1
  C  254  1  0.14601700  0.35600900  0.85240300  1
  C  255  1  0.11893800  0.37538000  0.83414100  1
  C  256  1  0.09423200  0.39761700  0.85284200  1
  C  257  1  0.09692700  0.40025200  0.89094100  1
  C  258  1  0.12393100  0.38078900  0.90925500  1
  C  260  1  0.14843600  0.35911600  0.89019800  1
  C  263  1  0.06471100  0.41582000  0.83282700  1
  C  269  1  0.59562100  0.90104300  0.38759800  1
  C  270  1  0.62288100  0.88256500  0.40665500  1
  C  271  1  0.64617300  0.85795500  0.38913600  1
  C  272  1  0.64242800  0.85223600  0.35145900  1
  C  273  1  0.61537800  0.87109100  0.33241000  1
  C  275  1  0.59208600  0.89490200  0.35035500  1
  C  278  1  0.67323700  0.83755700  0.41051600  1
  C  284  1  0.90691500  0.10151400  0.88760000  1
  C  285  1  0.87964400  0.11997500  0.90665400  1
  C  286  1  0.85635500  0.14459000  0.88913800  1
  C  287  1  0.86011700  0.15032800  0.85146600  1
  C  288  1  0.88716700  0.13147200  0.83241500  1
  C  290  1  0.91045600  0.10765900  0.85036200  1
  C  293  1  0.82928100  0.16497600  0.91051500  1
  C  299  1  0.14592600  0.65164400  0.14322400  1
  C  300  1  0.12660200  0.62628200  0.16402200  1
  C  301  1  0.10095200  0.60297900  0.14809000  1
  C  302  1  0.09526800  0.60462400  0.11030300  1
  C  303  1  0.11487900  0.62981200  0.08954400  1
  C  305  1  0.13969200  0.65320600  0.10587800  1
  C  308  1  0.07958000  0.57803700  0.17099100  1
  C  314  1  0.35672200  0.35087700  0.64327300  1
  C  315  1  0.37604000  0.37621800  0.66409600  1
  C  316  1  0.40162800  0.39958700  0.64816300  1
  C  317  1  0.40730400  0.39796900  0.61037300  1
  C  318  1  0.38770600  0.37277700  0.58960100  1
  C  320  1  0.36292500  0.34934200  0.60592500  1
  C  323  1  0.42295200  0.42456700  0.67106900  1
  C  329  1  0.09517500  0.11088100  0.89516800  1
  C  330  1  0.12045200  0.13227800  0.91388600  1
  C  331  1  0.14348400  0.15645000  0.89548300  1
  C  332  1  0.14131400  0.15895800  0.85733800  1
  C  333  1  0.11635600  0.13716700  0.83861300  1
  C  335  1  0.09343500  0.11363000  0.85737800  1
  C  338  1  0.16872000  0.17956000  0.91635700  1
  C  344  1  0.40737600  0.89162500  0.39522000  1
  C  345  1  0.38210900  0.87022100  0.41394000  1
  C  346  1  0.35907300  0.84604900  0.39554100  1
  C  347  1  0.36124000  0.84354000  0.35739500  1
  C  348  1  0.38622800  0.86530200  0.33867300  1
  C  350  1  0.40910500  0.88889300  0.35743000  1
  C  353  1  0.33382600  0.82295100  0.41641200  1
  C  359  1  0.64457900  0.34703800  0.64810400  1
  C  360  1  0.61460200  0.36309800  0.66491700  1
  C  361  1  0.59109000  0.38626600  0.64586100  1
  C  362  1  0.59752500  0.39297500  0.60871200  1
  C  363  1  0.62786000  0.37713800  0.59195700  1
  C  365  1  0.65115700  0.35445300  0.61142800  1
  C  368  1  0.55943300  0.40215100  0.66464800  1
  C  374  1  0.85784400  0.65542700  0.14810100  1
  C  375  1  0.88786700  0.63941800  0.16489000  1
  C  376  1  0.91141400  0.61629100  0.14582300  1
  C  377  1  0.90499800  0.60960000  0.10866800  1
  C  378  1  0.87466900  0.62544200  0.09190800  1
  C  380  1  0.85136900  0.64811400  0.11138700  1
  C  383  1  0.94308700  0.60043200  0.16460900  1
  C  389  1  0.40347800  0.11231100  0.60709600  1
  C  390  1  0.37895600  0.13422300  0.58798800  1
  C  391  1  0.35593900  0.15867400  0.60613000  1
  C  392  1  0.35714200  0.16074600  0.64436100  1
  C  393  1  0.38144100  0.13844100  0.66336700  1
  C  395  1  0.40431300  0.11462700  0.64493500  1
  C  398  1  0.33148400  0.18234500  0.58499700  1
  C  404  1  0.09910100  0.89025800  0.10709400  1
  C  405  1  0.12362200  0.86834200  0.08799200  1
  C  406  1  0.14663800  0.84389000  0.10613700  1
  C  407  1  0.14543400  0.84182700  0.14436900  1
  C  408  1  0.12114700  0.86415000  0.16337200  1
  C  410  1  0.09827900  0.88796100  0.14493500  1
  C  413  1  0.17108700  0.82021000  0.08501100  1
  C  419  1  0.85398300  0.34088300  0.86493000  1
  C  420  1  0.87115300  0.36902400  0.84593600  1
  C  421  1  0.89531100  0.39286200  0.86329900  1
  C  422  1  0.90196900  0.38868900  0.90076900  1
  C  423  1  0.88444700  0.36075500  0.91980400  1
  C  425  1  0.86105100  0.33694400  0.90196900  1
  C  428  1  0.91429200  0.42094600  0.84190800  1
  C  434  1  0.64848300  0.66173000  0.36491000  1
  C  435  1  0.63130000  0.63360800  0.34590200  1
  C  436  1  0.60719800  0.60972900  0.36328600  1
  C  437  1  0.60057000  0.61388900  0.40076400  1
  C  438  1  0.61810800  0.64181700  0.41979900  1
  C  440  1  0.64149100  0.66563600  0.40196500  1
  C  443  1  0.58823100  0.58162400  0.34190900  1
  C  449  1  0.00289800  0.98898400  0.28814500  1
  C  450  1  0.97265500  0.98306600  0.31089000  1
  C  451  1  0.97265700  0.95618800  0.33775200  1
  C  452  1  0.00437000  0.93620000  0.34366900  1
  C  453  1  0.03560900  0.94180300  0.32273200  1
  C  454  1  0.03390800  0.96736400  0.29452100  1
  C  458  1  0.00218300  0.01580200  0.25986000  1
  C  459  1  0.96969800  0.02554700  0.24206300  1
  C  460  1  0.96819900  0.05292900  0.21559700  1
  C  461  1  0.00077400  0.06994600  0.20570800  1
  C  462  1  0.03399100  0.06063700  0.22170600  1
  C  463  1  0.03392200  0.03435700  0.24924400  1
  C  467  1  0.06548900  0.07866300  0.21239600  1
  C  468  1  0.06665800  0.92174200  0.32905700  1
  C  469  1  0.94225300  0.94845600  0.35777100  1
  C  470  1  0.93520400  0.06504000  0.20228600  1
  C  475  1  0.49965700  0.01354700  0.78816500  1
  C  476  1  0.52989800  0.01945500  0.81091300  1
  C  477  1  0.52990300  0.04633700  0.83776900  1
  C  478  1  0.49819500  0.06633600  0.84368200  1
  C  479  1  0.46695600  0.06074100  0.82274300  1
  C  480  1  0.46864900  0.03517300  0.79453800  1
  C  484  1  0.50036500  0.98672500  0.75988500  1
  C  485  1  0.53284300  0.97699500  0.74207200  1
  C  486  1  0.53434300  0.94962700  0.71559000  1
  C  487  1  0.50177100  0.93257600  0.70574700  1
  C  488  1  0.46855800  0.94187800  0.72175300  1
  C  489  1  0.46862500  0.96816700  0.74928200  1
  C  493  1  0.43706200  0.92384700  0.71244500  1
  C  494  1  0.43591300  0.08080700  0.82906500  1
  C  495  1  0.56031100  0.05406500  0.85778700  1
  C  496  1  0.56733800  0.93750900  0.70228400  1
  C  501  1  0.26533100  0.74699400  0.53739400  1
  C  502  1  0.27191500  0.71642200  0.55958100  1
  C  503  1  0.29980600  0.71582200  0.58540300  1
  C  504  1  0.32004700  0.74739000  0.59117000  1
  C  505  1  0.31366900  0.77895000  0.57097200  1
  C  506  1  0.28730200  0.77779500  0.54352600  1
  C  510  1  0.23759000  0.74685100  0.50992800  1
  C  511  1  0.22634400  0.71444600  0.49291600  1
  C  512  1  0.19813000  0.71333100  0.46734800  1
  C  513  1  0.18195100  0.74623800  0.45716800  1
  C  514  1  0.19282400  0.77941600  0.47221100  1
  C  515  1  0.21971400  0.77897100  0.49917000  1
  C  519  1  0.17574900  0.81131500  0.46248300  1
  C  520  1  0.33333333  0.81004900  0.57768400  1
  C  521  1  0.30763800  0.68530700  0.60524600  1
  C  522  1  0.18453700  0.68042000  0.45542800  1
  C  527  1  0.23722200  0.25554100  0.03738730  1
  C  528  1  0.23063400  0.28609900  0.05958830  1
  C  529  1  0.20273400  0.28669100  0.08540030  1
  C  530  1  0.18248400  0.25512300  0.09113430  1
  C  531  1  0.18886900  0.22357200  0.07092830  1
  C  532  1  0.21524500  0.22473800  0.04349330  1
  C  536  1  0.26497200  0.25569800  0.00993026  1
  C  537  1  0.27621800  0.28811000  0.99293000  1
  C  538  1  0.30444200  0.28923500  0.96737700  1
  C  539  1  0.32061500  0.25633200  0.95717300  1
  C  540  1  0.30973000  0.22314600  0.97219100  1
  C  541  1  0.28284600  0.22358100  0.99915800  1
  C  545  1  0.32682400  0.19125400  0.96247200  1
  C  546  1  0.16919300  0.19246400  0.07762930  1
  C  547  1  0.19490100  0.31719000  0.10527200  1
  C  548  1  0.31801400  0.32215500  0.95544700  1
  C  553  1  0.73848400  0.24857600  0.00319926  1
  C  554  1  0.73095800  0.27949200  0.98184100  1
  C  555  1  0.70285300  0.27996300  0.95618000  1
  C  556  1  0.68327100  0.24798800  0.95010000  1
  C  557  1  0.69045200  0.21621200  0.96971100  1
  C  558  1  0.71711200  0.21744600  0.99682600  1
  C  562  1  0.76663800  0.24847600  0.03013330  1
  C  563  1  0.77654800  0.28022900  0.04905830  1
  C  564  1  0.80467800  0.28084100  0.07478430  1
  C  565  1  0.82235300  0.24806300  0.08272330  1
  C  566  1  0.81304600  0.21558000  0.06531530  1
  C  567  1  0.78604700  0.21657200  0.03853430  1
  C  571  1  0.83142700  0.18388600  0.07290730  1
  C  572  1  0.67162900  0.18463200  0.96266800  1
  C  573  1  0.69452300  0.31065600  0.93662800  1
  C  574  1  0.81660500  0.31337800  0.08927430  1
  C  579  1  0.76406100  0.75397800  0.50319600  1
  C  580  1  0.77156700  0.72306200  0.48183500  1
  C  581  1  0.79967000  0.72257700  0.45617200  1
  C  582  1  0.81927300  0.75453800  0.45009300  1
  C  583  1  0.81211200  0.78631600  0.46971000  1
  C  584  1  0.78545200  0.78509600  0.49682600  1
  C  588  1  0.73591000  0.75408800  0.53013100  1
  C  589  1  0.72598800  0.72233700  0.54905600  1
  C  590  1  0.69786900  0.72173400  0.57479500  1
  C  591  1  0.68018000  0.75451100  0.58270000  1
  C  592  1  0.68950400  0.78699500  0.56529900  1
  C  593  1  0.71651100  0.78599800  0.53852900  1
  C  597  1  0.67113100  0.81869200  0.57289700  1
  C  598  1  0.83094200  0.81789200  0.46266400  1
  C  599  1  0.80797300  0.69187900  0.43661600  1
  C  600  1  0.68591500  0.68919700  0.58925600  1
  C  605  1  0.50380600  0.48652400  0.78132400  1
  C  606  1  0.47143300  0.47493300  0.79808700  1
  C  607  1  0.47044800  0.44628600  0.82311700  1
  C  608  1  0.50332700  0.42982800  0.83287700  1
  C  609  1  0.53653700  0.44106300  0.81805600  1
  C  610  1  0.53601500  0.46860100  0.79172700  1
  C  614  1  0.50373300  0.51482300  0.75451600  1
  C  615  1  0.47340400  0.52105600  0.73193500  1
  C  616  1  0.47233500  0.54945800  0.70663200  1
  C  617  1  0.50357500  0.57060400  0.70197500  1
  C  618  1  0.53486500  0.56472900  0.72274600  1
  C  619  1  0.53400600  0.53772200  0.74954600  1
  C  623  1  0.56546400  0.58548700  0.71724000  1
  C  624  1  0.56866300  0.42428400  0.82779700  1
  C  625  1  0.43759300  0.43277100  0.83503900  1
  C  626  1  0.44164200  0.55621000  0.68632400  1
  C  631  1  0.99873300  0.51607300  0.28128600  1
  C  632  1  0.03110700  0.52767900  0.29803900  1
  C  633  1  0.03209100  0.55634800  0.32304000  1
  C  634  1  0.99920900  0.57280600  0.33280100  1
  C  635  1  0.96599900  0.56154400  0.31799900  1
  C  636  1  0.96652400  0.53398800  0.29169000  1
  C  640  1  0.99881100  0.48776200  0.25449100  1
  C  641  1  0.02914500  0.48153200  0.23191000  1
  C  642  1  0.03022200  0.45312200  0.20661800  1
  C  643  1  0.99899100  0.43196300  0.20196600  1
  C  644  1  0.96769300  0.43784100  0.22273200  1
  C  645  1  0.96854600  0.46485300  0.24952400  1
  C  649  1  0.93709900  0.41707400  0.21723100  1
  C  650  1  0.93386800  0.57830400  0.32775300  1
  C  651  1  0.06494000  0.56987400  0.33496700  1
  C  652  1  0.06092400  0.44636500  0.18633100  1
  C  657  1  0.90451900  0.89884300  0.37487700  1
  C  658  1  0.88688900  0.87056600  0.35677700  1
  C  659  1  0.86388300  0.84646100  0.37522500  1
  C  660  1  0.85909600  0.85052600  0.41299400  1
  C  661  1  0.87639500  0.87925100  0.43105900  1
  C  663  1  0.89895400  0.90312700  0.41220600  1
  C  666  1  0.84634200  0.81655100  0.35508900  1
  C  672  1  0.59805000  0.10367500  0.87488600  1
  C  673  1  0.61565500  0.13197200  0.85679100  1
  C  674  1  0.63866900  0.15607200  0.87523400  1
  C  675  1  0.64347000  0.15199900  0.91299900  1
  C  676  1  0.62615500  0.12328600  0.93106500  1
  C  678  1  0.60366100  0.09935600  0.91220500  1
  C  681  1  0.65619900  0.18598700  0.85509700  1
  C  687  1  0.35665000  0.64654700  0.62149700  1
  C  688  1  0.38370200  0.62713800  0.60324500  1
  C  689  1  0.40841300  0.60493700  0.62197900  1
  C  690  1  0.40569100  0.60231200  0.66007600  1
  C  691  1  0.37865400  0.62175600  0.67836500  1
  C  693  1  0.35415100  0.64341300  0.65928700  1
  C  696  1  0.43795100  0.58672300  0.60199900  1
  C  702  1  0.14601700  0.35600900  0.12163900  1
  C  703  1  0.11893800  0.37538000  0.10337700  1
  C  704  1  0.09423200  0.39761700  0.12207800  1
  C  705  1  0.09692700  0.40025200  0.16017700  1
  C  706  1  0.12393100  0.38078900  0.17849100  1
  C  708  1  0.14843600  0.35911600  0.15943400  1
  C  711  1  0.06471100  0.41582000  0.10206300  1
  C  717  1  0.59562100  0.90104300  0.65683400  1
  C  718  1  0.62288100  0.88256500  0.67589100  1
  C  719  1  0.64617300  0.85795500  0.65837200  1
  C  720  1  0.64242800  0.85223600  0.62069500  1
  C  721  1  0.61537800  0.87109100  0.60164600  1
  C  723  1  0.59208600  0.89490200  0.61959100  1
  C  726  1  0.67323700  0.83755700  0.67975200  1
  C  732  1  0.90691500  0.10151400  0.15683600  1
  C  733  1  0.87964400  0.11997500  0.17589000  1
  C  734  1  0.85635500  0.14459000  0.15837400  1
  C  735  1  0.86011700  0.15032800  0.12070200  1
  C  736  1  0.88716700  0.13147200  0.10165100  1
  C  738  1  0.91045600  0.10765900  0.11959800  1
  C  741  1  0.82928100  0.16497600  0.17975100  1
  C  747  1  0.14592600  0.65164400  0.41246000  1
  C  748  1  0.12660200  0.62628200  0.43325800  1
  C  749  1  0.10095200  0.60297900  0.41732600  1
  C  750  1  0.09526800  0.60462400  0.37953900  1
  C  751  1  0.11487900  0.62981200  0.35878000  1
  C  753  1  0.13969200  0.65320600  0.37511400  1
  C  756  1  0.07958000  0.57803700  0.44022700  1
  C  762  1  0.35672200  0.35087700  0.91250900  1
  C  763  1  0.37604000  0.37621800  0.93333200  1
  C  764  1  0.40162800  0.39958700  0.91739900  1
  C  765  1  0.40730400  0.39796900  0.87960900  1
  C  766  1  0.38770600  0.37277700  0.85883700  1
  C  768  1  0.36292500  0.34934200  0.87516100  1
  C  771  1  0.42295200  0.42456700  0.94030500  1
  C  777  1  0.09517500  0.11088100  0.16440400  1
  C  778  1  0.12045200  0.13227800  0.18312200  1
  C  779  1  0.14348400  0.15645000  0.16471900  1
  C  780  1  0.14131400  0.15895800  0.12657400  1
  C  781  1  0.11635600  0.13716700  0.10784900  1
  C  783  1  0.09343500  0.11363000  0.12661400  1
  C  786  1  0.16872000  0.17956000  0.18559300  1
  C  792  1  0.40737600  0.89162500  0.66445600  1
  C  793  1  0.38210900  0.87022100  0.68317600  1
  C  794  1  0.35907300  0.84604900  0.66477700  1
  C  795  1  0.36124000  0.84354000  0.62663100  1
  C  796  1  0.38622800  0.86530200  0.60790900  1
  C  798  1  0.40910500  0.88889300  0.62666600  1
  C  801  1  0.33382600  0.82295100  0.68564800  1
  C  807  1  0.64457900  0.34703800  0.91734000  1
  C  808  1  0.61460200  0.36309800  0.93415300  1
  C  809  1  0.59109000  0.38626600  0.91509700  1
  C  810  1  0.59752500  0.39297500  0.87794800  1
  C  811  1  0.62786000  0.37713800  0.86119300  1
  C  813  1  0.65115700  0.35445300  0.88066400  1
  C  816  1  0.55943300  0.40215100  0.93388400  1
  C  822  1  0.85784400  0.65542700  0.41733700  1
  C  823  1  0.88786700  0.63941800  0.43412600  1
  C  824  1  0.91141400  0.61629100  0.41505900  1
  C  825  1  0.90499800  0.60960000  0.37790400  1
  C  826  1  0.87466900  0.62544200  0.36114400  1
  C  828  1  0.85136900  0.64811400  0.38062300  1
  C  831  1  0.94308700  0.60043200  0.43384500  1
  C  837  1  0.40347800  0.11231100  0.87633200  1
  C  838  1  0.37895600  0.13422300  0.85722400  1
  C  839  1  0.35593900  0.15867400  0.87536600  1
  C  840  1  0.35714200  0.16074600  0.91359700  1
  C  841  1  0.38144100  0.13844100  0.93260300  1
  C  843  1  0.40431300  0.11462700  0.91417100  1
  C  846  1  0.33148400  0.18234500  0.85423300  1
  C  852  1  0.09910100  0.89025800  0.37633000  1
  C  853  1  0.12362200  0.86834200  0.35722800  1
  C  854  1  0.14663800  0.84389000  0.37537300  1
  C  855  1  0.14543400  0.84182700  0.41360500  1
  C  856  1  0.12114700  0.86415000  0.43260800  1
  C  858  1  0.09827900  0.88796100  0.41417100  1
  C  861  1  0.17108700  0.82021000  0.35424700  1
  C  867  1  0.85398300  0.34088300  0.13416600  1
  C  868  1  0.87115300  0.36902400  0.11517200  1
  C  869  1  0.89531100  0.39286200  0.13253500  1
  C  870  1  0.90196900  0.38868900  0.17000500  1
  C  871  1  0.88444700  0.36075500  0.18904000  1
  C  873  1  0.86105100  0.33694400  0.17120500  1
  C  876  1  0.91429200  0.42094600  0.11114400  1
  C  882  1  0.64848300  0.66173000  0.63414600  1
  C  883  1  0.63130000  0.63360800  0.61513800  1
  C  884  1  0.60719800  0.60972900  0.63252200  1
  C  885  1  0.60057000  0.61388900  0.67000000  1
  C  886  1  0.61810800  0.64181700  0.68903500  1
  C  888  1  0.64149100  0.66563600  0.67120100  1
  C  891  1  0.58823100  0.58162400  0.61114500  1
  N  222  1  0.93028500  0.91602900  0.08802300  1
  N  223  1  0.84083900  0.82509700  0.16107600  1
  N  237  1  0.57228400  0.08649000  0.58803700  1
  N  238  1  0.66173000  0.17742600  0.66108100  1
  N  252  1  0.33966600  0.67234300  0.33433500  1
  N  253  1  0.43228900  0.58886100  0.41048300  1
  N  267  1  0.16283800  0.33009200  0.83451500  1
  N  268  1  0.07032100  0.41371200  0.91056600  1
  N  282  1  0.56925200  0.91872700  0.40400800  1
  N  283  1  0.66111800  0.82581000  0.33603400  1
  N  297  1  0.93328700  0.08383600  0.90401600  1
  N  298  1  0.84143100  0.17676100  0.83604400  1
  N  312  1  0.16467400  0.67824700  0.15792300  1
  N  313  1  0.06770100  0.58710500  0.09562600  1
  N  327  1  0.33788900  0.32431200  0.65794900  1
  N  328  1  0.43483600  0.41554500  0.59569900  1
  N  342  1  0.06982600  0.09147100  0.91126900  1
  N  343  1  0.16016200  0.18453400  0.84085300  1
  N  357  1  0.43272000  0.91104500  0.41131500  1
  N  358  1  0.34238300  0.81797300  0.34090700  1
  N  372  1  0.66157100  0.32111600  0.66584900  1
  N  373  1  0.57265000  0.41113000  0.59033600  1
  N  387  1  0.84090900  0.68137000  0.16586300  1
  N  388  1  0.92988900  0.59146700  0.09029000  1
  N  402  1  0.42867800  0.09216800  0.59173600  1
  N  403  1  0.33874300  0.18664300  0.66103000  1
  N  417  1  0.07389700  0.91039100  0.09173000  1
  N  418  1  0.16382500  0.81592700  0.16104400  1
  N  432  1  0.83654500  0.31444100  0.84835100  1
  N  433  1  0.92783800  0.40835100  0.91581100  1
  N  447  1  0.66598400  0.68814200  0.34833800  1
  N  448  1  0.57471800  0.59421900  0.41582000  1
  N  670  1  0.93028500  0.91602900  0.35725900  1
  N  671  1  0.84083900  0.82509700  0.43031200  1
  N  685  1  0.57228400  0.08649000  0.85727300  1
  N  686  1  0.66173000  0.17742600  0.93031700  1
  N  700  1  0.33966600  0.67234300  0.60357100  1
  N  701  1  0.43228900  0.58886100  0.67971900  1
  N  715  1  0.16283800  0.33009200  0.10375100  1
  N  716  1  0.07032100  0.41371200  0.17980200  1
  N  730  1  0.56925200  0.91872700  0.67324400  1
  N  731  1  0.66111800  0.82581000  0.60527000  1
  N  745  1  0.93328700  0.08383600  0.17325200  1
  N  746  1  0.84143100  0.17676100  0.10528000  1
  N  760  1  0.16467400  0.67824700  0.42715900  1
  N  761  1  0.06770100  0.58710500  0.36486200  1
  N  775  1  0.33788900  0.32431200  0.92718500  1
  N  776  1  0.43483600  0.41554500  0.86493500  1
  N  790  1  0.06982600  0.09147100  0.18050500  1
  N  791  1  0.16016200  0.18453400  0.11008900  1
  N  805  1  0.43272000  0.91104500  0.68055100  1
  N  806  1  0.34238300  0.81797300  0.61014300  1
  N  820  1  0.66157100  0.32111600  0.93508500  1
  N  821  1  0.57265000  0.41113000  0.85957200  1
  N  835  1  0.84090900  0.68137000  0.43509900  1
  N  836  1  0.92988900  0.59146700  0.35952600  1
  N  850  1  0.42867800  0.09216800  0.86097200  1
  N  851  1  0.33874300  0.18664300  0.93026600  1
  N  865  1  0.07389700  0.91039100  0.36096600  1
  N  866  1  0.16382500  0.81592700  0.43028000  1
  N  880  1  0.83654500  0.31444100  0.11758700  1
  N  881  1  0.92783800  0.40835100  0.18504700  1
  N  895  1  0.66598400  0.68814200  0.61757400  1
  N  896  1  0.57471800  0.59421900  0.68505600  1
