# generated using pymatgen
data_H15(C7N2)2
_symmetry_space_group_name_H-M   'P 1'
_cell_length_a   22.53560000
_cell_length_b   44.75764572
_cell_length_c   44.75764572
_cell_angle_alpha   86.36622859
_cell_angle_beta   75.41882471
_cell_angle_gamma   75.41882471
_symmetry_Int_Tables_number   1
_chemical_formula_structural   H15(C7N2)2
_chemical_formula_sum   'H480 C448 N128'
_cell_volume   42283.17520025
_cell_formula_units_Z   32
loop_
 _symmetry_equiv_pos_site_id
 _symmetry_equiv_pos_as_xyz
  1  'x, y, z'
loop_
 _atom_site_type_symbol
 _atom_site_label
 _atom_site_symmetry_multiplicity
 _atom_site_fract_x
 _atom_site_fract_y
 _atom_site_fract_z
 _atom_site_occupancy
  C  1  1  0.79964750  0.92302600  0.89972400  1
  C  2  1  0.74040350  0.93313900  0.92080100  1
  C  3  1  0.68424100  0.94478650  0.91085050  1
  C  4  1  0.68632850  0.94286900  0.87876600  1
  C  5  1  0.74544350  0.93029600  0.85715600  1
  C  6  1  0.80283200  0.92340800  0.86739200  1
  C  9  1  0.85551850  0.91473850  0.91150250  1
  C  10  1  0.88418000  0.93689350  0.92008350  1
  C  11  1  0.94612800  0.92683900  0.92572400  1
  C  12  1  0.98087100  0.89535650  0.91940950  1
  C  13  1  0.94850550  0.87282500  0.91525500  1
  C  14  1  0.88662750  0.88308900  0.91102000  1
  C  27  1  0.98099150  0.83904250  0.91343050  1
  C  30  1  0.97396200  0.94896400  0.93892200  1
  C  33  1  0.62385450  0.96011050  0.93330550  1
  C  36  1  0.74391600  0.92509250  0.82429650  1
  C  39  1  0.62758900  0.56659700  0.60030100  1
  C  40  1  0.59951050  0.55650250  0.57922150  1
  C  41  1  0.54513350  0.54478600  0.58918600  1
  C  42  1  0.51328200  0.54665350  0.62127850  1
  C  43  1  0.53816850  0.55926350  0.64288150  1
  C  44  1  0.59885200  0.56620700  0.63263700  1
  C  47  1  0.68693500  0.57490350  0.58851550  1
  C  48  1  0.74633800  0.55275550  0.57991950  1
  C  49  1  0.80386350  0.56282100  0.57426800  1
  C  50  1  0.80079500  0.59431400  0.58055100  1
  C  51  1  0.74171800  0.61683400  0.58473800  1
  C  52  1  0.68587950  0.60655300  0.58901600  1
  C  65  1  0.73855450  0.65062350  0.58654850  1
  C  68  1  0.86700950  0.54068150  0.56108150  1
  C  71  1  0.52253600  0.52945550  0.56673150  1
  C  74  1  0.49860600  0.56444400  0.67574700  1
  C  77  1  0.72791950  0.89452000  0.57177600  1
  C  78  1  0.67877850  0.91560000  0.56166800  1
  C  79  1  0.63448050  0.90562550  0.54986850  1
  C  80  1  0.63479450  0.87352300  0.55167900  1
  C  81  1  0.68119250  0.85192700  0.56435100  1
  C  82  1  0.73155250  0.86218350  0.57135850  1
  C  85  1  0.77546600  0.90630300  0.58009600  1
  C  86  1  0.82627000  0.91491200  0.55795700  1
  C  87  1  0.87808600  0.92061300  0.56803900  1
  C  88  1  0.88125200  0.91437200  0.59954300  1
  C  89  1  0.82635500  0.91016700  0.62204800  1
  C  90  1  0.77483650  0.90585750  0.61175350  1
  C  103  1  0.82496200  0.90837300  0.65584200  1
  C  106  1  0.92805450  0.93379400  0.54589800  1
  C  109  1  0.58946400  0.92808000  0.53451800  1
  C  112  1  0.67451200  0.81905650  0.56949450  1
  C  115  1  0.19940450  0.59513500  0.92823700  1
  C  116  1  0.16122950  0.57405800  0.93834200  1
  C  117  1  0.09516250  0.58403900  0.95017100  1
  C  118  1  0.06519950  0.61614600  0.94839400  1
  C  119  1  0.10267300  0.63773900  0.93570800  1
  C  120  1  0.17029500  0.62746950  0.92867250  1
  C  123  1  0.26705500  0.58335900  0.91991700  1
  C  124  1  0.30431900  0.57475050  0.94205950  1
  C  125  1  0.37190900  0.56908250  0.93198150  1
  C  126  1  0.40032100  0.57540000  0.90049700  1
  C  127  1  0.36375550  0.57956100  0.87797900  1
  C  128  1  0.29764100  0.58379900  0.88826100  1
  C  141  1  0.39437300  0.58138250  0.84419050  1
  C  144  1  0.41296250  0.55586900  0.95409400  1
  C  147  1  0.05725000  0.56158350  0.96552150  1
  C  150  1  0.06828250  0.67061750  0.93058350  1
  C  153  1  0.19517900  0.06662950  0.10027750  1
  C  154  1  0.25442050  0.05651900  0.07920100  1
  C  155  1  0.31058400  0.04486850  0.08915350  1
  C  156  1  0.30849400  0.04678700  0.12123900  1
  C  157  1  0.24937600  0.05936000  0.14284800  1
  C  158  1  0.19198950  0.06624950  0.13260850  1
  C  161  1  0.13930900  0.07491900  0.08849800  1
  C  162  1  0.11064600  0.05276450  0.07991550  1
  C  163  1  0.04869800  0.06282000  0.07427600  1
  C  164  1  0.01395800  0.09430150  0.08058850  1
  C  165  1  0.04632450  0.11683200  0.08474400  1
  C  166  1  0.10820150  0.10656800  0.08898000  1
  C  179  1  0.01383750  0.15061600  0.08656800  1
  C  182  1  0.02086550  0.04069650  0.06107550  1
  C  185  1  0.37097000  0.02954600  0.06670000  1
  C  188  1  0.25090350  0.06456200  0.17570800  1
  C  191  1  0.36723600  0.42306200  0.39969800  1
  C  192  1  0.39531200  0.43315700  0.42077800  1
  C  193  1  0.44969000  0.44487300  0.41081500  1
  C  194  1  0.48154400  0.44300450  0.37872350  1
  C  195  1  0.45665950  0.43039450  0.35711850  1
  C  196  1  0.39597450  0.42345400  0.36736300  1
  C  199  1  0.30789050  0.41475500  0.41148300  1
  C  200  1  0.24848650  0.43690200  0.42007700  1
  C  201  1  0.19096100  0.42683550  0.42572950  1
  C  202  1  0.19403150  0.39534150  0.41944650  1
  C  203  1  0.25311000  0.37282250  0.41525950  1
  C  204  1  0.30894700  0.38310400  0.41098200  1
  C  217  1  0.25627700  0.33903300  0.41344900  1
  C  220  1  0.12781450  0.44897450  0.43891350  1
  C  223  1  0.47228350  0.46020400  0.43327000  1
  C  226  1  0.49622650  0.42521200  0.32425400  1
  C  229  1  0.26691850  0.09513650  0.42822250  1
  C  230  1  0.31606150  0.07405700  0.43832900  1
  C  231  1  0.36036150  0.08403050  0.45012850  1
  C  232  1  0.36004800  0.11613250  0.44831650  1
  C  233  1  0.31364700  0.13773000  0.43564700  1
  C  234  1  0.26328900  0.12747150  0.42864050  1
  C  237  1  0.21937000  0.08335400  0.41990300  1
  C  238  1  0.16856900  0.07474250  0.44204350  1
  C  239  1  0.11674900  0.06904250  0.43196550  1
  C  240  1  0.11358100  0.07528600  0.40046000  1
  C  241  1  0.16847550  0.07949200  0.37795400  1
  C  242  1  0.21999650  0.08379950  0.38824850  1
  C  255  1  0.16986450  0.08128650  0.34416050  1
  C  258  1  0.06678450  0.05586050  0.45410550  1
  C  261  1  0.40538000  0.06157500  0.46547600  1
  C  264  1  0.32032750  0.17060000  0.43050300  1
  C  267  1  0.79543000  0.39452250  0.07176350  1
  C  268  1  0.83360450  0.41560050  0.06165750  1
  C  269  1  0.89967250  0.40562000  0.04983000  1
  C  270  1  0.92963450  0.37351200  0.05160700  1
  C  271  1  0.89216200  0.35191950  0.06429250  1
  C  272  1  0.82453850  0.36218700  0.07133400  1
  C  275  1  0.72777950  0.40629900  0.08008400  1
  C  276  1  0.69051500  0.41490850  0.05794150  1
  C  277  1  0.62292500  0.42057700  0.06801800  1
  C  278  1  0.59451350  0.41425850  0.09950350  1
  C  279  1  0.63108000  0.41009500  0.12202000  1
  C  280  1  0.69719250  0.40585800  0.11174000  1
  C  293  1  0.60045900  0.40827700  0.15581000  1
  C  296  1  0.58187350  0.43379050  0.04590550  1
  C  299  1  0.93758200  0.42807400  0.03447800  1
  C  302  1  0.92655250  0.31904100  0.06941700  1
  C  609  1  0.01656000  0.96254800  0.99833400  1
  C  610  1  0.04704950  0.97888800  0.01309100  1
  C  611  1  0.02804700  0.01135600  0.01512000  1
  C  612  1  0.97827000  0.02711050  0.00166350  1
  C  613  1  0.94778100  0.01077150  0.98690650  1
  C  614  1  0.96678300  0.97830250  0.98487850  1
  C  623  1  0.98258950  0.52710900  0.50165600  1
  C  624  1  0.04417350  0.51078100  0.48689400  1
  C  625  1  0.05969400  0.47831100  0.48487300  1
  C  626  1  0.01223200  0.46254800  0.49833700  1
  C  627  1  0.95064300  0.47887800  0.51309600  1
  C  628  1  0.93512750  0.51134750  0.51511950  1
  C  637  1  0.98409850  0.99324800  0.53228700  1
  C  638  1  0.03096300  0.00799200  0.51596800  1
  C  639  1  0.04461700  0.00993300  0.48349200  1
  C  640  1  0.01074850  0.99640300  0.46771300  1
  C  641  1  0.96389000  0.98165550  0.48403350  1
  C  642  1  0.95023000  0.97971800  0.51650800  1
  C  651  1  0.51485250  0.49642800  0.96771600  1
  C  652  1  0.56011150  0.48168450  0.98405150  1
  C  653  1  0.54318400  0.47972400  0.01652500  1
  C  654  1  0.47998450  0.49323450  0.03228750  1
  C  655  1  0.43472700  0.50798300  0.01595200  1
  C  656  1  0.45165500  0.50993900  0.98347700  1
  C  665  1  0.52877750  0.47764050  0.52119850  1
  C  666  1  0.49710000  0.46352700  0.50493400  1
  C  667  1  0.46554750  0.48047150  0.48342250  1
  C  668  1  0.46603400  0.51202050  0.47880350  1
  C  669  1  0.49769800  0.52613700  0.49507300  1
  C  670  1  0.52926100  0.50919150  0.51658050  1
  C  679  1  0.53274750  0.01199850  0.97875050  1
  C  680  1  0.47069250  0.02611400  0.99501300  1
  C  681  1  0.43461850  0.00919100  0.01657700  1
  C  682  1  0.46208400  0.97766000  0.02125100  1
  C  683  1  0.52413950  0.96354400  0.00498900  1
  C  684  1  0.56021650  0.98046850  0.98342850  1
  C  693  1  0.55010450  0.97370800  0.48278600  1
  C  694  1  0.50216650  0.98996750  0.46866650  1
  C  695  1  0.44898000  0.01139800  0.48563400  1
  C  696  1  0.44473950  0.01594750  0.51721050  1
  C  697  1  0.49267750  0.99968850  0.53132950  1
  C  698  1  0.54586250  0.97825900  0.51436100  1
  C  707  1  0.01184800  0.51591250  0.01722050  1
  C  708  1  0.96603850  0.49966050  0.03134250  1
  C  709  1  0.95117150  0.47826550  0.01436850  1
  C  710  1  0.98298500  0.47374500  0.98277800  1
  C  711  1  0.02879250  0.48999750  0.96865650  1
  C  712  1  0.04366000  0.51139350  0.98563250  1
  C  833  1  0.78555850  0.93360850  0.72301050  1
  C  834  1  0.79545750  0.93170900  0.75294900  1
  C  835  1  0.78935800  0.90546900  0.77161700  1
  C  836  1  0.77418900  0.88086750  0.75914250  1
  C  837  1  0.76528200  0.88254700  0.72893600  1
  C  838  1  0.77122150  0.90884350  0.71040450  1
  C  847  1  0.44764100  0.55606100  0.77705300  1
  C  848  1  0.48552550  0.55795650  0.74710050  1
  C  849  1  0.47168150  0.58414950  0.72839450  1
  C  850  1  0.41929650  0.60869850  0.74083950  1
  C  851  1  0.38189100  0.60701450  0.77105150  1
  C  852  1  0.39577250  0.58076850  0.78962350  1
  C  861  1  0.72462000  0.71776450  0.56125950  1
  C  862  1  0.73255250  0.74771850  0.56314850  1
  C  863  1  0.69997550  0.76643650  0.58932850  1
  C  864  1  0.66005150  0.75399250  0.61388550  1
  C  865  1  0.65290200  0.72376900  0.61222100  1
  C  866  1  0.68535150  0.70519200  0.58597800  1
  C  875  1  0.00903900  0.77191000  0.93874900  1
  C  876  1  0.04879650  0.74195300  0.93685400  1
  C  877  1  0.06098700  0.72321450  0.91070050  1
  C  878  1  0.03307150  0.73564600  0.88617300  1
  C  879  1  0.99403800  0.76587100  0.88784600  1
  C  880  1  0.98179100  0.78446500  0.91406400  1
  C  889  1  0.20925850  0.05605050  0.27699250  1
  C  890  1  0.19935750  0.05794900  0.24705500  1
  C  891  1  0.20545900  0.08419050  0.22838550  1
  C  892  1  0.22063200  0.10878950  0.24085850  1
  C  893  1  0.22954150  0.10711000  0.27106500  1
  C  894  1  0.22359900  0.08081450  0.28959850  1
  C  903  1  0.54719500  0.43359650  0.22294750  1
  C  904  1  0.50931000  0.43170100  0.25290000  1
  C  905  1  0.52315250  0.40550850  0.27160550  1
  C  906  1  0.57553750  0.38096000  0.25916200  1
  C  907  1  0.61294250  0.38264350  0.22894850  1
  C  908  1  0.59906200  0.40888900  0.21037800  1
  C  917  1  0.27021350  0.27189250  0.43874050  1
  C  918  1  0.26228300  0.24193900  0.43685100  1
  C  919  1  0.29486100  0.22321900  0.41067100  1
  C  920  1  0.33478250  0.23566450  0.38611350  1
  C  921  1  0.34193100  0.26589000  0.38777800  1
  C  922  1  0.30948150  0.28446400  0.41402100  1
  C  931  1  0.98579550  0.21774800  0.06125000  1
  C  932  1  0.94603900  0.24770500  0.06314500  1
  C  933  1  0.93384700  0.26644300  0.08929900  1
  C  934  1  0.96176050  0.25401200  0.11382600  1
  C  935  1  0.00079300  0.22378550  0.11215450  1
  C  936  1  0.01304200  0.20519250  0.08593450  1
  C  2113  1  0.79964750  0.67816100  0.14458900  1
  C  2114  1  0.74040350  0.68827400  0.16566600  1
  C  2115  1  0.68424100  0.69992150  0.15571550  1
  C  2116  1  0.68632850  0.69800400  0.12363100  1
  C  2117  1  0.74544350  0.68543100  0.10202100  1
  C  2118  1  0.80283200  0.67854300  0.11225700  1
  C  2121  1  0.85551850  0.66987350  0.15636750  1
  C  2122  1  0.88418000  0.69202850  0.16494850  1
  C  2123  1  0.94612800  0.68197400  0.17058900  1
  C  2124  1  0.98087100  0.65049150  0.16427450  1
  C  2125  1  0.94850550  0.62796000  0.16012000  1
  C  2126  1  0.88662750  0.63822400  0.15588500  1
  C  2139  1  0.98099150  0.59417750  0.15829550  1
  C  2142  1  0.97396200  0.70409900  0.18378700  1
  C  2145  1  0.62385450  0.71524550  0.17817050  1
  C  2148  1  0.74391600  0.68022750  0.06916150  1
  C  2151  1  0.62758900  0.32173200  0.84516600  1
  C  2152  1  0.59951050  0.31163750  0.82408650  1
  C  2153  1  0.54513350  0.29992100  0.83405100  1
  C  2154  1  0.51328200  0.30178850  0.86614350  1
  C  2155  1  0.53816850  0.31439850  0.88774650  1
  C  2156  1  0.59885200  0.32134200  0.87750200  1
  C  2159  1  0.68693500  0.33003850  0.83338050  1
  C  2160  1  0.74633800  0.30789050  0.82478450  1
  C  2161  1  0.80386350  0.31795600  0.81913300  1
  C  2162  1  0.80079500  0.34944900  0.82541600  1
  C  2163  1  0.74171800  0.37196900  0.82960300  1
  C  2164  1  0.68587950  0.36168800  0.83388100  1
  C  2177  1  0.73855450  0.40575850  0.83141350  1
  C  2180  1  0.86700950  0.29581650  0.80594650  1
  C  2183  1  0.52253600  0.28459050  0.81159650  1
  C  2186  1  0.49860600  0.31957900  0.92061200  1
  C  2189  1  0.72791950  0.64965490  0.81664110  1
  C  2190  1  0.67877850  0.67073490  0.80653310  1
  C  2191  1  0.63448050  0.66076040  0.79473360  1
  C  2192  1  0.63479450  0.62865790  0.79654410  1
  C  2193  1  0.68119250  0.60706200  0.80921600  1
  C  2194  1  0.73155250  0.61731840  0.81622360  1
  C  2197  1  0.77546600  0.66143790  0.82496110  1
  C  2198  1  0.82627000  0.67004690  0.80282210  1
  C  2199  1  0.87808600  0.67574790  0.81290410  1
  C  2200  1  0.88125200  0.66950690  0.84440810  1
  C  2201  1  0.82635500  0.66530200  0.86691300  1
  C  2202  1  0.77483650  0.66099240  0.85661860  1
  C  2215  1  0.82496200  0.66350800  0.90070700  1
  C  2218  1  0.92805450  0.68892890  0.79076310  1
  C  2221  1  0.58946400  0.68321490  0.77938310  1
  C  2224  1  0.67451200  0.57419150  0.81435950  1
  C  2227  1  0.19940450  0.35027000  0.17310200  1
  C  2228  1  0.16122950  0.32919300  0.18320700  1
  C  2229  1  0.09516250  0.33917400  0.19503600  1
  C  2230  1  0.06519950  0.37128100  0.19325900  1
  C  2231  1  0.10267300  0.39287400  0.18057300  1
  C  2232  1  0.17029500  0.38260450  0.17353750  1
  C  2235  1  0.26705500  0.33849400  0.16478200  1
  C  2236  1  0.30431900  0.32988550  0.18692450  1
  C  2237  1  0.37190900  0.32421750  0.17684650  1
  C  2238  1  0.40032100  0.33053500  0.14536200  1
  C  2239  1  0.36375550  0.33469600  0.12284400  1
  C  2240  1  0.29764100  0.33893400  0.13312600  1
  C  2253  1  0.39437300  0.33651750  0.08905550  1
  C  2256  1  0.41296250  0.31100400  0.19895900  1
  C  2259  1  0.05725000  0.31671850  0.21038650  1
  C  2262  1  0.06828250  0.42575250  0.17544850  1
  C  2265  1  0.19517900  0.82176450  0.34514250  1
  C  2266  1  0.25442050  0.81165400  0.32406600  1
  C  2267  1  0.31058400  0.80000350  0.33401850  1
  C  2268  1  0.30849400  0.80192200  0.36610400  1
  C  2269  1  0.24937600  0.81449500  0.38771300  1
  C  2270  1  0.19198950  0.82138450  0.37747350  1
  C  2273  1  0.13930900  0.83005400  0.33336300  1
  C  2274  1  0.11064600  0.80789950  0.32478050  1
  C  2275  1  0.04869800  0.81795500  0.31914100  1
  C  2276  1  0.01395800  0.84943650  0.32545350  1
  C  2277  1  0.04632450  0.87196700  0.32960900  1
  C  2278  1  0.10820150  0.86170300  0.33384500  1
  C  2291  1  0.01383750  0.90575100  0.33143300  1
  C  2294  1  0.02086550  0.79583150  0.30594050  1
  C  2297  1  0.37097000  0.78468100  0.31156500  1
  C  2300  1  0.25090350  0.81969700  0.42057300  1
  C  2303  1  0.36723600  0.17819700  0.64456300  1
  C  2304  1  0.39531200  0.18829200  0.66564300  1
  C  2305  1  0.44969000  0.20000800  0.65568000  1
  C  2306  1  0.48154400  0.19813950  0.62358850  1
  C  2307  1  0.45665950  0.18552950  0.60198350  1
  C  2308  1  0.39597450  0.17858900  0.61222800  1
  C  2311  1  0.30789050  0.16989000  0.65634800  1
  C  2312  1  0.24848650  0.19203700  0.66494200  1
  C  2313  1  0.19096100  0.18197050  0.67059450  1
  C  2314  1  0.19403150  0.15047650  0.66431150  1
  C  2315  1  0.25311000  0.12795750  0.66012450  1
  C  2316  1  0.30894700  0.13823900  0.65584700  1
  C  2329  1  0.25627700  0.09416800  0.65831400  1
  C  2332  1  0.12781450  0.20410950  0.68377850  1
  C  2335  1  0.47228350  0.21533900  0.67813500  1
  C  2338  1  0.49622650  0.18034700  0.56911900  1
  C  2341  1  0.26691850  0.85027150  0.67308750  1
  C  2342  1  0.31606150  0.82919200  0.68319400  1
  C  2343  1  0.36036150  0.83916550  0.69499350  1
  C  2344  1  0.36004800  0.87126750  0.69318150  1
  C  2345  1  0.31364700  0.89286500  0.68051200  1
  C  2346  1  0.26328900  0.88260650  0.67350550  1
  C  2349  1  0.21937000  0.83848900  0.66476800  1
  C  2350  1  0.16856900  0.82987750  0.68690850  1
  C  2351  1  0.11674900  0.82417750  0.67683050  1
  C  2352  1  0.11358100  0.83042100  0.64532500  1
  C  2353  1  0.16847550  0.83462700  0.62281900  1
  C  2354  1  0.21999650  0.83893450  0.63311350  1
  C  2367  1  0.16986450  0.83642150  0.58902550  1
  C  2370  1  0.06678450  0.81099550  0.69897050  1
  C  2373  1  0.40538000  0.81671000  0.71034100  1
  C  2376  1  0.32032750  0.92573500  0.67536800  1
  C  2379  1  0.79543000  0.14965740  0.31662860  1
  C  2380  1  0.83360450  0.17073540  0.30652260  1
  C  2381  1  0.89967250  0.16075490  0.29469510  1
  C  2382  1  0.92963450  0.12864690  0.29647210  1
  C  2383  1  0.89216200  0.10705450  0.30915750  1
  C  2384  1  0.82453850  0.11732190  0.31619910  1
  C  2387  1  0.72777950  0.16143390  0.32494910  1
  C  2388  1  0.69051500  0.17004340  0.30280660  1
  C  2389  1  0.62292500  0.17571190  0.31288310  1
  C  2390  1  0.59451350  0.16939340  0.34436860  1
  C  2391  1  0.63108000  0.16523000  0.36688500  1
  C  2392  1  0.69719250  0.16099290  0.35660510  1
  C  2405  1  0.60045900  0.16341200  0.40067500  1
  C  2408  1  0.58187350  0.18892540  0.29077060  1
  C  2411  1  0.93758200  0.18320890  0.27934310  1
  C  2414  1  0.92655250  0.07417600  0.31428200  1
  C  2721  1  0.01656000  0.71768300  0.24319900  1
  C  2722  1  0.04704950  0.73402300  0.25795600  1
  C  2723  1  0.02804700  0.76649100  0.25998500  1
  C  2724  1  0.97827000  0.78224550  0.24652850  1
  C  2725  1  0.94778100  0.76590650  0.23177150  1
  C  2726  1  0.96678300  0.73343750  0.22974350  1
  C  2735  1  0.98258950  0.28224400  0.74652100  1
  C  2736  1  0.04417350  0.26591600  0.73175900  1
  C  2737  1  0.05969400  0.23344600  0.72973800  1
  C  2738  1  0.01223200  0.21768300  0.74320200  1
  C  2739  1  0.95064300  0.23401300  0.75796100  1
  C  2740  1  0.93512750  0.26648250  0.75998450  1
  C  2749  1  0.98409850  0.74838290  0.77715210  1
  C  2750  1  0.03096300  0.76312700  0.76083300  1
  C  2751  1  0.04461700  0.76506800  0.72835700  1
  C  2752  1  0.01074850  0.75153800  0.71257800  1
  C  2753  1  0.96389000  0.73679050  0.72889850  1
  C  2754  1  0.95023000  0.73485290  0.76137310  1
  C  2763  1  0.51485250  0.25156300  0.21258100  1
  C  2764  1  0.56011150  0.23681950  0.22891650  1
  C  2765  1  0.54318400  0.23485890  0.26139010  1
  C  2766  1  0.47998450  0.24836940  0.27715260  1
  C  2767  1  0.43472700  0.26311800  0.26081700  1
  C  2768  1  0.45165500  0.26507400  0.22834200  1
  C  2777  1  0.52877750  0.23277550  0.76606350  1
  C  2778  1  0.49710000  0.21866200  0.74979900  1
  C  2779  1  0.46554750  0.23560650  0.72828750  1
  C  2780  1  0.46603400  0.26715550  0.72366850  1
  C  2781  1  0.49769800  0.28127200  0.73993800  1
  C  2782  1  0.52926100  0.26432650  0.76144550  1
  C  2791  1  0.53274750  0.76713350  0.22361550  1
  C  2792  1  0.47069250  0.78124900  0.23987800  1
  C  2793  1  0.43461850  0.76432600  0.26144200  1
  C  2794  1  0.46208400  0.73279500  0.26611600  1
  C  2795  1  0.52413950  0.71867900  0.24985400  1
  C  2796  1  0.56021650  0.73560350  0.22829350  1
  C  2805  1  0.55010450  0.72884300  0.72765100  1
  C  2806  1  0.50216650  0.74510250  0.71353150  1
  C  2807  1  0.44898000  0.76653300  0.73049900  1
  C  2808  1  0.44473950  0.77108250  0.76207550  1
  C  2809  1  0.49267750  0.75482340  0.77619460  1
  C  2810  1  0.54586250  0.73339390  0.75922610  1
  C  2819  1  0.01184800  0.27104750  0.26208550  1
  C  2820  1  0.96603850  0.25479540  0.27620760  1
  C  2821  1  0.95117150  0.23340040  0.25923360  1
  C  2822  1  0.98298500  0.22888000  0.22764300  1
  C  2823  1  0.02879250  0.24513250  0.21352150  1
  C  2824  1  0.04366000  0.26652850  0.23049750  1
  C  2945  1  0.78555850  0.68874350  0.96787550  1
  C  2946  1  0.79545750  0.68684400  0.99781400  1
  C  2947  1  0.78935800  0.66060400  0.01648200  1
  C  2948  1  0.77418900  0.63600250  0.00400750  1
  C  2949  1  0.76528200  0.63768200  0.97380100  1
  C  2950  1  0.77122150  0.66397850  0.95526950  1
  C  2959  1  0.44764100  0.31119600  0.02191800  1
  C  2960  1  0.48552550  0.31309150  0.99196550  1
  C  2961  1  0.47168150  0.33928450  0.97325950  1
  C  2962  1  0.41929650  0.36383350  0.98570450  1
  C  2963  1  0.38189100  0.36214950  0.01591650  1
  C  2964  1  0.39577250  0.33590350  0.03448850  1
  C  2973  1  0.72462000  0.47287167  0.80615233  1
  C  2974  1  0.73255250  0.50285350  0.80801350  1
  C  2975  1  0.69997550  0.52157150  0.83419350  1
  C  2976  1  0.66005150  0.50912750  0.85875050  1
  C  2977  1  0.65290200  0.47890400  0.85708600  1
  C  2978  1  0.68535150  0.46032700  0.83084300  1
  C  2987  1  0.00903900  0.52704500  0.18361400  1
  C  2988  1  0.04879650  0.49708800  0.18171900  1
  C  2989  1  0.06098700  0.47834950  0.15556550  1
  C  2990  1  0.03307150  0.49078100  0.13103800  1
  C  2991  1  0.99403800  0.52100600  0.13271100  1
  C  2992  1  0.98179100  0.53960000  0.15892900  1
  C  3001  1  0.20925850  0.81118550  0.52185750  1
  C  3002  1  0.19935750  0.81308400  0.49192000  1
  C  3003  1  0.20545900  0.83932550  0.47325050  1
  C  3004  1  0.22063200  0.86392450  0.48572350  1
  C  3005  1  0.22954150  0.86224500  0.51593000  1
  C  3006  1  0.22359900  0.83594950  0.53446350  1
  C  3015  1  0.54719500  0.18873150  0.46781250  1
  C  3016  1  0.50931000  0.18683600  0.49776500  1
  C  3017  1  0.52315250  0.16064350  0.51647050  1
  C  3018  1  0.57553750  0.13609500  0.50402700  1
  C  3019  1  0.61294250  0.13777850  0.47381350  1
  C  3020  1  0.59906200  0.16402400  0.45524300  1
  C  3029  1  0.27021350  0.02702750  0.68360550  1
  C  3030  1  0.26228300  0.99707400  0.68171600  1
  C  3031  1  0.29486100  0.97835400  0.65553600  1
  C  3032  1  0.33478250  0.99079950  0.63097850  1
  C  3033  1  0.34193100  0.02102500  0.63264300  1
  C  3034  1  0.30948150  0.03959900  0.65888600  1
  C  3043  1  0.98579550  0.97285767  0.30614033  1
  C  3044  1  0.94603900  0.00284000  0.30801000  1
  C  3045  1  0.93384700  0.02157800  0.33416400  1
  C  3046  1  0.96176050  0.00914700  0.35869100  1
  C  3047  1  0.00079300  0.97892050  0.35701950  1
  C  3048  1  0.01304200  0.96032750  0.33079950  1
  H  7  1  0.73902000  0.93377200  0.94378700  1
  H  16  1  0.86547600  0.86734300  0.90514300  1
  H  19  1  0.89933150  0.91606300  0.85336100  1
  H  20  1  0.86326000  0.92675650  0.82577050  1
  H  21  1  0.87192550  0.98347900  0.92598100  1
  H  22  1  0.81217850  0.97485750  0.91708850  1
  H  23  1  0.06997250  0.90203600  0.91081100  1
  H  24  1  0.06987500  0.86597900  0.91062500  1
  H  25  1  0.63137100  0.95608050  0.84725350  1
  H  26  1  0.59066350  0.96116100  0.88273000  1
  H  28  1  0.01787200  0.83543350  0.89186150  1
  H  29  1  0.00372750  0.83436550  0.93272550  1
  H  31  1  0.98006700  0.96762850  0.92237050  1
  H  32  1  0.02072900  0.93807650  0.94220150  1
  H  34  1  0.60746100  0.98289900  0.92363800  1
  H  35  1  0.58982650  0.94642600  0.93339400  1
  H  37  1  0.73331400  0.94810150  0.81412050  1
  H  38  1  0.70428300  0.91469650  0.82538850  1
  H  45  1  0.62177250  0.55585650  0.55623950  1
  H  54  1  0.64308300  0.62228600  0.59487100  1
  H  57  1  0.67397050  0.57357850  0.64665550  1
  H  58  1  0.62103400  0.56287000  0.67425300  1
  H  59  1  0.78656900  0.50616850  0.57401850  1
  H  60  1  0.70931200  0.51478450  0.58293350  1
  H  61  1  0.88846150  0.58778750  0.58882750  1
  H  62  1  0.85162100  0.62375100  0.58922300  1
  H  63  1  0.44022200  0.53331550  0.65281350  1
  H  64  1  0.44001300  0.52823400  0.61734600  1
  H  66  1  0.75036400  0.65423550  0.60808950  1
  H  67  1  0.77582250  0.65531100  0.56721600  1
  H  69  1  0.87519400  0.52201850  0.57763850  1
  H  70  1  0.90619450  0.55154150  0.55780750  1
  H  72  1  0.51942800  0.50663600  0.57635900  1
  H  73  1  0.47484650  0.54309100  0.56670200  1
  H  75  1  0.50100000  0.54143750  0.68594050  1
  H  76  1  0.44962900  0.57476100  0.67467200  1
  H  83  1  0.67805700  0.93858100  0.56101300  1
  H  92  1  0.73788850  0.90000250  0.62747850  1
  H  95  1  0.82054350  0.84816950  0.57893150  1
  H  96  1  0.79540700  0.82045550  0.56836150  1
  H  97  1  0.86071050  0.92073700  0.51136900  1
  H  98  1  0.79240600  0.91178400  0.51996800  1
  H  99  1  0.97717500  0.90615100  0.59305900  1
  H  100  1  0.94067200  0.90581300  0.62901800  1
  H  101  1  0.59355100  0.84196550  0.53815750  1
  H  102  1  0.55783900  0.87742550  0.53307950  1
  H  104  1  0.85842250  0.88687250  0.65945350  1
  H  105  1  0.84273750  0.92775550  0.66054350  1
  H  107  1  0.95286950  0.91720900  0.52726700  1
  H  108  1  0.96390500  0.93711400  0.55677600  1
  H  110  1  0.59615400  0.91849750  0.51166050  1
  H  111  1  0.54172950  0.92803800  0.54808700  1
  H  113  1  0.68737100  0.80884400  0.54648400  1
  H  114  1  0.62442300  0.82011650  0.57968050  1
  H  121  1  0.18282800  0.55107550  0.93898350  1
  H  130  1  0.27058800  0.58968150  0.87252650  1
  H  133  1  0.25292200  0.64155150  0.92099250  1
  H  134  1  0.18946350  0.66918350  0.93164450  1
  H  135  1  0.29802250  0.56888350  0.98864050  1
  H  136  1  0.22935200  0.57780400  0.98004900  1
  H  137  1  0.48093100  0.58395050  0.90716650  1
  H  138  1  0.48029650  0.58424300  0.87111500  1
  H  139  1  0.97894200  0.64772250  0.96201250  1
  H  140  1  0.97356350  0.61226350  0.96706750  1
  H  142  1  0.40969450  0.60294850  0.84057450  1
  H  143  1  0.43639250  0.56208200  0.83950400  1
  H  145  1  0.40260500  0.57243750  0.97273650  1
  H  146  1  0.46300650  0.55254250  0.94318350  1
  H  148  1  0.03157400  0.57114500  0.98839700  1
  H  149  1  0.02297800  0.56166150  0.95197950  1
  H  151  1  0.04803650  0.68083650  0.95359450  1
  H  152  1  0.02935400  0.66957750  0.92045150  1
  H  159  1  0.25580850  0.05588450  0.05621550  1
  H  168  1  0.12935150  0.12231400  0.09485800  1
  H  171  1  0.09549050  0.07359450  0.14663950  1
  H  172  1  0.13156000  0.06290150  0.17422950  1
  H  173  1  0.12290000  0.00617850  0.07401950  1
  H  174  1  0.18264600  0.01480000  0.08291300  1
  H  175  1  0.92485500  0.08762400  0.08918600  1
  H  176  1  0.92495200  0.12368100  0.08937100  1
  H  177  1  0.36344550  0.03357300  0.15275200  1
  H  178  1  0.40415600  0.02849200  0.11727500  1
  H  180  1  0.97695550  0.15422500  0.10813700  1
  H  181  1  0.99110450  0.15529400  0.06727200  1
  H  183  1  0.01475900  0.02203100  0.07762800  1
  H  184  1  0.97410050  0.05158300  0.05779500  1
  H  186  1  0.38736300  0.00675850  0.07636550  1
  H  187  1  0.40499800  0.04323100  0.06661300  1
  H  189  1  0.26150000  0.04155650  0.18588350  1
  H  190  1  0.29053650  0.07495850  0.17461550  1
  H  197  1  0.37304750  0.43380300  0.44375900  1
  H  206  1  0.35174400  0.36737250  0.40512850  1
  H  209  1  0.32086350  0.41607750  0.35334250  1
  H  210  1  0.37379950  0.42678450  0.32574550  1
  H  211  1  0.20825300  0.48349000  0.42597500  1
  H  212  1  0.28550950  0.47487350  0.41706350  1
  H  213  1  0.10636750  0.40186650  0.41116950  1
  H  214  1  0.14320750  0.36590350  0.41077650  1
  H  215  1  0.55460950  0.45634150  0.34718950  1
  H  216  1  0.55481500  0.46142200  0.38265800  1
  H  218  1  0.24446500  0.33542000  0.39191100  1
  H  219  1  0.21900850  0.33434500  0.43278300  1
  H  221  1  0.11962900  0.46763800  0.42235500  1
  H  222  1  0.08863200  0.43811300  0.44218700  1
  H  224  1  0.47539550  0.48302400  0.42364000  1
  H  225  1  0.51997100  0.44656850  0.43330250  1
  H  227  1  0.49383250  0.44822000  0.31406100  1
  H  228  1  0.54520350  0.41489550  0.32532950  1
  H  235  1  0.31678300  0.05107550  0.43898350  1
  H  244  1  0.25694400  0.08965600  0.37252100  1
  H  247  1  0.17429050  0.14148800  0.42107100  1
  H  248  1  0.19943000  0.16920100  0.43163900  1
  H  249  1  0.13413350  0.06891650  0.48863150  1
  H  250  1  0.20243850  0.07787100  0.48003300  1
  H  251  1  0.01765700  0.08350650  0.40694750  1
  H  252  1  0.05415650  0.08384700  0.37098700  1
  H  253  1  0.40129500  0.14768900  0.46183600  1
  H  254  1  0.43700950  0.11222850  0.46691250  1
  H  256  1  0.13640300  0.10278750  0.34055150  1
  H  257  1  0.15208350  0.06190450  0.33946050  1
  H  259  1  0.04197100  0.07244500  0.47273700  1
  H  260  1  0.03093250  0.05254050  0.44322950  1
  H  262  1  0.39869300  0.07115750  0.48833450  1
  H  263  1  0.45311350  0.06161700  0.45190800  1
  H  265  1  0.30747200  0.18081200  0.45351300  1
  H  266  1  0.37041800  0.16954100  0.42031500  1
  H  273  1  0.81200600  0.43858250  0.06101450  1
  H  282  1  0.72424600  0.39997650  0.12747350  1
  H  285  1  0.74191100  0.34810700  0.07900500  1
  H  286  1  0.80537200  0.32047500  0.06835300  1
  H  287  1  0.69681200  0.42077550  0.01136050  1
  H  288  1  0.76548100  0.41185450  0.01995250  1
  H  289  1  0.51390400  0.40571000  0.09283200  1
  H  290  1  0.51453650  0.40541550  0.12888650  1
  H  291  1  0.01589200  0.34193700  0.03799000  1
  H  292  1  0.02127200  0.37739400  0.03293200  1
  H  294  1  0.58513950  0.38671050  0.15942550  1
  H  295  1  0.55844200  0.42757600  0.16049700  1
  H  297  1  0.59222750  0.41722400  0.02726400  1
  H  298  1  0.53182750  0.43711800  0.05681700  1
  H  300  1  0.96325900  0.41851250  0.01160350  1
  H  301  1  0.97185600  0.42799750  0.04801950  1
  H  303  1  0.94679950  0.30882200  0.04640600  1
  H  304  1  0.96548000  0.32008100  0.07955000  1
  H  615  1  0.96398750  0.05067700  0.00259500  1
  H  616  1  0.08279750  0.96696500  0.02267700  1
  H  617  1  0.03084300  0.93898150  0.99740250  1
  H  618  1  0.91203350  0.02269300  0.97732100  1
  H  620  1  0.07398900  0.04407100  0.01603900  1
  H  622  1  0.92084100  0.94558700  0.98395900  1
  H  629  1  0.02246650  0.43898050  0.49740750  1
  H  630  1  0.07757650  0.52270700  0.47730800  1
  H  631  1  0.97235550  0.55067800  0.50258700  1
  H  632  1  0.91724550  0.46695100  0.52268700  1
  H  634  1  0.13928300  0.44560450  0.48395050  1
  H  636  1  0.85553550  0.54405550  0.51604650  1
  H  643  1  0.02016200  0.99727850  0.44414150  1
  H  644  1  0.05467050  0.01763550  0.52790650  1
  H  645  1  0.97467850  0.99237650  0.55585950  1
  H  646  1  0.94017150  0.97201950  0.47209450  1
  H  648  1  0.12336150  0.01084050  0.45082950  1
  H  650  1  0.87148250  0.97881450  0.54917050  1
  H  657  1  0.46666450  0.49234850  0.05585750  1
  H  658  1  0.60541750  0.47205450  0.97212550  1
  H  659  1  0.52817000  0.49731150  0.94414650  1
  H  660  1  0.38941650  0.51760500  0.02787800  1
  H  662  1  0.59011250  0.47881150  0.04921450  1
  H  664  1  0.40472350  0.51084800  0.95079000  1
  H  671  1  0.44336550  0.52486250  0.46340450  1
  H  672  1  0.49795100  0.44063650  0.50850250  1
  H  673  1  0.55145000  0.46479800  0.53659500  1
  H  674  1  0.49686300  0.54902500  0.49149700  1
  H  676  1  0.39132400  0.47760450  0.46770550  1
  H  678  1  0.60349000  0.51205750  0.53229250  1
  H  685  1  0.43689300  0.96483300  0.03668700  1
  H  686  1  0.45218350  0.04899050  0.99139850  1
  H  687  1  0.55793850  0.02482450  0.96331450  1
  H  688  1  0.54264750  0.94066750  0.00860350  1
  H  690  1  0.34183100  0.01202800  0.03234000  1
  H  692  1  0.65300250  0.97762900  0.96766100  1
  H  699  1  0.40658900  0.03128750  0.53006750  1
  H  700  1  0.50665800  0.98644250  0.44576050  1
  H  701  1  0.58825400  0.95836800  0.46992700  1
  H  702  1  0.48818700  0.00321250  0.55423450  1
  H  704  1  0.35905250  0.02703350  0.48272150  1
  H  706  1  0.63579100  0.96262150  0.51727550  1
  H  713  1  0.97297400  0.45843050  0.96991550  1
  H  714  1  0.94416500  0.50315800  0.05425800  1
  H  715  1  0.02185700  0.53122800  0.03008500  1
  H  716  1  0.05066650  0.48650100  0.94574200  1
  H  718  1  0.87391850  0.46266000  0.01730700  1
  H  720  1  0.12091200  0.52699850  0.98269350  1
  H  839  1  0.76939650  0.86157250  0.77209350  1
  H  840  1  0.80662800  0.94982400  0.76124300  1
  H  841  1  0.78980900  0.95304150  0.71020350  1
  H  842  1  0.75507250  0.86430600  0.72034400  1
  H  844  1  0.80578100  0.88287650  0.81089050  1
  H  846  1  0.73112050  0.92889250  0.67661050  1
  H  853  1  0.40802650  0.62795350  0.72785750  1
  H  854  1  0.52320600  0.53987900  0.73882700  1
  H  855  1  0.45862050  0.53665500  0.78988100  1
  H  856  1  0.34473150  0.62521450  0.77961650  1
  H  858  1  0.50462600  0.60673200  0.68908500  1
  H  860  1  0.34210650  0.56065850  0.82344150  1
  H  867  1  0.63578600  0.76697950  0.63313550  1
  H  868  1  0.76196350  0.75598450  0.54506750  1
  H  869  1  0.74844450  0.70493150  0.54185850  1
  H  870  1  0.62429700  0.71520900  0.63042000  1
  H  872  1  0.69337150  0.80580200  0.61188800  1
  H  874  1  0.66543800  0.67138000  0.56589300  1
  H  881  1  0.04094500  0.72264500  0.86694300  1
  H  882  1  0.06847150  0.73369400  0.95491200  1
  H  883  1  0.00071750  0.78475700  0.95813200  1
  H  884  1  0.97499550  0.77442150  0.86966750  1
  H  886  1  0.11618700  0.68382600  0.88814500  1
  H  888  1  0.90803500  0.81828250  0.93418150  1
  H  895  1  0.22542800  0.12808375  0.22790625  1
  H  896  1  0.18818600  0.03983500  0.23876000  1
  H  897  1  0.20500800  0.03661700  0.28980000  1
  H  898  1  0.23975400  0.12535000  0.27965600  1
  H  900  1  0.18904050  0.10678050  0.18910950  1
  H  902  1  0.26370500  0.06076500  0.32338900  1
  H  909  1  0.58680600  0.36170350  0.27214250  1
  H  910  1  0.47163000  0.44977850  0.26117350  1
  H  911  1  0.53621400  0.45300300  0.21012000  1
  H  912  1  0.65009950  0.36444250  0.22038350  1
  H  914  1  0.49020800  0.38292550  0.31091350  1
  H  916  1  0.65272700  0.42900050  0.17655950  1
  H  923  1  0.35904700  0.22267900  0.36686300  1
  H  924  1  0.23287600  0.23367100  0.45493100  1
  H  925  1  0.24638850  0.28472600  0.45814100  1
  H  926  1  0.37053450  0.27444800  0.36957800  1
  H  928  1  0.30146400  0.18385450  0.38810950  1
  H  930  1  0.32939350  0.31827750  0.43410450  1
  H  937  1  0.95388600  0.26701250  0.13305750  1
  H  938  1  0.92636450  0.25596500  0.04508700  1
  H  939  1  0.99411550  0.20490250  0.04186750  1
  H  940  1  0.01983400  0.21523600  0.13033300  1
  H  942  1  0.87864700  0.30583200  0.11185400  1
  H  944  1  0.08679700  0.17137500  0.06582000  1
  H  2119  1  0.73902000  0.68890700  0.18865200  1
  H  2128  1  0.86547600  0.62247800  0.15000800  1
  H  2131  1  0.89933150  0.67119800  0.09822600  1
  H  2132  1  0.86326000  0.68189150  0.07063550  1
  H  2133  1  0.87192550  0.73861400  0.17084600  1
  H  2134  1  0.81217850  0.72999250  0.16195350  1
  H  2135  1  0.06997250  0.65717100  0.15567600  1
  H  2136  1  0.06987500  0.62111400  0.15549000  1
  H  2137  1  0.63137100  0.71121550  0.09211850  1
  H  2138  1  0.59066350  0.71629600  0.12759500  1
  H  2140  1  0.01787200  0.59056850  0.13672650  1
  H  2141  1  0.00372750  0.58950050  0.17759050  1
  H  2143  1  0.98006700  0.72276350  0.16723550  1
  H  2144  1  0.02072900  0.69321150  0.18706650  1
  H  2146  1  0.60746100  0.73803400  0.16850300  1
  H  2147  1  0.58982650  0.70156100  0.17825900  1
  H  2149  1  0.73331400  0.70323650  0.05898550  1
  H  2150  1  0.70428300  0.66983150  0.07025350  1
  H  2157  1  0.62177250  0.31099150  0.80110450  1
  H  2166  1  0.64308300  0.37742100  0.83973600  1
  H  2169  1  0.67397050  0.32871350  0.89152050  1
  H  2170  1  0.62103400  0.31800500  0.91911800  1
  H  2171  1  0.78656900  0.26130350  0.81888350  1
  H  2172  1  0.70931200  0.26991950  0.82779850  1
  H  2173  1  0.88846150  0.34292250  0.83369250  1
  H  2174  1  0.85162100  0.37888600  0.83408800  1
  H  2175  1  0.44022200  0.28845050  0.89767850  1
  H  2176  1  0.44001300  0.28336900  0.86221100  1
  H  2178  1  0.75036400  0.40937050  0.85295450  1
  H  2179  1  0.77582250  0.41044600  0.81208100  1
  H  2181  1  0.87519400  0.27715350  0.82250350  1
  H  2182  1  0.90619450  0.30667650  0.80267250  1
  H  2184  1  0.51942800  0.26177100  0.82122400  1
  H  2185  1  0.47484650  0.29822600  0.81156700  1
  H  2187  1  0.50100000  0.29657250  0.93080550  1
  H  2188  1  0.44962900  0.32989600  0.91953700  1
  H  2195  1  0.67805700  0.69371590  0.80587810  1
  H  2204  1  0.73788850  0.65513750  0.87234350  1
  H  2207  1  0.82054350  0.60330450  0.82379650  1
  H  2208  1  0.79540700  0.57559050  0.81322650  1
  H  2209  1  0.86071050  0.67587190  0.75623410  1
  H  2210  1  0.79240600  0.66691890  0.76483310  1
  H  2211  1  0.97717500  0.66128590  0.83792410  1
  H  2212  1  0.94067200  0.66094800  0.87388300  1
  H  2213  1  0.59355100  0.59710040  0.78302260  1
  H  2214  1  0.55783900  0.63256040  0.77794460  1
  H  2216  1  0.85842250  0.64200750  0.90431850  1
  H  2217  1  0.84273750  0.68289050  0.90540850  1
  H  2219  1  0.95286950  0.67234390  0.77213210  1
  H  2220  1  0.96390500  0.69224890  0.80164110  1
  H  2222  1  0.59615400  0.67363240  0.75652560  1
  H  2223  1  0.54172950  0.68317290  0.79295210  1
  H  2225  1  0.68737100  0.56397900  0.79134900  1
  H  2226  1  0.62442300  0.57525150  0.82454550  1
  H  2233  1  0.18282800  0.30621050  0.18384850  1
  H  2242  1  0.27058800  0.34481650  0.11739150  1
  H  2245  1  0.25292200  0.39668650  0.16585750  1
  H  2246  1  0.18946350  0.42431850  0.17650950  1
  H  2247  1  0.29802250  0.32401850  0.23350550  1
  H  2248  1  0.22935200  0.33293900  0.22491400  1
  H  2249  1  0.48093100  0.33908550  0.15203150  1
  H  2250  1  0.48029650  0.33937800  0.11598000  1
  H  2251  1  0.97894200  0.40285750  0.20687750  1
  H  2252  1  0.97356350  0.36739850  0.21193250  1
  H  2254  1  0.40969450  0.35808350  0.08543950  1
  H  2255  1  0.43639250  0.31721700  0.08436900  1
  H  2257  1  0.40260500  0.32757250  0.21760150  1
  H  2258  1  0.46300650  0.30767750  0.18804850  1
  H  2260  1  0.03157400  0.32628000  0.23326200  1
  H  2261  1  0.02297800  0.31679650  0.19684450  1
  H  2263  1  0.04803650  0.43597150  0.19845950  1
  H  2264  1  0.02935400  0.42471250  0.16531650  1
  H  2271  1  0.25580850  0.81101950  0.30108050  1
  H  2280  1  0.12935150  0.87744900  0.33972300  1
  H  2283  1  0.09549050  0.82872950  0.39150450  1
  H  2284  1  0.13156000  0.81803650  0.41909450  1
  H  2285  1  0.12290000  0.76131350  0.31888450  1
  H  2286  1  0.18264600  0.76993500  0.32777800  1
  H  2287  1  0.92485500  0.84275900  0.33405100  1
  H  2288  1  0.92495200  0.87881600  0.33423600  1
  H  2289  1  0.36344550  0.78870800  0.39761700  1
  H  2290  1  0.40415600  0.78362700  0.36214000  1
  H  2292  1  0.97695550  0.90936000  0.35300200  1
  H  2293  1  0.99110450  0.91042900  0.31213700  1
  H  2295  1  0.01475900  0.77716600  0.32249300  1
  H  2296  1  0.97410050  0.80671800  0.30266000  1
  H  2298  1  0.38736300  0.76189350  0.32123050  1
  H  2299  1  0.40499800  0.79836600  0.31147800  1
  H  2301  1  0.26150000  0.79669150  0.43074850  1
  H  2302  1  0.29053650  0.83009350  0.41948050  1
  H  2309  1  0.37304750  0.18893800  0.68862400  1
  H  2318  1  0.35174400  0.12250750  0.64999350  1
  H  2321  1  0.32086350  0.17121250  0.59820750  1
  H  2322  1  0.37379950  0.18191950  0.57061050  1
  H  2323  1  0.20825300  0.23862500  0.67084000  1
  H  2324  1  0.28550950  0.23000850  0.66192850  1
  H  2325  1  0.10636750  0.15700150  0.65603450  1
  H  2326  1  0.14320750  0.12103850  0.65564150  1
  H  2327  1  0.55460950  0.21147650  0.59205450  1
  H  2328  1  0.55481500  0.21655700  0.62752300  1
  H  2330  1  0.24446500  0.09055500  0.63677600  1
  H  2331  1  0.21900850  0.08948000  0.67764800  1
  H  2333  1  0.11962900  0.22277300  0.66722000  1
  H  2334  1  0.08863200  0.19324800  0.68705200  1
  H  2336  1  0.47539550  0.23815900  0.66850500  1
  H  2337  1  0.51997100  0.20170350  0.67816750  1
  H  2339  1  0.49383250  0.20335500  0.55892600  1
  H  2340  1  0.54520350  0.17003050  0.57019450  1
  H  2347  1  0.31678300  0.80621050  0.68384850  1
  H  2356  1  0.25694400  0.84479100  0.61738600  1
  H  2359  1  0.17429050  0.89662300  0.66593600  1
  H  2360  1  0.19943000  0.92433600  0.67650400  1
  H  2361  1  0.13413350  0.82405150  0.73349650  1
  H  2362  1  0.20243850  0.83300600  0.72489800  1
  H  2363  1  0.01765700  0.83864150  0.65181250  1
  H  2364  1  0.05415650  0.83898200  0.61585200  1
  H  2365  1  0.40129500  0.90282400  0.70670100  1
  H  2366  1  0.43700950  0.86736350  0.71177750  1
  H  2368  1  0.13640300  0.85792250  0.58541650  1
  H  2369  1  0.15208350  0.81703950  0.58432550  1
  H  2371  1  0.04197100  0.82758000  0.71760200  1
  H  2372  1  0.03093250  0.80767550  0.68809450  1
  H  2374  1  0.39869300  0.82629250  0.73319950  1
  H  2375  1  0.45311350  0.81675200  0.69677300  1
  H  2377  1  0.30747200  0.93594700  0.69837800  1
  H  2378  1  0.37041800  0.92467600  0.66518000  1
  H  2385  1  0.81200600  0.19371740  0.30587960  1
  H  2394  1  0.72424600  0.15511150  0.37233850  1
  H  2397  1  0.74191100  0.10324200  0.32387000  1
  H  2398  1  0.80537200  0.07561000  0.31321800  1
  H  2399  1  0.69681200  0.17591040  0.25622560  1
  H  2400  1  0.76548100  0.16698940  0.26481760  1
  H  2401  1  0.51390400  0.16084490  0.33769710  1
  H  2402  1  0.51453650  0.16055050  0.37375150  1
  H  2403  1  0.01589200  0.09707190  0.28285510  1
  H  2404  1  0.02127200  0.13252890  0.27779710  1
  H  2406  1  0.58513950  0.14184550  0.40429050  1
  H  2407  1  0.55844200  0.18271100  0.40536200  1
  H  2409  1  0.59222750  0.17235890  0.27212910  1
  H  2410  1  0.53182750  0.19225290  0.30168210  1
  H  2412  1  0.96325900  0.17364740  0.25646860  1
  H  2413  1  0.97185600  0.18313240  0.29288460  1
  H  2415  1  0.94679950  0.06395700  0.29127100  1
  H  2416  1  0.96548000  0.07521600  0.32441500  1
  H  2727  1  0.96398750  0.80581200  0.24746000  1
  H  2728  1  0.08279750  0.72210000  0.26754200  1
  H  2729  1  0.03084300  0.69411650  0.24226750  1
  H  2730  1  0.91203350  0.77782800  0.22218600  1
  H  2732  1  0.07398900  0.79920600  0.26090400  1
  H  2734  1  0.92084100  0.70072200  0.22882400  1
  H  2741  1  0.02246650  0.19411550  0.74227250  1
  H  2742  1  0.07757650  0.27784200  0.72217300  1
  H  2743  1  0.97235550  0.30581300  0.74745200  1
  H  2744  1  0.91724550  0.22208600  0.76755200  1
  H  2746  1  0.13928300  0.20073950  0.72881550  1
  H  2748  1  0.85553550  0.29919050  0.76091150  1
  H  2755  1  0.02016200  0.75241350  0.68900650  1
  H  2756  1  0.05467050  0.77277041  0.77277159  1
  H  2757  1  0.97467850  0.74751140  0.80072460  1
  H  2758  1  0.94017150  0.72715450  0.71695950  1
  H  2760  1  0.12336150  0.76597550  0.69569450  1
  H  2762  1  0.87148250  0.73394940  0.79403560  1
  H  2769  1  0.46666450  0.24748340  0.30072260  1
  H  2770  1  0.60541750  0.22718950  0.21699050  1
  H  2771  1  0.52817000  0.25244650  0.18901150  1
  H  2772  1  0.38941650  0.27273991  0.27274309  1
  H  2774  1  0.59011250  0.23394640  0.29407960  1
  H  2776  1  0.40472350  0.26598300  0.19565500  1
  H  2783  1  0.44336550  0.27999750  0.70826950  1
  H  2784  1  0.49795100  0.19577150  0.75336750  1
  H  2785  1  0.55145000  0.21993300  0.78146000  1
  H  2786  1  0.49686300  0.30416000  0.73636200  1
  H  2788  1  0.39132400  0.23273950  0.71257050  1
  H  2790  1  0.60349000  0.26719250  0.77715750  1
  H  2797  1  0.43689300  0.71996800  0.28155200  1
  H  2798  1  0.45218350  0.80412550  0.23626350  1
  H  2799  1  0.55793850  0.77995950  0.20817950  1
  H  2800  1  0.54264750  0.69580250  0.25346850  1
  H  2802  1  0.34183100  0.76716300  0.27720500  1
  H  2804  1  0.65300250  0.73276400  0.21252600  1
  H  2811  1  0.40658900  0.78642250  0.77493250  1
  H  2812  1  0.50665800  0.74157750  0.69062550  1
  H  2813  1  0.58825400  0.71350291  0.71479209  1
  H  2814  1  0.48818700  0.75834740  0.79909960  1
  H  2816  1  0.35905250  0.78216850  0.72758650  1
  H  2818  1  0.63579100  0.71775640  0.76214060  1
  H  2825  1  0.97297400  0.21356541  0.21478059  1
  H  2826  1  0.94416500  0.25829290  0.29912310  1
  H  2827  1  0.02185700  0.28636300  0.27495000  1
  H  2828  1  0.05066650  0.24163600  0.19060700  1
  H  2830  1  0.87391850  0.21779490  0.26217210  1
  H  2832  1  0.12091200  0.28213350  0.22755850  1
  H  2951  1  0.76939650  0.61670750  0.01695850  1
  H  2952  1  0.80662800  0.70495900  0.00610800  1
  H  2953  1  0.78980900  0.70817650  0.95506850  1
  H  2954  1  0.75507250  0.61944100  0.96520900  1
  H  2956  1  0.80578100  0.63801150  0.05575550  1
  H  2958  1  0.73112050  0.68402750  0.92147550  1
  H  2965  1  0.40802650  0.38308850  0.97272250  1
  H  2966  1  0.52320600  0.29501400  0.98369200  1
  H  2967  1  0.45862050  0.29179000  0.03474600  1
  H  2968  1  0.34473150  0.38034950  0.02448150  1
  H  2970  1  0.50462600  0.36186700  0.93395000  1
  H  2972  1  0.34210650  0.31579350  0.06830650  1
  H  2979  1  0.63578600  0.52211450  0.87800050  1
  H  2980  1  0.76196350  0.51111950  0.78993250  1
  H  2981  1  0.74844450  0.46006650  0.78672350  1
  H  2982  1  0.62429700  0.47034400  0.87528500  1
  H  2984  1  0.69337150  0.56093700  0.85675300  1
  H  2986  1  0.66543800  0.42651500  0.81075800  1
  H  2993  1  0.04094500  0.47778000  0.11180800  1
  H  2994  1  0.06847150  0.48882900  0.19977700  1
  H  2995  1  0.00071750  0.53989200  0.20299700  1
  H  2996  1  0.97499550  0.52955650  0.11453250  1
  H  2998  1  0.11618700  0.43896100  0.13301000  1
  H  3000  1  0.90803500  0.57341750  0.17904650  1
  H  3007  1  0.22542800  0.88321875  0.47277125  1
  H  3008  1  0.18818600  0.79497000  0.48362500  1
  H  3009  1  0.20500800  0.79175200  0.53466500  1
  H  3010  1  0.23975400  0.88048500  0.52452100  1
  H  3012  1  0.18904050  0.86191550  0.43397450  1
  H  3014  1  0.26370500  0.81590000  0.56825400  1
  H  3021  1  0.58680600  0.11683850  0.51700750  1
  H  3022  1  0.47163000  0.20491350  0.50603850  1
  H  3023  1  0.53621400  0.20813800  0.45498500  1
  H  3024  1  0.65009950  0.11957750  0.46524850  1
  H  3026  1  0.49020800  0.13806050  0.55577850  1
  H  3028  1  0.65272700  0.18413550  0.42142450  1
  H  3035  1  0.35904700  0.97781400  0.61172800  1
  H  3036  1  0.23287600  0.98880600  0.69979600  1
  H  3037  1  0.24638850  0.03986100  0.70300600  1
  H  3038  1  0.37053450  0.02958300  0.61444300  1
  H  3040  1  0.30146400  0.93898950  0.63297450  1
  H  3042  1  0.32939350  0.07341250  0.67896950  1
  H  3049  1  0.95388600  0.02214750  0.37792250  1
  H  3050  1  0.92636450  0.01110000  0.28995200  1
  H  3051  1  0.99411550  0.96003750  0.28673250  1
  H  3052  1  0.01983400  0.97037100  0.37519800  1
  H  3054  1  0.87864700  0.06096700  0.35671900  1
  H  3056  1  0.08679700  0.92651000  0.31068500  1
  N  8  1  0.63175800  0.95369950  0.86884650  1
  N  15  1  0.04513250  0.88681350  0.91591550  1
  N  17  1  0.86042400  0.91925150  0.84671150  1
  N  18  1  0.85330200  0.96748400  0.92159600  1
  N  46  1  0.45973600  0.53573650  0.63121550  1
  N  53  1  0.85301100  0.60287150  0.58403150  1
  N  55  1  0.63161900  0.57036900  0.65330900  1
  N  56  1  0.74756400  0.52216350  0.57841650  1
  N  84  1  0.59137200  0.86356600  0.54063300  1
  N  91  1  0.93690400  0.91095200  0.60812500  1
  N  93  1  0.78497550  0.84151550  0.57552450  1
  N  94  1  0.82603900  0.91639450  0.52735850  1
  N  122  1  0.00078450  0.62612367  0.95947333  1
  N  129  1  0.46110250  0.57890050  0.89197850  1
  N  131  1  0.20727650  0.64810500  0.92449800  1
  N  132  1  0.27498100  0.57324850  0.97265550  1
  N  160  1  0.36306200  0.03595500  0.13115800  1
  N  167  1  0.94969500  0.10284700  0.08408100  1
  N  169  1  0.13439700  0.07040700  0.15328900  1
  N  170  1  0.14152550  0.02217400  0.07840400  1
  N  198  1  0.53509100  0.45392100  0.36878900  1
  N  205  1  0.14181650  0.38678400  0.41596700  1
  N  207  1  0.36321250  0.41928600  0.34669100  1
  N  208  1  0.24725900  0.46749500  0.42157900  1
  N  236  1  0.40347400  0.12607367  0.45937633  1
  N  243  1  0.05792450  0.07870650  0.39188050  1
  N  245  1  0.20986000  0.14814200  0.42447600  1
  N  246  1  0.16880500  0.07325950  0.47264250  1
  N  274  1  0.99404900  0.36354250  0.04052050  1
  N  281  1  0.53373150  0.41075750  0.10802250  1
  N  283  1  0.78755600  0.34155350  0.07550050  1
  N  284  1  0.71985300  0.41641100  0.02734400  1
  N  619  1  0.05925750  0.02721050  0.03051550  1
  N  621  1  0.93557400  0.96244700  0.96948200  1
  N  633  1  0.12215650  0.46246150  0.46947350  1
  N  635  1  0.87266500  0.52719600  0.53052300  1
  N  647  1  0.09168400  0.02533500  0.46765300  1
  N  649  1  0.90315900  0.96431800  0.53234900  1
  N  661  1  0.58978950  0.46432300  0.03237900  1
  N  663  1  0.40504450  0.52533800  0.96762500  1
  N  675  1  0.43683050  0.46498700  0.46623600  1
  N  677  1  0.55798200  0.52467750  0.53376450  1
  N  689  1  0.37322900  0.02468100  0.03375500  1
  N  691  1  0.62160250  0.96497700  0.96624800  1
  N  703  1  0.40307500  0.02857800  0.47014800  1
  N  705  1  0.59176800  0.96107650  0.52984950  1
  N  717  1  0.90696300  0.46108400  0.02985800  1
  N  719  1  0.08786700  0.52857450  0.97014250  1
  N  843  1  0.79792400  0.90495450  0.80223250  1
  N  845  1  0.76460450  0.90934150  0.67950950  1
  N  857  1  0.51030900  0.58466250  0.69777150  1
  N  859  1  0.35875650  0.58026400  0.82051700  1
  N  871  1  0.70796600  0.79706600  0.58983600  1
  N  873  1  0.67923300  0.67429650  0.58548150  1
  N  885  1  0.10008400  0.69257800  0.91019100  1
  N  887  1  0.94427100  0.81535800  0.91456700  1
  N  899  1  0.19689550  0.08470300  0.19777100  1
  N  901  1  0.23021850  0.08031600  0.32049200  1
  N  913  1  0.48452450  0.40499550  0.30222850  1
  N  915  1  0.63607750  0.40939400  0.17948300  1
  N  927  1  0.28687100  0.19259050  0.41016150  1
  N  929  1  0.31559850  0.31536050  0.41451650  1
  N  941  1  0.89475050  0.29708050  0.08980850  1
  N  943  1  0.05055850  0.17429950  0.08543250  1
  N  2120  1  0.63175800  0.70883450  0.11371150  1
  N  2127  1  0.04513250  0.64194850  0.16078050  1
  N  2129  1  0.86042400  0.67438650  0.09157650  1
  N  2130  1  0.85330200  0.72261900  0.16646100  1
  N  2158  1  0.45973600  0.29087150  0.87608050  1
  N  2165  1  0.85301100  0.35800650  0.82889650  1
  N  2167  1  0.63161900  0.32550400  0.89817400  1
  N  2168  1  0.74756400  0.27729850  0.82328150  1
  N  2196  1  0.59137200  0.61870090  0.78549810  1
  N  2203  1  0.93690400  0.66608690  0.85299010  1
  N  2205  1  0.78497550  0.59665050  0.82038950  1
  N  2206  1  0.82603900  0.67152940  0.77222360  1
  N  2234  1  0.00078450  0.38125250  0.20434450  1
  N  2241  1  0.46110250  0.33403550  0.13684350  1
  N  2243  1  0.20727650  0.40324000  0.16936300  1
  N  2244  1  0.27498100  0.32838350  0.21752050  1
  N  2272  1  0.36306200  0.79109000  0.37602300  1
  N  2279  1  0.94969500  0.85798200  0.32894600  1
  N  2281  1  0.13439700  0.82554200  0.39815400  1
  N  2282  1  0.14152550  0.77730900  0.32326900  1
  N  2310  1  0.53509100  0.20905600  0.61365400  1
  N  2317  1  0.14181650  0.14191900  0.66083200  1
  N  2319  1  0.36321250  0.17442100  0.59155600  1
  N  2320  1  0.24725900  0.22263000  0.66644400  1
  N  2348  1  0.40347400  0.88122350  0.70422650  1
  N  2355  1  0.05792450  0.83384150  0.63674550  1
  N  2357  1  0.20986000  0.90327700  0.66934100  1
  N  2358  1  0.16880500  0.82839450  0.71750750  1
  N  2386  1  0.99404900  0.11867740  0.28538560  1
  N  2393  1  0.53373150  0.16589240  0.35288760  1
  N  2395  1  0.78755600  0.09668850  0.32036550  1
  N  2396  1  0.71985300  0.17154590  0.27220910  1
  N  2731  1  0.05925750  0.78234550  0.27538050  1
  N  2733  1  0.93557400  0.71758200  0.21434700  1
  N  2745  1  0.12215650  0.21759650  0.71433850  1
  N  2747  1  0.87266500  0.28233100  0.77538800  1
  N  2759  1  0.09168400  0.78047000  0.71251800  1
  N  2761  1  0.90315900  0.71945290  0.77721410  1
  N  2773  1  0.58978950  0.21945790  0.27724410  1
  N  2775  1  0.40504450  0.28047300  0.21249000  1
  N  2787  1  0.43683050  0.22012200  0.71110100  1
  N  2789  1  0.55798200  0.27981250  0.77862950  1
  N  2801  1  0.37322900  0.77981600  0.27862000  1
  N  2803  1  0.62160250  0.72011200  0.21111300  1
  N  2815  1  0.40307500  0.78371300  0.71501300  1
  N  2817  1  0.59176800  0.71621140  0.77471460  1
  N  2829  1  0.90696300  0.21621890  0.27472310  1
  N  2831  1  0.08786700  0.28370950  0.21500750  1
  N  2955  1  0.79792400  0.66008950  0.04709750  1
  N  2957  1  0.76460450  0.66447650  0.92437450  1
  N  2969  1  0.51030900  0.33979750  0.94263650  1
  N  2971  1  0.35875650  0.33539900  0.06538200  1
  N  2983  1  0.70796600  0.55220100  0.83470100  1
  N  2985  1  0.67923300  0.42943150  0.83034650  1
  N  2997  1  0.10008400  0.44771300  0.15505600  1
  N  2999  1  0.94427100  0.57049300  0.15943200  1
  N  3011  1  0.19689550  0.83983800  0.44263600  1
  N  3013  1  0.23021850  0.83545100  0.56535700  1
  N  3025  1  0.48452450  0.16013050  0.54709350  1
  N  3027  1  0.63607750  0.16452900  0.42434800  1
  N  3039  1  0.28687100  0.94772550  0.65502650  1
  N  3041  1  0.31559850  0.07049550  0.65938150  1
  N  3053  1  0.89475050  0.05221550  0.33467350  1
  N  3055  1  0.05055850  0.92943450  0.33029750  1
