# generated using pymatgen
data_H26C40N7O2
_symmetry_space_group_name_H-M   'P 1'
_cell_length_a   68.24360000
_cell_length_b   68.24360000
_cell_length_c   68.22700000
_cell_angle_alpha   90.00000000
_cell_angle_beta   90.00000000
_cell_angle_gamma   90.00000000
_symmetry_Int_Tables_number   1
_chemical_formula_structural   H26C40N7O2
_chemical_formula_sum   'H936 C1440 N252 O72'
_cell_volume   317746.02987488
_cell_formula_units_Z   36
loop_
 _symmetry_equiv_pos_site_id
 _symmetry_equiv_pos_as_xyz
  1  'x, y, z'
loop_
 _atom_site_type_symbol
 _atom_site_label
 _atom_site_symmetry_multiplicity
 _atom_site_fract_x
 _atom_site_fract_y
 _atom_site_fract_z
 _atom_site_occupancy
  H  10  1  0.49668200  0.00840000  0.01199900  1
  H  11  1  0.49626900  0.03327200  0.06644600  1
  H  12  1  0.49619700  0.06057400  0.04132800  1
  H  13  1  0.46427700  0.07055300  0.00087500  1
  H  14  1  0.46237200  0.10548900  0.00225000  1
  H  18  1  0.52597900  0.07367100  0.00420600  1
  H  19  1  0.52414000  0.10866100  0.00604700  1
  H  24  1  0.46564400  0.16783800  0.02571900  1
  H  25  1  0.46870900  0.13309700  0.02584900  1
  H  29  1  0.51439800  0.20134800  0.00341900  1
  H  31  1  0.48526600  0.32220000  0.01427200  1
  H  35  1  0.52836000  0.23391600  0.01074200  1
  H  39  1  0.49852100  0.42148000  0.02635500  1
  H  40  1  0.50110300  0.38651800  0.02571000  1
  H  41  1  0.48152600  0.35680700  0.01433400  1
  H  49  1  0.00976700  0.49675700  0.01076000  1
  H  50  1  0.06428500  0.49619000  0.03545100  1
  H  51  1  0.03926400  0.49623600  0.06284400  1
  H  52  1  0.00009000  0.46258100  0.10791900  1
  H  56  1  0.00239000  0.52615500  0.07604400  1
  H  57  1  0.07087900  0.46431800  0.99979300  1
  H  58  1  0.10581700  0.46247100  0.99983800  1
  H  61  1  0.13641000  0.51637700  0.01470900  1
  H  62  1  0.17114900  0.51384200  0.01639400  1
  H  66  1  0.32309300  0.51591500  0.01530900  1
  H  71  1  0.27543700  0.46816100  0.02871600  1
  H  72  1  0.25230200  0.46222900  0.03355200  1
  H  74  1  0.29328600  0.49579700  0.01839600  1
  H  79  1  0.35790000  0.51473500  0.01719000  1
  H  80  1  0.38545600  0.49174600  0.02524700  1
  H  81  1  0.42049400  0.49235500  0.02652800  1
  H  85  1  0.57288300  0.49859200  0.02640400  1
  H  86  1  0.60783700  0.50136700  0.02585600  1
  H  87  1  0.63750700  0.48187500  0.01429700  1
  H  89  1  0.67213000  0.48542900  0.01422300  1
  H  93  1  0.76067100  0.52816400  0.01072100  1
  H  99  1  0.86125900  0.46815200  0.02533500  1
  H  100  1  0.82652000  0.46508000  0.02510500  1
  H  104  1  0.79313100  0.51408600  0.00329200  1
  H  105  1  0.88562900  0.52382100  0.00611100  1
  H  106  1  0.99905600  0.46447300  0.07297800  1
  H  107  1  0.88903900  0.46209000  0.00190900  1
  H  117  1  0.93338100  0.49585300  0.04194600  1
  H  118  1  0.96090000  0.49601700  0.06706100  1
  H  119  1  0.92398100  0.46412100  0.00086900  1
  H  123  1  0.92062300  0.52578700  0.00459500  1
  H  127  1  0.49174000  0.57388500  0.02656400  1
  H  128  1  0.49136200  0.60893200  0.02532300  1
  H  129  1  0.51439800  0.63647700  0.01717800  1
  H  131  1  0.51556300  0.67128800  0.01531100  1
  H  136  1  0.46790600  0.71891900  0.02903400  1
  H  137  1  0.46196000  0.74204900  0.03386700  1
  H  139  1  0.49544400  0.70108800  0.01851100  1
  H  143  1  0.51347400  0.82318500  0.01640700  1
  H  144  1  0.51602100  0.85792100  0.01477300  1
  H  145  1  0.46201000  0.88857900  0.00042500  1
  H  150  1  0.52574200  0.99056800  0.07628400  1
  H  160  1  0.49556700  0.92960400  0.03638800  1
  H  161  1  0.49564600  0.95482100  0.06379700  1
  H  162  1  0.46440000  0.99798800  0.07316900  1
  H  163  1  0.46257400  0.99816500  0.10811400  1
  H  164  1  0.46389100  0.92351400  0.00060000  1
  H  167  1  0.51643100  0.01289400  0.13863300  1
  H  168  1  0.51389400  0.01468600  0.17337700  1
  H  169  1  0.00431200  0.52432800  0.11103900  1
  H  175  1  0.02363900  0.46571500  0.17024600  1
  H  176  1  0.02376300  0.46877100  0.13549500  1
  H  180  1  0.00172200  0.51463400  0.20375200  1
  H  183  1  0.98276600  0.51462800  0.13938200  1
  H  184  1  0.98281900  0.51173900  0.17412200  1
  H  185  1  0.52394100  0.99011200  0.11130700  1
  H  191  1  0.46680900  0.97629400  0.13693500  1
  H  192  1  0.46398800  0.97851800  0.17164500  1
  H  196  1  0.51507800  0.99467500  0.20359100  1
  H  198  1  0.51596300  0.01349300  0.32542200  1
  H  203  1  0.46825300  0.02699100  0.27771700  1
  H  204  1  0.46231600  0.03181000  0.25457400  1
  H  206  1  0.49585700  0.01663700  0.29560100  1
  H  208  1  0.01250400  0.48562800  0.32467500  1
  H  211  1  0.00917800  0.52856700  0.23630700  1
  H  214  1  0.97254000  0.53233400  0.32967600  1
  H  221  1  0.97816800  0.46148600  0.27699900  1
  H  222  1  0.97799100  0.45394400  0.25388200  1
  H  224  1  0.99477900  0.48293900  0.29579900  1
  H  226  1  0.47715200  0.96568900  0.32655300  1
  H  232  1  0.52499000  0.98083500  0.23606800  1
  H  236  1  0.51471900  0.01532000  0.36023400  1
  H  237  1  0.49164600  0.02332800  0.38776000  1
  H  238  1  0.49224400  0.02455700  0.42280800  1
  H  242  1  0.02427500  0.49907000  0.42407600  1
  H  243  1  0.02379300  0.50164900  0.38909400  1
  H  244  1  0.01248600  0.48190200  0.35929900  1
  H  252  1  0.99520800  0.46051400  0.43321100  1
  H  253  1  0.99351400  0.53939300  0.43527800  1
  H  254  1  0.97311400  0.52904000  0.36438200  1
  H  255  1  0.96230400  0.50400800  0.39019000  1
  H  256  1  0.96288200  0.50167300  0.42518800  1
  H  264  1  0.47557000  0.96776800  0.36134500  1
  H  265  1  0.49774300  0.96211200  0.38994500  1
  H  266  1  0.49779300  0.96339100  0.42493600  1
  H  267  1  0.45592000  0.99372400  0.43521000  1
  H  268  1  0.53475500  0.99502200  0.43174000  1
  H  274  1  0.00861100  0.00991200  0.49892300  1
  H  275  1  0.00075700  0.07287000  0.52702400  1
  H  276  1  0.03399500  0.06381500  0.49312600  1
  H  277  1  0.06098000  0.03833800  0.49317300  1
  H  280  1  0.10827000  0.00418900  0.52514000  1
  H  282  1  0.07324800  0.00241000  0.52658600  1
  H  287  1  0.16784100  0.02284600  0.46694100  1
  H  288  1  0.13307200  0.02263300  0.46964700  1
  H  292  1  0.20124800  0.00149000  0.51633200  1
  H  294  1  0.32216900  0.01234800  0.48747900  1
  H  297  1  0.23377300  0.00899300  0.53035900  1
  H  301  1  0.42145900  0.02440600  0.50070100  1
  H  302  1  0.38649800  0.02381000  0.50330100  1
  H  303  1  0.35677800  0.01236800  0.48374400  1
  H  307  1  0.57381600  0.02454300  0.49384600  1
  H  308  1  0.60886300  0.02332100  0.49350300  1
  H  309  1  0.63635400  0.01532000  0.51664900  1
  H  311  1  0.67115900  0.01347400  0.51793400  1
  H  316  1  0.71880400  0.02693300  0.47022900  1
  H  317  1  0.74192900  0.03177600  0.46426300  1
  H  319  1  0.70099500  0.01659200  0.49786600  1
  H  322  1  0.82315400  0.01460500  0.51593700  1
  H  323  1  0.85793500  0.01324100  0.51820500  1
  H  324  1  0.88808000  0.99989100  0.46382200  1
  H  327  1  0.99982600  0.10792700  0.52718700  1
  H  337  1  0.93013700  0.03513900  0.49939900  1
  H  338  1  0.95570900  0.06222500  0.49945600  1
  H  339  1  0.98875400  0.07260900  0.46638000  1
  H  340  1  0.98743200  0.10770500  0.46647400  1
  H  341  1  0.92304600  0.00014500  0.46522600  1
  H  344  1  0.01887700  0.13724500  0.51149400  1
  H  345  1  0.01563200  0.17198100  0.51340800  1
  H  347  1  0.01322000  0.20192800  0.49403900  1
  H  353  1  0.96427200  0.13363600  0.48334400  1
  H  354  1  0.96112300  0.16838100  0.48500400  1
  H  358  1  0.01249100  0.32315900  0.51796100  1
  H  361  1  0.02298800  0.23443500  0.48122400  1
  H  365  1  0.98061400  0.32597300  0.46516900  1
  H  372  1  0.96679500  0.27543800  0.52859600  1
  H  373  1  0.96121700  0.25221900  0.53337400  1
  H  375  1  0.99349800  0.29357500  0.51802700  1
  H  379  1  0.01110700  0.35794700  0.52064100  1
  H  380  1  0.02521900  0.38715600  0.50025800  1
  H  381  1  0.02484000  0.42219600  0.50189400  1
  H  388  1  0.97954100  0.36078400  0.46770200  1
  H  389  1  0.96431200  0.38694200  0.49144800  1
  H  390  1  0.96400700  0.42202200  0.49302600  1
  H  391  1  0.99550000  0.43339200  0.45856000  1
  H  392  1  0.99323300  0.43010800  0.53744400  1
  H  417  1  0.99355800  0.48576100  0.48746000  1
  H  418  1  0.99482600  0.50909500  0.51242900  1
  H  422  1  0.02397300  0.57422400  0.50228100  1
  H  423  1  0.02228500  0.60922800  0.50421500  1
  H  424  1  0.01039300  0.63769800  0.48264900  1
  H  433  1  0.99518900  0.56151100  0.54132700  1
  H  434  1  0.99371500  0.56481300  0.46251000  1
  H  435  1  0.96258600  0.57117400  0.50279700  1
  H  436  1  0.96081400  0.60614200  0.50441300  1
  H  437  1  0.96954900  0.63333100  0.52859900  1
  H  438  1  0.00815200  0.67243700  0.48391800  1
  H  443  1  0.03602800  0.71952400  0.51969500  1
  H  444  1  0.04382300  0.74257200  0.52001700  1
  H  446  1  0.01410200  0.70101200  0.50253900  1
  H  448  1  0.96730500  0.66811000  0.52991600  1
  H  454  1  0.96936900  0.76081100  0.48924300  1
  H  460  1  0.03010800  0.86245700  0.47962000  1
  H  461  1  0.03406100  0.82779900  0.48032300  1
  H  462  1  0.00604700  0.88808500  0.46525400  1
  H  467  1  0.99711600  0.88695200  0.52650700  1
  H  468  1  0.98249400  0.82260500  0.51360600  1
  H  469  1  0.97829700  0.85721000  0.51244400  1
  H  471  1  0.98346400  0.79305300  0.49507100  1
  H  474  1  0.07093500  0.99718700  0.46499800  1
  H  475  1  0.10590100  0.99859900  0.46349500  1
  H  485  1  0.03835800  0.93300300  0.49892600  1
  H  486  1  0.06393300  0.96009700  0.49893000  1
  H  487  1  0.00403200  0.92312100  0.46564700  1
  H  490  1  0.13691800  0.98229700  0.51610400  1
  H  491  1  0.17168500  0.98263300  0.51352500  1
  H  494  1  0.32723400  0.97251600  0.53430300  1
  H  501  1  0.27461200  0.97772200  0.46350600  1
  H  502  1  0.25152100  0.97752000  0.45589900  1
  H  504  1  0.29334800  0.99459400  0.48483400  1
  H  512  1  0.43063100  0.99344000  0.46240800  1
  H  513  1  0.43286800  0.99401700  0.54131400  1
  H  514  1  0.36193000  0.97314800  0.53101600  1
  H  515  1  0.38783000  0.96234800  0.50619000  1
  H  516  1  0.42282200  0.96304400  0.50387400  1
  H  541  1  0.48489400  0.99581400  0.48754600  1
  H  542  1  0.50993400  0.99427600  0.51081800  1
  H  550  1  0.56202800  0.99482900  0.45711500  1
  H  551  1  0.57166700  0.96338100  0.49944300  1
  H  552  1  0.60664600  0.96211100  0.49964800  1
  H  553  1  0.56422000  0.99550300  0.53600200  1
  H  554  1  0.63526500  0.96774600  0.47751900  1
  H  556  1  0.67004400  0.96564800  0.47914000  1
  H  562  1  0.76057500  0.98078400  0.52689100  1
  H  563  1  0.88573900  0.99043400  0.52497100  1
  H  569  1  0.82502700  0.97926100  0.46542700  1
  H  570  1  0.85977700  0.97751600  0.46794100  1
  H  574  1  0.79303000  0.99463200  0.51692000  1
  H  577  1  0.92077800  0.99121500  0.52635800  1
  H  591  1  0.93305500  0.95691300  0.49298800  1
  H  592  1  0.96005900  0.93142400  0.49294400  1
  H  593  1  0.98540400  0.98531100  0.49901200  1
  H  594  1  0.99493100  0.92195600  0.52679700  1
  H  598  1  0.49853000  0.02443600  0.57515100  1
  H  599  1  0.50129400  0.02390000  0.61011500  1
  H  600  1  0.48174300  0.01230200  0.63976300  1
  H  605  1  0.02440300  0.49219600  0.57635800  1
  H  606  1  0.02316200  0.49181300  0.61141200  1
  H  607  1  0.01515200  0.51489800  0.63898300  1
  H  615  1  0.99348400  0.45555300  0.56466100  1
  H  616  1  0.96325200  0.49790500  0.57417700  1
  H  617  1  0.96196100  0.49805700  0.60916800  1
  H  618  1  0.99540900  0.53440900  0.56667200  1
  H  619  1  0.96759300  0.47576200  0.63769500  1
  H  627  1  0.53895700  0.99519700  0.56316900  1
  H  628  1  0.46015600  0.99387500  0.56668000  1
  H  629  1  0.50219900  0.96309800  0.57384300  1
  H  630  1  0.50467100  0.96245800  0.60882800  1
  H  631  1  0.52931100  0.97342200  0.63482600  1
  H  633  1  0.48523800  0.01221300  0.67440200  1
  H  636  1  0.52769600  0.00874500  0.76304500  1
  H  637  1  0.01331200  0.51599400  0.67380700  1
  H  642  1  0.02664300  0.46802800  0.72137000  1
  H  643  1  0.03137300  0.46197700  0.74450100  1
  H  645  1  0.01641900  0.49572600  0.70355400  1
  H  647  1  0.96550000  0.47719500  0.67249200  1
  H  653  1  0.98059700  0.52479100  0.76310700  1
  H  656  1  0.53235800  0.97271100  0.66954900  1
  H  663  1  0.46106700  0.97757400  0.72178600  1
  H  664  1  0.45335700  0.97728300  0.74484700  1
  H  666  1  0.48251400  0.99442400  0.70318100  1
  H  672  1  0.46753400  0.02266600  0.86361600  1
  H  673  1  0.46446400  0.02255300  0.82886400  1
  H  677  1  0.51359700  0.00112800  0.79545000  1
  H  678  1  0.52330600  0.00360000  0.88784900  1
  H  681  1  0.01433600  0.51344200  0.82571100  1
  H  682  1  0.01261900  0.51596600  0.86045100  1
  H  683  1  0.98992100  0.52352900  0.88782600  1
  H  689  1  0.97804900  0.46362600  0.82748500  1
  H  690  1  0.97591000  0.46642800  0.86220900  1
  H  694  1  0.99432000  0.51473300  0.79556000  1
  H  697  1  0.51070300  0.98197900  0.82493600  1
  H  698  1  0.51360600  0.98190900  0.85967400  1
  H  705  1  0.49538700  0.03929700  0.93550500  1
  H  706  1  0.49565400  0.06451100  0.96293300  1
  H  710  1  0.52534300  0.00206600  0.92284400  1
  H  713  1  0.51428300  0.13696500  0.98452800  1
  H  714  1  0.51138400  0.17169500  0.98457400  1
  H  716  1  0.53187400  0.32730100  0.97419900  1
  H  723  1  0.46102500  0.27450600  0.98014900  1
  H  724  1  0.45350300  0.25138900  0.98005300  1
  H  726  1  0.48257000  0.29333700  0.99659200  1
  H  734  1  0.46013000  0.43069400  0.99544200  1
  H  735  1  0.53901800  0.43291800  0.99594700  1
  H  736  1  0.52858700  0.36199300  0.97487400  1
  H  737  1  0.50375600  0.38792100  0.96422500  1
  H  738  1  0.50146400  0.42291100  0.96497000  1
  H  741  1  0.07400400  0.52563300  0.99260300  1
  H  742  1  0.10901200  0.52381000  0.99201300  1
  H  752  1  0.03384800  0.49550100  0.93187200  1
  H  753  1  0.06135100  0.49548200  0.95698500  1
  H  759  1  0.13457900  0.46660800  0.97830800  1
  H  760  1  0.16928800  0.46379100  0.98042700  1
  H  762  1  0.20131700  0.51493000  0.99633000  1
  H  765  1  0.32437000  0.47710800  0.96749700  1
  H  770  1  0.23377900  0.52480400  0.98245900  1
  H  777  1  0.35915300  0.47558900  0.96963200  1
  H  778  1  0.38773200  0.49776400  0.96401600  1
  H  779  1  0.42271100  0.49782700  0.96534700  1
  H  780  1  0.43294200  0.45598600  0.99573800  1
  H  781  1  0.42948600  0.53482500  0.99699400  1
  H  806  1  0.48527000  0.48495400  0.99777700  1
  H  807  1  0.50854900  0.50998800  0.99626500  1
  H  815  1  0.56088900  0.53900300  0.99716700  1
  H  816  1  0.56438700  0.46019800  0.99581100  1
  H  817  1  0.57155800  0.50223000  0.96505200  1
  H  818  1  0.60653300  0.50471300  0.96440100  1
  H  819  1  0.63251600  0.52935200  0.97530700  1
  H  821  1  0.66722400  0.53245400  0.97461000  1
  H  828  1  0.71964300  0.46116700  0.97999300  1
  H  829  1  0.74272200  0.45353000  0.97978100  1
  H  831  1  0.70095700  0.48274400  0.99653200  1
  H  834  1  0.82273500  0.51118500  0.98436000  1
  H  835  1  0.85746900  0.51408900  0.98440800  1
  H  836  1  0.99790200  0.46215000  0.89097400  1
  H  839  1  0.99076700  0.52535500  0.92283600  1
  H  849  1  0.99811700  0.46400400  0.92592100  1
  H  850  1  0.95545500  0.49491400  0.93608000  1
  H  851  1  0.93042700  0.49516100  0.96349000  1
  H  852  1  0.98493600  0.49714300  0.98812600  1
  H  860  1  0.45486600  0.56209100  0.99681800  1
  H  861  1  0.49701400  0.57170300  0.96536100  1
  H  862  1  0.49717600  0.60668100  0.96406800  1
  H  863  1  0.53373100  0.56426800  0.99749100  1
  H  864  1  0.47501300  0.63525100  0.96981300  1
  H  866  1  0.47651500  0.67003400  0.96769300  1
  H  871  1  0.52422800  0.76061800  0.98241500  1
  H  872  1  0.52328300  0.88538000  0.99213200  1
  H  878  1  0.46311900  0.82515700  0.98086800  1
  H  879  1  0.46594400  0.85986800  0.97879700  1
  H  881  1  0.51438700  0.79306200  0.99630500  1
  H  883  1  0.46159600  0.99957800  0.89136700  1
  H  884  1  0.46369500  0.99852600  0.92631800  1
  H  887  1  0.52514700  0.92037900  0.99294900  1
  H  898  1  0.49455300  0.93353200  0.95795500  1
  H  899  1  0.49467800  0.96085300  0.93283300  1
  H  900  1  0.49697600  0.98566500  0.98725700  1
  H  910  1  0.61390900  0.12562700  0.12925500  1
  H  911  1  0.61349600  0.15049900  0.18370200  1
  H  912  1  0.61342400  0.17780100  0.15858400  1
  H  913  1  0.58150400  0.18778000  0.11813100  1
  H  914  1  0.57959900  0.22271600  0.11950600  1
  H  918  1  0.64320600  0.19089800  0.12146200  1
  H  919  1  0.64136700  0.22588800  0.12330300  1
  H  924  1  0.58287100  0.28506500  0.14297500  1
  H  925  1  0.58593600  0.25032400  0.14310500  1
  H  929  1  0.63162500  0.31857500  0.12067500  1
  H  931  1  0.60249300  0.43942700  0.13152800  1
  H  935  1  0.64558700  0.35114300  0.12799800  1
  H  939  1  0.61574800  0.53870700  0.14361100  1
  H  940  1  0.61833000  0.50374500  0.14296600  1
  H  941  1  0.59875300  0.47403400  0.13159000  1
  H  949  1  0.12699400  0.61398400  0.12801600  1
  H  950  1  0.18151200  0.61341700  0.15270700  1
  H  951  1  0.15649100  0.61346300  0.18010000  1
  H  952  1  0.11731700  0.57980800  0.22517500  1
  H  956  1  0.11961700  0.64338200  0.19330000  1
  H  957  1  0.18810600  0.58154500  0.11704900  1
  H  958  1  0.22304400  0.57969800  0.11709400  1
  H  961  1  0.25363700  0.63360400  0.13196500  1
  H  962  1  0.28837600  0.63106900  0.13365000  1
  H  966  1  0.44032000  0.63314200  0.13256500  1
  H  971  1  0.39266400  0.58538800  0.14597200  1
  H  972  1  0.36952900  0.57945600  0.15080800  1
  H  974  1  0.41051300  0.61302400  0.13565200  1
  H  979  1  0.47512700  0.63196200  0.13444600  1
  H  980  1  0.50268300  0.60897300  0.14250300  1
  H  981  1  0.53772100  0.60958200  0.14378400  1
  H  985  1  0.69011000  0.61581900  0.14366000  1
  H  986  1  0.72506400  0.61859400  0.14311200  1
  H  987  1  0.75473400  0.59910200  0.13155300  1
  H  989  1  0.78935700  0.60265600  0.13147900  1
  H  993  1  0.87789800  0.64539100  0.12797700  1
  H  999  1  0.97848600  0.58537900  0.14259100  1
  H  1000  1  0.94374700  0.58230700  0.14236100  1
  H  1004  1  0.91035800  0.63131300  0.12054800  1
  H  1005  1  0.00285611  0.64104800  0.12336700  1
  H  1006  1  0.11628300  0.58170000  0.19023400  1
  H  1007  1  0.00626611  0.57931700  0.11916500  1
  H  1017  1  0.05060810  0.61308000  0.15920200  1
  H  1018  1  0.07812710  0.61324400  0.18431700  1
  H  1019  1  0.04120810  0.58134800  0.11812500  1
  H  1023  1  0.03785010  0.64301400  0.12185100  1
  H  1027  1  0.60896700  0.69111200  0.14382000  1
  H  1028  1  0.60858900  0.72615900  0.14257900  1
  H  1029  1  0.63162500  0.75370400  0.13443400  1
  H  1031  1  0.63279000  0.78851500  0.13256700  1
  H  1036  1  0.58513300  0.83614600  0.14629000  1
  H  1037  1  0.57918700  0.85927600  0.15112300  1
  H  1039  1  0.61267100  0.81831500  0.13576700  1
  H  1043  1  0.63070100  0.94041200  0.13366300  1
  H  1044  1  0.63324800  0.97514800  0.13202900  1
  H  1045  1  0.57923700  0.00580611  0.11768100  1
  H  1050  1  0.64296900  0.10779500  0.19354000  1
  H  1060  1  0.61279400  0.04683110  0.15364400  1
  H  1061  1  0.61287300  0.07204810  0.18105300  1
  H  1062  1  0.58162700  0.11521500  0.19042500  1
  H  1063  1  0.57980100  0.11539200  0.22537000  1
  H  1064  1  0.58111800  0.04074110  0.11785600  1
  H  1067  1  0.63365800  0.13012100  0.25588900  1
  H  1068  1  0.63112100  0.13191300  0.29063300  1
  H  1069  1  0.12153900  0.64155500  0.22829500  1
  H  1075  1  0.14086600  0.58294200  0.28750200  1
  H  1076  1  0.14099000  0.58599800  0.25275100  1
  H  1080  1  0.11894900  0.63186100  0.32100800  1
  H  1083  1  0.09999310  0.63185500  0.25663800  1
  H  1084  1  0.10004600  0.62896600  0.29137800  1
  H  1085  1  0.64116800  0.10733900  0.22856300  1
  H  1091  1  0.58403600  0.09352110  0.25419100  1
  H  1092  1  0.58121500  0.09574510  0.28890100  1
  H  1096  1  0.63230500  0.11190200  0.32084700  1
  H  1098  1  0.63319000  0.13072000  0.44267800  1
  H  1103  1  0.58548000  0.14421800  0.39497300  1
  H  1104  1  0.57954300  0.14903700  0.37183000  1
  H  1106  1  0.61308400  0.13386400  0.41285700  1
  H  1108  1  0.12973100  0.60285500  0.44193100  1
  H  1111  1  0.12640500  0.64579400  0.35356300  1
  H  1114  1  0.08976710  0.64956100  0.44693200  1
  H  1121  1  0.09539510  0.57871300  0.39425500  1
  H  1122  1  0.09521810  0.57117100  0.37113800  1
  H  1124  1  0.11200600  0.60016600  0.41305500  1
  H  1126  1  0.59437900  0.08291610  0.44380900  1
  H  1132  1  0.64221700  0.09806210  0.35332400  1
  H  1136  1  0.63194600  0.13254700  0.47749000  1
  H  1137  1  0.60887300  0.14055500  0.50501600  1
  H  1138  1  0.60947100  0.14178400  0.54006400  1
  H  1142  1  0.14150200  0.61629700  0.54133200  1
  H  1143  1  0.14102000  0.61887600  0.50635000  1
  H  1144  1  0.12971300  0.59912900  0.47655500  1
  H  1152  1  0.11243500  0.57774100  0.55046700  1
  H  1153  1  0.11074100  0.65662000  0.55253400  1
  H  1154  1  0.09034110  0.64626700  0.48163800  1
  H  1155  1  0.07953110  0.62123500  0.50744600  1
  H  1156  1  0.08010910  0.61890000  0.54244400  1
  H  1164  1  0.59279700  0.08499510  0.47860100  1
  H  1165  1  0.61497000  0.07933910  0.50720100  1
  H  1166  1  0.61502000  0.08061810  0.54219200  1
  H  1167  1  0.57314700  0.11095100  0.55246600  1
  H  1168  1  0.65198200  0.11224900  0.54899600  1
  H  1174  1  0.12583800  0.12713900  0.61617900  1
  H  1175  1  0.11798400  0.19009700  0.64428000  1
  H  1176  1  0.15122200  0.18104200  0.61038200  1
  H  1177  1  0.17820700  0.15556500  0.61042900  1
  H  1180  1  0.22549700  0.12141600  0.64239600  1
  H  1182  1  0.19047500  0.11963700  0.64384200  1
  H  1187  1  0.28506800  0.14007300  0.58419700  1
  H  1188  1  0.25029900  0.13986000  0.58690300  1
  H  1192  1  0.31847500  0.11871700  0.63358800  1
  H  1194  1  0.43939600  0.12957500  0.60473500  1
  H  1197  1  0.35100000  0.12622000  0.64761500  1
  H  1201  1  0.53868600  0.14163300  0.61795700  1
  H  1202  1  0.50372500  0.14103700  0.62055700  1
  H  1203  1  0.47400500  0.12959500  0.60100000  1
  H  1207  1  0.69104300  0.14177000  0.61110200  1
  H  1208  1  0.72609000  0.14054800  0.61075900  1
  H  1209  1  0.75358100  0.13254700  0.63390500  1
  H  1211  1  0.78838600  0.13070100  0.63519000  1
  H  1216  1  0.83603100  0.14416000  0.58748500  1
  H  1217  1  0.85915600  0.14900300  0.58151900  1
  H  1219  1  0.81822200  0.13381900  0.61512200  1
  H  1222  1  0.94038100  0.13183200  0.63319300  1
  H  1223  1  0.97516200  0.13046800  0.63546100  1
  H  1224  1  0.00530711  0.11711800  0.58107800  1
  H  1227  1  0.11705300  0.22515400  0.64444300  1
  H  1237  1  0.04736410  0.15236600  0.61665500  1
  H  1238  1  0.07293610  0.17945200  0.61671200  1
  H  1239  1  0.10598100  0.18983600  0.58363600  1
  H  1240  1  0.10465900  0.22493200  0.58373000  1
  H  1241  1  0.04027310  0.11737200  0.58248200  1
  H  1244  1  0.13610400  0.25447200  0.62875000  1
  H  1245  1  0.13285900  0.28920800  0.63066400  1
  H  1247  1  0.13044700  0.31915500  0.61129500  1
  H  1253  1  0.08149910  0.25086300  0.60060000  1
  H  1254  1  0.07835010  0.28560800  0.60226000  1
  H  1258  1  0.12971800  0.44038600  0.63521700  1
  H  1261  1  0.14021500  0.35166200  0.59848000  1
  H  1265  1  0.09784110  0.44320000  0.58242500  1
  H  1272  1  0.08402210  0.39266500  0.64585200  1
  H  1273  1  0.07844410  0.36944600  0.65063000  1
  H  1275  1  0.11072500  0.41080200  0.63528300  1
  H  1279  1  0.12833400  0.47517400  0.63789700  1
  H  1280  1  0.14244600  0.50438300  0.61751400  1
  H  1281  1  0.14206700  0.53942300  0.61915000  1
  H  1288  1  0.09676810  0.47801100  0.58495800  1
  H  1289  1  0.08153910  0.50416900  0.60870400  1
  H  1290  1  0.08123410  0.53924900  0.61028200  1
  H  1291  1  0.11272700  0.55061900  0.57581600  1
  H  1292  1  0.11046000  0.54733500  0.65470000  1
  H  1317  1  0.11078500  0.60298800  0.60471600  1
  H  1318  1  0.11205300  0.62632200  0.62968500  1
  H  1322  1  0.14120000  0.69145100  0.61953700  1
  H  1323  1  0.13951200  0.72645500  0.62147100  1
  H  1324  1  0.12762000  0.75492500  0.59990500  1
  H  1333  1  0.11241600  0.67873800  0.65858300  1
  H  1334  1  0.11094200  0.68204000  0.57976600  1
  H  1335  1  0.07981310  0.68840100  0.62005300  1
  H  1336  1  0.07804110  0.72336900  0.62166900  1
  H  1337  1  0.08677610  0.75055800  0.64585500  1
  H  1338  1  0.12537900  0.78966400  0.60117400  1
  H  1343  1  0.15325500  0.83675100  0.63695100  1
  H  1344  1  0.16105000  0.85979900  0.63727300  1
  H  1346  1  0.13132900  0.81823900  0.61979500  1
  H  1348  1  0.08453210  0.78533700  0.64717200  1
  H  1354  1  0.08659610  0.87803800  0.60649900  1
  H  1360  1  0.14733500  0.97968400  0.59687600  1
  H  1361  1  0.15128800  0.94502600  0.59757900  1
  H  1362  1  0.12327400  0.00531211  0.58251000  1
  H  1367  1  0.11434300  0.00417911  0.64376300  1
  H  1368  1  0.09972110  0.93983200  0.63086200  1
  H  1369  1  0.09552410  0.97443700  0.62970000  1
  H  1371  1  0.10069100  0.91028000  0.61232700  1
  H  1374  1  0.18816200  0.11441400  0.58225400  1
  H  1375  1  0.22312800  0.11582600  0.58075100  1
  H  1385  1  0.15558500  0.05023010  0.61618200  1
  H  1386  1  0.18116000  0.07732410  0.61618600  1
  H  1387  1  0.12125900  0.04034810  0.58290300  1
  H  1390  1  0.25414500  0.09952410  0.63336000  1
  H  1391  1  0.28891200  0.09986010  0.63078100  1
  H  1394  1  0.44446100  0.08974310  0.65155900  1
  H  1401  1  0.39183900  0.09494910  0.58076200  1
  H  1402  1  0.36874800  0.09474710  0.57315500  1
  H  1404  1  0.41057500  0.11182100  0.60209000  1
  H  1412  1  0.54785800  0.11066700  0.57966400  1
  H  1413  1  0.55009500  0.11124400  0.65857000  1
  H  1414  1  0.47915700  0.09037510  0.64827200  1
  H  1415  1  0.50505700  0.07957510  0.62344600  1
  H  1416  1  0.54004900  0.08027110  0.62113000  1
  H  1441  1  0.60212100  0.11304100  0.60480200  1
  H  1442  1  0.62716100  0.11150300  0.62807400  1
  H  1450  1  0.67925500  0.11205600  0.57437100  1
  H  1451  1  0.68889400  0.08060810  0.61669900  1
  H  1452  1  0.72387300  0.07933810  0.61690400  1
  H  1453  1  0.68144700  0.11273000  0.65325800  1
  H  1454  1  0.75249200  0.08497310  0.59477500  1
  H  1456  1  0.78727100  0.08287510  0.59639600  1
  H  1462  1  0.87780200  0.09801110  0.64414700  1
  H  1463  1  0.00296611  0.10766100  0.64222700  1
  H  1469  1  0.94225400  0.09648810  0.58268300  1
  H  1470  1  0.97700400  0.09474310  0.58519700  1
  H  1474  1  0.91025700  0.11185900  0.63417600  1
  H  1477  1  0.03800510  0.10844200  0.64361400  1
  H  1491  1  0.05028210  0.07414010  0.61024400  1
  H  1492  1  0.07728610  0.04865110  0.61020000  1
  H  1493  1  0.10263100  0.10253800  0.61626800  1
  H  1494  1  0.11215800  0.03918310  0.64405300  1
  H  1498  1  0.61575700  0.14166300  0.69240700  1
  H  1499  1  0.61852100  0.14112700  0.72737100  1
  H  1500  1  0.59897000  0.12952900  0.75701900  1
  H  1505  1  0.14163000  0.60942300  0.69361400  1
  H  1506  1  0.14038900  0.60904000  0.72866800  1
  H  1507  1  0.13237900  0.63212500  0.75623900  1
  H  1515  1  0.11071100  0.57278000  0.68191700  1
  H  1516  1  0.08047910  0.61513200  0.69143300  1
  H  1517  1  0.07918810  0.61528400  0.72642400  1
  H  1518  1  0.11263600  0.65163600  0.68392800  1
  H  1519  1  0.08482010  0.59298900  0.75495100  1
  H  1527  1  0.65618400  0.11242400  0.68042500  1
  H  1528  1  0.57738300  0.11110200  0.68393600  1
  H  1529  1  0.61942600  0.08032510  0.69109900  1
  H  1530  1  0.62189800  0.07968510  0.72608400  1
  H  1531  1  0.64653800  0.09064910  0.75208200  1
  H  1533  1  0.60246500  0.12944000  0.79165800  1
  H  1536  1  0.64492300  0.12597200  0.88030100  1
  H  1537  1  0.13053900  0.63322100  0.79106300  1
  H  1542  1  0.14387000  0.58525500  0.83862600  1
  H  1543  1  0.14860000  0.57920400  0.86175700  1
  H  1545  1  0.13364600  0.61295300  0.82081000  1
  H  1547  1  0.08272710  0.59442200  0.78974800  1
  H  1553  1  0.09782410  0.64201800  0.88036300  1
  H  1556  1  0.64958500  0.08993810  0.78680500  1
  H  1563  1  0.57829400  0.09480110  0.83904200  1
  H  1564  1  0.57058400  0.09451010  0.86210300  1
  H  1566  1  0.59974100  0.11165100  0.82043700  1
  H  1572  1  0.58476100  0.13989300  0.98087200  1
  H  1573  1  0.58169100  0.13978000  0.94612000  1
  H  1577  1  0.63082400  0.11835500  0.91270600  1
  H  1578  1  0.64053300  0.12082700  0.00510463  1
  H  1581  1  0.13156300  0.63066900  0.94296700  1
  H  1582  1  0.12984600  0.63319300  0.97770700  1
  H  1583  1  0.10714800  0.64075600  0.00508163  1
  H  1589  1  0.09527610  0.58085300  0.94474100  1
  H  1590  1  0.09313710  0.58365500  0.97946500  1
  H  1594  1  0.11154700  0.63196000  0.91281600  1
  H  1597  1  0.62793000  0.09920610  0.94219200  1
  H  1598  1  0.63083300  0.09913610  0.97693000  1
  H  1605  1  0.61261400  0.15652400  0.05276060  1
  H  1606  1  0.61288100  0.18173800  0.08018860  1
  H  1610  1  0.64257000  0.11929300  0.04009960  1
  H  1613  1  0.63151000  0.25419200  0.10178400  1
  H  1614  1  0.62861100  0.28892200  0.10183000  1
  H  1616  1  0.64910100  0.44452800  0.09145460  1
  H  1623  1  0.57825200  0.39173300  0.09740460  1
  H  1624  1  0.57073000  0.36861600  0.09730860  1
  H  1626  1  0.59979700  0.41056400  0.11384800  1
  H  1634  1  0.57735700  0.54792100  0.11269800  1
  H  1635  1  0.65624500  0.55014500  0.11320300  1
  H  1636  1  0.64581400  0.47922000  0.09212960  1
  H  1637  1  0.62098300  0.50514800  0.08148060  1
  H  1638  1  0.61869100  0.54013800  0.08222560  1
  H  1641  1  0.19123100  0.64286000  0.10985900  1
  H  1642  1  0.22623900  0.64103700  0.10926900  1
  H  1652  1  0.15107500  0.61272800  0.04912760  1
  H  1653  1  0.17857800  0.61270900  0.07424060  1
  H  1659  1  0.25180600  0.58383500  0.09556360  1
  H  1660  1  0.28651500  0.58101800  0.09768260  1
  H  1662  1  0.31854400  0.63215700  0.11358600  1
  H  1665  1  0.44159700  0.59433500  0.08475260  1
  H  1670  1  0.35100600  0.64203100  0.09971460  1
  H  1677  1  0.47638000  0.59281600  0.08688760  1
  H  1678  1  0.50495900  0.61499100  0.08127160  1
  H  1679  1  0.53993800  0.61505400  0.08260260  1
  H  1680  1  0.55016900  0.57321300  0.11299400  1
  H  1681  1  0.54671300  0.65205200  0.11425000  1
  H  1706  1  0.60249700  0.60218100  0.11503300  1
  H  1707  1  0.62577600  0.62721500  0.11352100  1
  H  1715  1  0.67811600  0.65623000  0.11442300  1
  H  1716  1  0.68161400  0.57742500  0.11306700  1
  H  1717  1  0.68878500  0.61945700  0.08230760  1
  H  1718  1  0.72376000  0.62194000  0.08165660  1
  H  1719  1  0.74974300  0.64657900  0.09256260  1
  H  1721  1  0.78445100  0.64968100  0.09186560  1
  H  1728  1  0.83687000  0.57839400  0.09724860  1
  H  1729  1  0.85994900  0.57075700  0.09703660  1
  H  1731  1  0.81818400  0.59997100  0.11378800  1
  H  1734  1  0.93996200  0.62841200  0.10161600  1
  H  1735  1  0.97469600  0.63131600  0.10166400  1
  H  1736  1  0.11512900  0.57937700  0.00822963  1
  H  1739  1  0.10799400  0.64258200  0.04009160  1
  H  1749  1  0.11534400  0.58123100  0.04317660  1
  H  1750  1  0.07268210  0.61214100  0.05333560  1
  H  1751  1  0.04765410  0.61238800  0.08074560  1
  H  1752  1  0.10216300  0.61437000  0.10538200  1
  H  1760  1  0.57209300  0.67931800  0.11407400  1
  H  1761  1  0.61424100  0.68893000  0.08261660  1
  H  1762  1  0.61440300  0.72390800  0.08132360  1
  H  1763  1  0.65095800  0.68149500  0.11474700  1
  H  1764  1  0.59224000  0.75247800  0.08706860  1
  H  1766  1  0.59374200  0.78726100  0.08494860  1
  H  1771  1  0.64145500  0.87784500  0.09967060  1
  H  1772  1  0.64051000  0.00260711  0.10938800  1
  H  1778  1  0.58034600  0.94238400  0.09812360  1
  H  1779  1  0.58317100  0.97709500  0.09605260  1
  H  1781  1  0.63161400  0.91028900  0.11356100  1
  H  1783  1  0.57882300  0.11680500  0.00862263  1
  H  1784  1  0.58092200  0.11575300  0.04357360  1
  H  1787  1  0.64237400  0.03760610  0.11020500  1
  H  1798  1  0.61178000  0.05075910  0.07521060  1
  H  1799  1  0.61190500  0.07808010  0.05008860  1
  H  1800  1  0.61420300  0.10289200  0.10451300  1
  H  1810  1  0.73113600  0.24285400  0.24651000  1
  H  1811  1  0.73072300  0.26772600  0.30095700  1
  H  1812  1  0.73065100  0.29502800  0.27583900  1
  H  1813  1  0.69873100  0.30500700  0.23538600  1
  H  1814  1  0.69682600  0.33994300  0.23676100  1
  H  1818  1  0.76043300  0.30812500  0.23871700  1
  H  1819  1  0.75859400  0.34311500  0.24055800  1
  H  1824  1  0.70009800  0.40229200  0.26023000  1
  H  1825  1  0.70316300  0.36755100  0.26036000  1
  H  1829  1  0.74885200  0.43580200  0.23793000  1
  H  1831  1  0.71972000  0.55665400  0.24878300  1
  H  1835  1  0.76281400  0.46837000  0.24525300  1
  H  1839  1  0.73297500  0.65593400  0.26086600  1
  H  1840  1  0.73555700  0.62097200  0.26022100  1
  H  1841  1  0.71598000  0.59126100  0.24884500  1
  H  1849  1  0.24422100  0.73121100  0.24527100  1
  H  1850  1  0.29873900  0.73064400  0.26996200  1
  H  1851  1  0.27371800  0.73069000  0.29735500  1
  H  1852  1  0.23454400  0.69703500  0.34243000  1
  H  1856  1  0.23684400  0.76060900  0.31055500  1
  H  1857  1  0.30533300  0.69877200  0.23430400  1
  H  1858  1  0.34027100  0.69692500  0.23434900  1
  H  1861  1  0.37086400  0.75083100  0.24922000  1
  H  1862  1  0.40560300  0.74829600  0.25090500  1
  H  1866  1  0.55754700  0.75036900  0.24982000  1
  H  1871  1  0.50989100  0.70261500  0.26322700  1
  H  1872  1  0.48675600  0.69668300  0.26806300  1
  H  1874  1  0.52774000  0.73025100  0.25290700  1
  H  1879  1  0.59235400  0.74918900  0.25170100  1
  H  1880  1  0.61991000  0.72620000  0.25975800  1
  H  1881  1  0.65494800  0.72680900  0.26103900  1
  H  1885  1  0.80733700  0.73304600  0.26091500  1
  H  1886  1  0.84229100  0.73582100  0.26036700  1
  H  1887  1  0.87196100  0.71632900  0.24880800  1
  H  1889  1  0.90658400  0.71988300  0.24873400  1
  H  1893  1  0.99512500  0.76261800  0.24523200  1
  H  1899  1  0.09571320  0.70260600  0.25984600  1
  H  1900  1  0.06097420  0.69953400  0.25961600  1
  H  1904  1  0.02758520  0.74854000  0.23780300  1
  H  1905  1  0.12008300  0.75827500  0.24062200  1
  H  1906  1  0.23351000  0.69892700  0.30748900  1
  H  1907  1  0.12349300  0.69654400  0.23642000  1
  H  1917  1  0.16783500  0.73030700  0.27645700  1
  H  1918  1  0.19535400  0.73047100  0.30157200  1
  H  1919  1  0.15843500  0.69857500  0.23538000  1
  H  1923  1  0.15507700  0.76024100  0.23910600  1
  H  1927  1  0.72619400  0.80833900  0.26107500  1
  H  1928  1  0.72581600  0.84338600  0.25983400  1
  H  1929  1  0.74885200  0.87093100  0.25168900  1
  H  1931  1  0.75001700  0.90574200  0.24982200  1
  H  1936  1  0.70236000  0.95337300  0.26354500  1
  H  1937  1  0.69641400  0.97650300  0.26837800  1
  H  1939  1  0.72989800  0.93554200  0.25302200  1
  H  1943  1  0.74792800  0.05763920  0.25091800  1
  H  1944  1  0.75047500  0.09237520  0.24928400  1
  H  1945  1  0.69646400  0.12303300  0.23493600  1
  H  1950  1  0.76019600  0.22502200  0.31079500  1
  H  1960  1  0.73002100  0.16405800  0.27089900  1
  H  1961  1  0.73010000  0.18927500  0.29830800  1
  H  1962  1  0.69885400  0.23244200  0.30768000  1
  H  1963  1  0.69702800  0.23261900  0.34262500  1
  H  1964  1  0.69834500  0.15796800  0.23511100  1
  H  1967  1  0.75088500  0.24734800  0.37314400  1
  H  1968  1  0.74834800  0.24914000  0.40788800  1
  H  1969  1  0.23876600  0.75878200  0.34555000  1
  H  1975  1  0.25809300  0.70016900  0.40475700  1
  H  1976  1  0.25821700  0.70322500  0.37000600  1
  H  1980  1  0.23617600  0.74908800  0.43826300  1
  H  1983  1  0.21722000  0.74908200  0.37389300  1
  H  1984  1  0.21727300  0.74619300  0.40863300  1
  H  1985  1  0.75839500  0.22456600  0.34581800  1
  H  1991  1  0.70126300  0.21074800  0.37144600  1
  H  1992  1  0.69844200  0.21297200  0.40615600  1
  H  1996  1  0.74953200  0.22912900  0.43810200  1
  H  1998  1  0.75041700  0.24794700  0.55993300  1
  H  2003  1  0.70270700  0.26144500  0.51222800  1
  H  2004  1  0.69677000  0.26626400  0.48908500  1
  H  2006  1  0.73031100  0.25109100  0.53011200  1
  H  2008  1  0.24695800  0.72008200  0.55918600  1
  H  2011  1  0.24363200  0.76302100  0.47081800  1
  H  2014  1  0.20699400  0.76678800  0.56418700  1
  H  2021  1  0.21262200  0.69594000  0.51151000  1
  H  2022  1  0.21244500  0.68839800  0.48839300  1
  H  2024  1  0.22923300  0.71739300  0.53031000  1
  H  2026  1  0.71160600  0.20014300  0.56106400  1
  H  2032  1  0.75944400  0.21528900  0.47057900  1
  H  2036  1  0.74917300  0.24977400  0.59474500  1
  H  2037  1  0.72610000  0.25778200  0.62227100  1
  H  2038  1  0.72669800  0.25901100  0.65731900  1
  H  2042  1  0.25872900  0.73352400  0.65858700  1
  H  2043  1  0.25824700  0.73610300  0.62360500  1
  H  2044  1  0.24694000  0.71635600  0.59381000  1
  H  2052  1  0.22966200  0.69496800  0.66772200  1
  H  2053  1  0.22796800  0.77384700  0.66978900  1
  H  2054  1  0.20756800  0.76349400  0.59889300  1
  H  2055  1  0.19675800  0.73846200  0.62470100  1
  H  2056  1  0.19733600  0.73612700  0.65969900  1
  H  2064  1  0.71002400  0.20222200  0.59585600  1
  H  2065  1  0.73219700  0.19656600  0.62445600  1
  H  2066  1  0.73224700  0.19784500  0.65944700  1
  H  2067  1  0.69037400  0.22817800  0.66972100  1
  H  2068  1  0.76920900  0.22947600  0.66625100  1
  H  2074  1  0.24306500  0.24436600  0.73343400  1
  H  2075  1  0.23521100  0.30732400  0.76153500  1
  H  2076  1  0.26844900  0.29826900  0.72763700  1
  H  2077  1  0.29543400  0.27279200  0.72768400  1
  H  2080  1  0.34272400  0.23864300  0.75965100  1
  H  2082  1  0.30770200  0.23686400  0.76109700  1
  H  2087  1  0.40229500  0.25730000  0.70145200  1
  H  2088  1  0.36752600  0.25708700  0.70415800  1
  H  2092  1  0.43570200  0.23594400  0.75084300  1
  H  2094  1  0.55662300  0.24680200  0.72199000  1
  H  2097  1  0.46822700  0.24344700  0.76487000  1
  H  2101  1  0.65591300  0.25886000  0.73521200  1
  H  2102  1  0.62095200  0.25826400  0.73781200  1
  H  2103  1  0.59123200  0.24682200  0.71825500  1
  H  2107  1  0.80827000  0.25899700  0.72835700  1
  H  2108  1  0.84331700  0.25777500  0.72801400  1
  H  2109  1  0.87080800  0.24977400  0.75116000  1
  H  2111  1  0.90561300  0.24792800  0.75244500  1
  H  2116  1  0.95325800  0.26138700  0.70474000  1
  H  2117  1  0.97638300  0.26623000  0.69877400  1
  H  2119  1  0.93544900  0.25104600  0.73237700  1
  H  2122  1  0.05760820  0.24905900  0.75044800  1
  H  2123  1  0.09238920  0.24769500  0.75271600  1
  H  2124  1  0.12253400  0.23434500  0.69833300  1
  H  2127  1  0.23428000  0.34238100  0.76169800  1
  H  2137  1  0.16459100  0.26959300  0.73391000  1
  H  2138  1  0.19016300  0.29667900  0.73396700  1
  H  2139  1  0.22320800  0.30706300  0.70089100  1
  H  2140  1  0.22188600  0.34215900  0.70098500  1
  H  2141  1  0.15750000  0.23459900  0.69973700  1
  H  2144  1  0.25333100  0.37169900  0.74600500  1
  H  2145  1  0.25008600  0.40643500  0.74791900  1
  H  2147  1  0.24767400  0.43638200  0.72855000  1
  H  2153  1  0.19872600  0.36809000  0.71785500  1
  H  2154  1  0.19557700  0.40283500  0.71951500  1
  H  2158  1  0.24694500  0.55761300  0.75247200  1
  H  2161  1  0.25744200  0.46888900  0.71573500  1
  H  2165  1  0.21506800  0.56042700  0.69968000  1
  H  2172  1  0.20124900  0.50989200  0.76310700  1
  H  2173  1  0.19567100  0.48667300  0.76788500  1
  H  2175  1  0.22795200  0.52802900  0.75253800  1
  H  2179  1  0.24556100  0.59240100  0.75515200  1
  H  2180  1  0.25967300  0.62161000  0.73476900  1
  H  2181  1  0.25929400  0.65665000  0.73640500  1
  H  2188  1  0.21399500  0.59523800  0.70221300  1
  H  2189  1  0.19876600  0.62139600  0.72595900  1
  H  2190  1  0.19846100  0.65647600  0.72753700  1
  H  2191  1  0.22995400  0.66784600  0.69307100  1
  H  2192  1  0.22768700  0.66456200  0.77195500  1
  H  2217  1  0.22801200  0.72021500  0.72197100  1
  H  2218  1  0.22928000  0.74354900  0.74694000  1
  H  2222  1  0.25842700  0.80867800  0.73679200  1
  H  2223  1  0.25673900  0.84368200  0.73872600  1
  H  2224  1  0.24484700  0.87215200  0.71716000  1
  H  2233  1  0.22964300  0.79596500  0.77583800  1
  H  2234  1  0.22816900  0.79926700  0.69702100  1
  H  2235  1  0.19704000  0.80562800  0.73730800  1
  H  2236  1  0.19526800  0.84059600  0.73892400  1
  H  2237  1  0.20400300  0.86778500  0.76311000  1
  H  2238  1  0.24260600  0.90689100  0.71842900  1
  H  2243  1  0.27048200  0.95397800  0.75420600  1
  H  2244  1  0.27827700  0.97702600  0.75452800  1
  H  2246  1  0.24855600  0.93546600  0.73705000  1
  H  2248  1  0.20175900  0.90256400  0.76442700  1
  H  2254  1  0.20382300  0.99526500  0.72375400  1
  H  2260  1  0.26456200  0.09691120  0.71413100  1
  H  2261  1  0.26851500  0.06225320  0.71483400  1
  H  2262  1  0.24050100  0.12253900  0.69976500  1
  H  2267  1  0.23157000  0.12140600  0.76101800  1
  H  2268  1  0.21694800  0.05705920  0.74811700  1
  H  2269  1  0.21275100  0.09166420  0.74695500  1
  H  2271  1  0.21791800  0.02750720  0.72958200  1
  H  2274  1  0.30538900  0.23164100  0.69950900  1
  H  2275  1  0.34035500  0.23305300  0.69800600  1
  H  2285  1  0.27281200  0.16745700  0.73343700  1
  H  2286  1  0.29838700  0.19455100  0.73344100  1
  H  2287  1  0.23848600  0.15757500  0.70015800  1
  H  2290  1  0.37137200  0.21675100  0.75061500  1
  H  2291  1  0.40613900  0.21708700  0.74803600  1
  H  2294  1  0.56168800  0.20697000  0.76881400  1
  H  2301  1  0.50906600  0.21217600  0.69801700  1
  H  2302  1  0.48597500  0.21197400  0.69041000  1
  H  2304  1  0.52780200  0.22904800  0.71934500  1
  H  2312  1  0.66508500  0.22789400  0.69691900  1
  H  2313  1  0.66732200  0.22847100  0.77582500  1
  H  2314  1  0.59638400  0.20760200  0.76552700  1
  H  2315  1  0.62228400  0.19680200  0.74070100  1
  H  2316  1  0.65727600  0.19749800  0.73838500  1
  H  2341  1  0.71934800  0.23026800  0.72205700  1
  H  2342  1  0.74438800  0.22873000  0.74532900  1
  H  2350  1  0.79648200  0.22928300  0.69162600  1
  H  2351  1  0.80612100  0.19783500  0.73395400  1
  H  2352  1  0.84110000  0.19656500  0.73415900  1
  H  2353  1  0.79867400  0.22995700  0.77051300  1
  H  2354  1  0.86971900  0.20220000  0.71203000  1
  H  2356  1  0.90449800  0.20010200  0.71365100  1
  H  2362  1  0.99502900  0.21523800  0.76140200  1
  H  2363  1  0.12019300  0.22488800  0.75948200  1
  H  2369  1  0.05948120  0.21371500  0.69993800  1
  H  2370  1  0.09423120  0.21197000  0.70245200  1
  H  2374  1  0.02748420  0.22908600  0.75143100  1
  H  2377  1  0.15523200  0.22566900  0.76086900  1
  H  2391  1  0.16750900  0.19136700  0.72749900  1
  H  2392  1  0.19451300  0.16587800  0.72745500  1
  H  2393  1  0.21985800  0.21976500  0.73352300  1
  H  2394  1  0.22938500  0.15641000  0.76130800  1
  H  2398  1  0.73298400  0.25889000  0.80966200  1
  H  2399  1  0.73574800  0.25835400  0.84462600  1
  H  2400  1  0.71619700  0.24675600  0.87427400  1
  H  2405  1  0.25885700  0.72665000  0.81086900  1
  H  2406  1  0.25761600  0.72626700  0.84592300  1
  H  2407  1  0.24960600  0.74935200  0.87349400  1
  H  2415  1  0.22793800  0.69000700  0.79917200  1
  H  2416  1  0.19770600  0.73235900  0.80868800  1
  H  2417  1  0.19641500  0.73251100  0.84367900  1
  H  2418  1  0.22986300  0.76886300  0.80118300  1
  H  2419  1  0.20204700  0.71021600  0.87220600  1
  H  2427  1  0.77341100  0.22965100  0.79768000  1
  H  2428  1  0.69461000  0.22832900  0.80119100  1
  H  2429  1  0.73665300  0.19755200  0.80835400  1
  H  2430  1  0.73912500  0.19691200  0.84333900  1
  H  2431  1  0.76376500  0.20787600  0.86933700  1
  H  2433  1  0.71969200  0.24666700  0.90891300  1
  H  2436  1  0.76215000  0.24319900  0.99755600  1
  H  2437  1  0.24776600  0.75044800  0.90831800  1
  H  2442  1  0.26109700  0.70248200  0.95588100  1
  H  2443  1  0.26582700  0.69643100  0.97901200  1
  H  2445  1  0.25087300  0.73018000  0.93806500  1
  H  2447  1  0.19995400  0.71164900  0.90700300  1
  H  2453  1  0.21505100  0.75924500  0.99761800  1
  H  2456  1  0.76681200  0.20716500  0.90406000  1
  H  2463  1  0.69552100  0.21202800  0.95629700  1
  H  2464  1  0.68781100  0.21173700  0.97935800  1
  H  2466  1  0.71696800  0.22887800  0.93769200  1
  H  2472  1  0.70198800  0.25712000  0.09812730  1
  H  2473  1  0.69891800  0.25700700  0.06337530  1
  H  2477  1  0.74805100  0.23558200  0.02996130  1
  H  2478  1  0.75776000  0.23805400  0.12236000  1
  H  2481  1  0.24879000  0.74789600  0.06022230  1
  H  2482  1  0.24707300  0.75042000  0.09496230  1
  H  2483  1  0.22437500  0.75798300  0.12233700  1
  H  2489  1  0.21250300  0.69808000  0.06199630  1
  H  2490  1  0.21036400  0.70088200  0.09672030  1
  H  2494  1  0.22877400  0.74918700  0.03007130  1
  H  2497  1  0.74515700  0.21643300  0.05944730  1
  H  2498  1  0.74806000  0.21636300  0.09418530  1
  H  2505  1  0.72984100  0.27375100  0.17001600  1
  H  2506  1  0.73010800  0.29896500  0.19744400  1
  H  2510  1  0.75979700  0.23652000  0.15735500  1
  H  2513  1  0.74873700  0.37141900  0.21903900  1
  H  2514  1  0.74583800  0.40614900  0.21908500  1
  H  2516  1  0.76632800  0.56175500  0.20871000  1
  H  2523  1  0.69547900  0.50896000  0.21466000  1
  H  2524  1  0.68795700  0.48584300  0.21456400  1
  H  2526  1  0.71702400  0.52779100  0.23110300  1
  H  2534  1  0.69458400  0.66514800  0.22995300  1
  H  2535  1  0.77347200  0.66737200  0.23045800  1
  H  2536  1  0.76304100  0.59644700  0.20938500  1
  H  2537  1  0.73821000  0.62237500  0.19873600  1
  H  2538  1  0.73591800  0.65736500  0.19948100  1
  H  2541  1  0.30845800  0.76008700  0.22711400  1
  H  2542  1  0.34346600  0.75826400  0.22652400  1
  H  2552  1  0.26830200  0.72995500  0.16638300  1
  H  2553  1  0.29580500  0.72993600  0.19149600  1
  H  2559  1  0.36903300  0.70106200  0.21281900  1
  H  2560  1  0.40374200  0.69824500  0.21493800  1
  H  2562  1  0.43577100  0.74938400  0.23084100  1
  H  2565  1  0.55882400  0.71156200  0.20200800  1
  H  2570  1  0.46823300  0.75925800  0.21697000  1
  H  2577  1  0.59360700  0.71004300  0.20414300  1
  H  2578  1  0.62218600  0.73221800  0.19852700  1
  H  2579  1  0.65716500  0.73228100  0.19985800  1
  H  2580  1  0.66739600  0.69044000  0.23024900  1
  H  2581  1  0.66394000  0.76927900  0.23150500  1
  H  2606  1  0.71972400  0.71940800  0.23228800  1
  H  2607  1  0.74300300  0.74444200  0.23077600  1
  H  2615  1  0.79534300  0.77345700  0.23167800  1
  H  2616  1  0.79884100  0.69465200  0.23032200  1
  H  2617  1  0.80601200  0.73668400  0.19956300  1
  H  2618  1  0.84098700  0.73916700  0.19891200  1
  H  2619  1  0.86697000  0.76380600  0.20981800  1
  H  2621  1  0.90167800  0.76690800  0.20912100  1
  H  2628  1  0.95409700  0.69562100  0.21450400  1
  H  2629  1  0.97717600  0.68798400  0.21429200  1
  H  2631  1  0.93541100  0.71719800  0.23104300  1
  H  2634  1  0.05718920  0.74563900  0.21887100  1
  H  2635  1  0.09192320  0.74854300  0.21891900  1
  H  2636  1  0.23235600  0.69660400  0.12548500  1
  H  2639  1  0.22522100  0.75980900  0.15734700  1
  H  2649  1  0.23257100  0.69845800  0.16043200  1
  H  2650  1  0.18990900  0.72936800  0.17059100  1
  H  2651  1  0.16488100  0.72961500  0.19800100  1
  H  2652  1  0.21939000  0.73159700  0.22263700  1
  H  2660  1  0.68932000  0.79654500  0.23132900  1
  H  2661  1  0.73146800  0.80615700  0.19987200  1
  H  2662  1  0.73163000  0.84113500  0.19857900  1
  H  2663  1  0.76818500  0.79872200  0.23200200  1
  H  2664  1  0.70946700  0.86970500  0.20432400  1
  H  2666  1  0.71096900  0.90448800  0.20220400  1
  H  2671  1  0.75868200  0.99507200  0.21692600  1
  H  2672  1  0.75773700  0.11983400  0.22664300  1
  H  2678  1  0.69757300  0.05961120  0.21537900  1
  H  2679  1  0.70039800  0.09432220  0.21330800  1
  H  2681  1  0.74884100  0.02751620  0.23081600  1
  H  2683  1  0.69605000  0.23403200  0.12587800  1
  H  2684  1  0.69814900  0.23298000  0.16082900  1
  H  2687  1  0.75960100  0.15483300  0.22746000  1
  H  2698  1  0.72900700  0.16798600  0.19246600  1
  H  2699  1  0.72913200  0.19530700  0.16734400  1
  H  2700  1  0.73143000  0.22011900  0.22176800  1
  C  1  1  0.49649300  0.01321500  0.04164800  1
  C  3  1  0.49653900  0.03753800  0.01928100  1
  C  4  1  0.49642800  0.04599000  0.03794000  1
  C  5  1  0.49645500  0.03110700  0.05162600  1
  C  6  1  0.49628700  0.04815600  0.00134300  1
  C  7  1  0.49529900  0.06895700  0.00240500  1
  C  8  1  0.47695500  0.07849000  0.00200600  1
  C  9  1  0.47588500  0.09903700  0.00298800  1
  C  15  1  0.49306600  0.11060400  0.00440000  1
  C  16  1  0.51139600  0.10086300  0.00479500  1
  C  17  1  0.51253000  0.08029900  0.00384100  1
  C  20  1  0.49187300  0.13148500  0.00505800  1
  C  21  1  0.47782600  0.14102800  0.01696800  1
  C  22  1  0.47604800  0.16155800  0.01692900  1
  C  23  1  0.48842400  0.17331700  0.00517200  1
  C  26  1  0.48589300  0.19401800  0.00446000  1
  C  30  1  0.49426800  0.33029200  0.00543600  1
  C  33  1  0.51546800  0.23924900  0.00531500  1
  C  34  1  0.49970700  0.22671100  0.00075000  1
  C  36  1  0.50085300  0.39393000  0.01267500  1
  C  37  1  0.49943400  0.41448600  0.01311400  1
  C  38  1  0.49226900  0.35080200  0.00576200  1
  C  42  1  0.03942800  0.49645400  0.01547300  1
  C  44  1  0.01714500  0.49660600  0.03987600  1
  C  45  1  0.03582800  0.49642600  0.04826700  1
  C  46  1  0.04946200  0.49638800  0.03333500  1
  C  47  1  0.99988700  0.47714800  0.08090500  1
  C  48  1  0.00091400  0.47608600  0.10145500  1
  C  53  1  0.00037600  0.49548200  0.07135700  1
  C  54  1  0.00296400  0.51158600  0.10325100  1
  C  55  1  0.00195900  0.51271200  0.08268500  1
  C  59  1  0.16366800  0.50400800  0.00789500  1
  C  60  1  0.14313400  0.50550700  0.00687000  1
  C  63  1  0.19434200  0.48657000  0.99998800  1
  C  65  1  0.33046900  0.50706600  0.00571000  1
  C  67  1  0.26751200  0.49826200  0.00445000  1
  C  69  1  0.25512900  0.48539100  0.01510900  1
  C  75  1  0.22675700  0.50100500  0.00093300  1
  C  76  1  0.41366700  0.49332700  0.01320500  1
  C  77  1  0.39306700  0.49314400  0.01240400  1
  C  78  1  0.35104100  0.50634600  0.00682300  1
  C  82  1  0.60044800  0.50126200  0.01280800  1
  C  83  1  0.57989600  0.49974600  0.01319200  1
  C  84  1  0.64355600  0.49267800  0.00583100  1
  C  88  1  0.66407800  0.49455500  0.00548000  1
  C  91  1  0.75525500  0.51531400  0.00528200  1
  C  92  1  0.76770100  0.49951800  0.00058700  1
  C  94  1  0.88379700  0.49275400  0.00421100  1
  C  95  1  0.86291500  0.49149100  0.00474400  1
  C  96  1  0.82107900  0.48802700  0.00473600  1
  C  97  1  0.83281800  0.47554600  0.01640300  1
  C  98  1  0.85334700  0.47733000  0.01649900  1
  C  101  1  0.80037000  0.48555200  0.00402200  1
  C  108  1  0.99966200  0.49646400  0.05055600  1
  C  109  1  0.98067700  0.49653000  0.04206300  1
  C  111  1  0.95645600  0.49646000  0.01995700  1
  C  112  1  0.94797000  0.49618100  0.03858900  1
  C  113  1  0.96290600  0.49625600  0.05222000  1
  C  114  1  0.92546100  0.49513700  0.00261300  1
  C  115  1  0.91599100  0.47676600  0.00199500  1
  C  116  1  0.89543800  0.47562300  0.00277600  1
  C  120  1  0.94627200  0.49621400  0.00182200  1
  C  121  1  0.89347600  0.51111200  0.00481300  1
  C  122  1  0.91404500  0.51231900  0.00405700  1
  C  124  1  0.49276000  0.58072300  0.01325000  1
  C  125  1  0.49270600  0.60132400  0.01247100  1
  C  126  1  0.50596500  0.64334100  0.00685000  1
  C  130  1  0.50666400  0.66391600  0.00575500  1
  C  132  1  0.49783900  0.72686700  0.00455600  1
  C  134  1  0.48499500  0.73924000  0.01526200  1
  C  140  1  0.50051000  0.76762200  0.00099500  1
  C  141  1  0.50508000  0.85122400  0.00700900  1
  C  142  1  0.50358900  0.83068700  0.00798500  1
  C  146  1  0.48605700  0.80004300  0.00017600  1
  C  148  1  0.51236600  0.99201000  0.08291900  1
  C  149  1  0.51126100  0.99190300  0.10351000  1
  C  151  1  0.49604900  0.95450300  0.01647600  1
  C  153  1  0.49625200  0.97670000  0.04062000  1
  C  154  1  0.49589100  0.95811500  0.04918900  1
  C  155  1  0.49584600  0.94443000  0.03430400  1
  C  156  1  0.49624100  0.99486800  0.05073600  1
  C  157  1  0.49522700  0.99421300  0.07156000  1
  C  158  1  0.47596600  0.99611800  0.10169100  1
  C  159  1  0.47699700  0.99619200  0.08111600  1
  C  165  1  0.50409700  0.00611900  0.16592400  1
  C  166  1  0.50558000  0.00505500  0.14538700  1
  C  170  1  0.00246500  0.49326500  0.11300800  1
  C  171  1  0.00314400  0.49208300  0.13389300  1
  C  172  1  0.01495700  0.47795300  0.14343300  1
  C  173  1  0.01491900  0.47617800  0.16396700  1
  C  174  1  0.00325400  0.48863500  0.17573400  1
  C  177  1  0.00253000  0.48611600  0.19644000  1
  C  181  1  0.99200800  0.50290100  0.16623300  1
  C  182  1  0.99195700  0.50459400  0.14568400  1
  C  186  1  0.49306300  0.99402700  0.11329000  1
  C  187  1  0.49195400  0.99452100  0.13420400  1
  C  188  1  0.47682300  0.98461100  0.14437600  1
  C  189  1  0.47516800  0.98588100  0.16488000  1
  C  190  1  0.48880900  0.99682800  0.17598300  1
  C  193  1  0.48669800  0.99864600  0.19662900  1
  C  197  1  0.50708600  0.00389500  0.33276700  1
  C  199  1  0.49837200  0.00274600  0.26979500  1
  C  201  1  0.48548000  0.01337400  0.25740700  1
  C  207  1  0.00367900  0.49465400  0.33274900  1
  C  210  1  0.00367000  0.51571900  0.24165700  1
  C  212  1  0.99939600  0.49997900  0.22913500  1
  C  213  1  0.99239200  0.50909200  0.32352400  1
  C  215  1  0.99216200  0.51135800  0.30271900  1
  C  217  1  0.99464300  0.49700000  0.26997400  1
  C  219  1  0.98944700  0.48116500  0.25744400  1
  C  225  1  0.49652600  0.98974600  0.32249100  1
  C  227  1  0.49772100  0.98819100  0.30174400  1
  C  230  1  0.51431000  0.98979100  0.24152600  1
  C  231  1  0.50115500  0.99967200  0.22903800  1
  C  233  1  0.49323000  0.01124800  0.41596000  1
  C  234  1  0.49305300  0.01047800  0.39535500  1
  C  235  1  0.50634300  0.00496600  0.35334400  1
  C  239  1  0.01072700  0.50130900  0.39644600  1
  C  240  1  0.01107000  0.49991100  0.41701100  1
  C  241  1  0.00395300  0.49265900  0.35326600  1
  C  245  1  0.98119100  0.52164700  0.33565900  1
  C  246  1  0.99382900  0.50001000  0.42777900  1
  C  247  1  0.97585300  0.50148700  0.41765700  1
  C  248  1  0.97557400  0.50302200  0.39710400  1
  C  249  1  0.99320200  0.50303300  0.38615100  1
  C  250  1  0.99290600  0.50500400  0.36533900  1
  C  251  1  0.98132400  0.51955100  0.35616800  1
  C  257  1  0.48515000  0.97633800  0.33345300  1
  C  258  1  0.49493900  0.99428800  0.42703800  1
  C  259  1  0.49634500  0.97615900  0.41719100  1
  C  260  1  0.49617700  0.97545600  0.39660000  1
  C  261  1  0.49458400  0.99279600  0.38528900  1
  C  262  1  0.49492000  0.99202000  0.36436300  1
  C  263  1  0.48424800  0.97755200  0.35400800  1
  C  269  1  0.01372600  0.03937400  0.49603100  1
  C  271  1  0.03773200  0.01670000  0.49600300  1
  C  272  1  0.04638300  0.03518400  0.49427400  1
  C  273  1  0.03168300  0.04906400  0.49426500  1
  C  278  1  0.11059400  0.00142300  0.49416700  1
  C  279  1  0.10063300  0.00241400  0.51235600  1
  C  281  1  0.08005600  0.00149800  0.51325000  1
  C  283  1  0.13146700  0.00228600  0.49319900  1
  C  284  1  0.14101300  0.01403300  0.47902200  1
  C  285  1  0.16155700  0.01419500  0.47745900  1
  C  286  1  0.17331700  0.00279100  0.49016200  1
  C  289  1  0.19404200  0.00220500  0.48777600  1
  C  293  1  0.33025500  0.00355900  0.49653200  1
  C  296  1  0.23915900  0.00348400  0.51752400  1
  C  298  1  0.39389500  0.01077000  0.50308800  1
  C  299  1  0.41445100  0.01117900  0.50165500  1
  C  300  1  0.35076400  0.00385500  0.49453000  1
  C  304  1  0.58066100  0.01124100  0.49493500  1
  C  305  1  0.60126200  0.01047400  0.49490400  1
  C  306  1  0.64324700  0.00495600  0.50828900  1
  C  310  1  0.66382000  0.00388000  0.50904600  1
  C  312  1  0.72678800  0.00269200  0.50034400  1
  C  314  1  0.73914300  0.01333500  0.48743300  1
  C  320  1  0.85120200  0.00546700  0.50729200  1
  C  321  1  0.83064300  0.00627500  0.50596400  1
  C  325  1  0.99843500  0.08011300  0.51417600  1
  C  326  1  0.99777100  0.10070600  0.51420300  1
  C  328  1  0.95475000  0.01498100  0.49741900  1
  C  330  1  0.97725400  0.03881900  0.49742000  1
  C  331  1  0.95880300  0.04759600  0.49867400  1
  C  332  1  0.94492400  0.03289600  0.49863400  1
  C  333  1  0.99553100  0.04872000  0.49674500  1
  C  334  1  0.99511700  0.06957300  0.49668600  1
  C  335  1  0.99033000  0.10055600  0.47933700  1
  C  336  1  0.99118700  0.07996500  0.47922500  1
  C  342  1  0.00480000  0.16416000  0.50660300  1
  C  343  1  0.00659000  0.14364400  0.50574600  1
  C  348  1  0.99360500  0.11123300  0.49681900  1
  C  349  1  0.99217200  0.13203600  0.49710400  1
  C  350  1  0.97547900  0.14157500  0.48937400  1
  C  351  1  0.97353000  0.16205300  0.49056700  1
  C  352  1  0.98839500  0.17369800  0.49912600  1
  C  355  1  0.98600700  0.19433800  0.50091800  1
  C  357  1  0.00505700  0.33083100  0.50744100  1
  C  360  1  0.01236000  0.23977000  0.49031600  1
  C  362  1  0.99983000  0.22714800  0.50030800  1
  C  363  1  0.99664900  0.32102500  0.49144300  1
  C  364  1  0.98719900  0.33248100  0.47697000  1
  C  366  1  0.99767700  0.30027400  0.48956300  1
  C  368  1  0.99685100  0.26794200  0.50399000  1
  C  370  1  0.98415400  0.25541300  0.51470700  1
  C  376  1  0.01192900  0.41486400  0.49976400  1
  C  377  1  0.01208900  0.39427900  0.49893600  1
  C  378  1  0.00450800  0.35138500  0.50887800  1
  C  382  1  0.99460000  0.42527400  0.49760500  1
  C  383  1  0.97704100  0.41476400  0.49457400  1
  C  384  1  0.97727700  0.39417900  0.49355200  1
  C  385  1  0.99499700  0.38362100  0.49575100  1
  C  386  1  0.99529800  0.36279700  0.49449900  1
  C  387  1  0.98633900  0.35300700  0.47857900  1
  C  393  1  0.99512200  0.44800100  0.46183200  1
  C  394  1  0.99495900  0.46277300  0.44801600  1
  C  395  1  0.99446800  0.48072600  0.45785400  1
  C  397  1  0.99461300  0.45658300  0.48043000  1
  C  398  1  0.99446800  0.44611200  0.49846500  1
  C  399  1  0.99439900  0.45483400  0.51735200  1
  C  401  1  0.99459900  0.47722400  0.54130900  1
  C  402  1  0.99391900  0.45871700  0.55002700  1
  C  403  1  0.99380300  0.44491100  0.53525300  1
  C  404  1  0.99483600  0.49547400  0.55127300  1
  C  405  1  0.99515900  0.51415800  0.54203600  1
  C  407  1  0.99501200  0.53828800  0.51947200  1
  C  408  1  0.99524800  0.54689500  0.53806000  1
  C  409  1  0.99537400  0.53212800  0.55186800  1
  C  410  1  0.99455800  0.54875300  0.50145000  1
  C  411  1  0.99435700  0.54004500  0.48256700  1
  C  413  1  0.99413000  0.51766500  0.45860700  1
  C  414  1  0.99380000  0.53619700  0.44990700  1
  C  415  1  0.99390300  0.54999900  0.46468400  1
  C  416  1  0.99415600  0.49941400  0.44862600  1
  C  419  1  0.00948500  0.60143200  0.50372600  1
  C  420  1  0.01053400  0.58087200  0.50270600  1
  C  421  1  0.00144400  0.64390700  0.49296300  1
  C  425  1  0.00015200  0.66445900  0.49376900  1
  C  426  1  0.99364500  0.56955700  0.50236300  1
  C  427  1  0.97531600  0.57910500  0.50308200  1
  C  428  1  0.97432700  0.59965000  0.50418900  1
  C  429  1  0.99158600  0.61116600  0.50453500  1
  C  430  1  0.99050800  0.63200900  0.50558100  1
  C  431  1  0.97783400  0.64139300  0.51904400  1
  C  432  1  0.97654000  0.66194600  0.51983400  1
  C  439  1  0.00043900  0.72701300  0.50387700  1
  C  441  1  0.01642000  0.73939200  0.50889700  1
  C  447  1  0.98797800  0.67387100  0.50730400  1
  C  449  1  0.98627900  0.69468800  0.50791300  1
  C  452  1  0.98224900  0.75540100  0.49461500  1
  C  453  1  0.99805300  0.76786400  0.49930700  1
  C  455  1  0.00149000  0.88406100  0.49583200  1
  C  456  1  0.00349300  0.86327800  0.49579500  1
  C  457  1  0.00830900  0.82162300  0.49676700  1
  C  458  1  0.02209400  0.83375000  0.48712700  1
  C  459  1  0.01963900  0.85420000  0.48648900  1
  C  463  1  0.01123200  0.80096900  0.49783100  1
  C  465  1  0.99018700  0.85119800  0.50555400  1
  C  466  1  0.99251400  0.83072300  0.50596500  1
  C  472  1  0.07871000  0.99873200  0.47773500  1
  C  473  1  0.09926600  0.99974100  0.47689500  1
  C  476  1  0.04812300  0.99906700  0.49668300  1
  C  477  1  0.03929800  0.98025500  0.49734700  1
  C  479  1  0.01679300  0.95642500  0.49729700  1
  C  480  1  0.03525600  0.94764100  0.49834100  1
  C  481  1  0.04913900  0.96233800  0.49834100  1
  C  482  1  0.00229700  0.91557600  0.47849700  1
  C  483  1  0.00360400  0.89501000  0.47833300  1
  C  484  1  0.06894200  0.99983400  0.49592800  1
  C  488  1  0.16379700  0.99163000  0.50449100  1
  C  489  1  0.14323600  0.99138400  0.50598300  1
  C  492  1  0.22668100  0.99916200  0.50176300  1
  C  493  1  0.32105100  0.99229800  0.51100700  1
  C  495  1  0.30025200  0.99203700  0.51326700  1
  C  497  1  0.26752100  0.99445800  0.49887700  1
  C  499  1  0.25503500  0.98920000  0.48302700  1
  C  505  1  0.33320200  0.98115600  0.52359800  1
  C  506  1  0.42528700  0.99398600  0.50193500  1
  C  507  1  0.41523900  0.97598200  0.50357200  1
  C  508  1  0.39469000  0.97563600  0.50509800  1
  C  509  1  0.38366800  0.99322100  0.50495400  1
  C  510  1  0.36285700  0.99287100  0.50691500  1
  C  511  1  0.35370800  0.98131500  0.52149900  1
  C  517  1  0.45920200  0.99424000  0.44981600  1
  C  518  1  0.44542600  0.99408300  0.46463000  1
  C  519  1  0.45529500  0.99463000  0.48257000  1
  C  521  1  0.47780200  0.99490400  0.45836700  1
  C  522  1  0.49581100  0.99500600  0.44786400  1
  C  523  1  0.51471800  0.99516700  0.45654200  1
  C  525  1  0.53873200  0.99507800  0.47887100  1
  C  526  1  0.54740400  0.99499100  0.46032900  1
  C  527  1  0.53259500  0.99509700  0.44655900  1
  C  528  1  0.54874300  0.99493600  0.49709800  1
  C  529  1  0.53954400  0.99494200  0.51580800  1
  C  531  1  0.51704300  0.99469000  0.54000200  1
  C  532  1  0.53564900  0.99505000  0.54856000  1
  C  533  1  0.54941700  0.99520200  0.53375500  1
  C  534  1  0.49905200  0.99438200  0.55052500  1
  C  535  1  0.48015100  0.99434100  0.54186200  1
  C  537  1  0.45614400  0.99441900  0.51952600  1
  C  538  1  0.44748800  0.99416900  0.53808500  1
  C  539  1  0.46229400  0.99408100  0.55185800  1
  C  540  1  0.44612400  0.99442400  0.50129300  1
  C  543  1  0.56957700  0.99427600  0.49656300  1
  C  544  1  0.61131900  0.99279200  0.49649000  1
  C  545  1  0.60000200  0.97545400  0.49804300  1
  C  546  1  0.57941400  0.97615300  0.49807600  1
  C  547  1  0.63223700  0.99200400  0.49686300  1
  C  548  1  0.64259500  0.97753000  0.48620300  1
  C  549  1  0.66314400  0.97630500  0.48712500  1
  C  555  1  0.67409800  0.98971300  0.49850800  1
  C  557  1  0.69484000  0.98814400  0.49971900  1
  C  560  1  0.75509200  0.98974000  0.51622400  1
  C  561  1  0.76754900  0.99964700  0.50305600  1
  C  564  1  0.88334600  0.99521900  0.49424300  1
  C  565  1  0.86242700  0.99536100  0.49336800  1
  C  566  1  0.82060400  0.99710600  0.49057900  1
  C  567  1  0.83176000  0.98651600  0.47669800  1
  C  568  1  0.85228800  0.98553000  0.47816700  1
  C  571  1  0.79993700  0.99878200  0.48854600  1
  C  575  1  0.91396300  0.99301200  0.51311500  1
  C  576  1  0.89336400  0.99271000  0.51226200  1
  C  578  1  0.94765100  0.96005600  0.49414300  1
  C  579  1  0.96235500  0.94617500  0.49413000  1
  C  580  1  0.98030700  0.95586400  0.49593300  1
  C  582  1  0.95629200  0.97853600  0.49596300  1
  C  583  1  0.94590700  0.99658900  0.49668300  1
  C  584  1  0.99892700  0.94653300  0.49658800  1
  C  585  1  0.99939800  0.92569000  0.49623900  1
  C  586  1  0.99831900  0.89433100  0.51350500  1
  C  587  1  0.99713800  0.91490200  0.51374200  1
  C  588  1  0.92508000  0.99587700  0.49591100  1
  C  589  1  0.91527900  0.99832700  0.47786700  1
  C  590  1  0.89469900  0.99800900  0.47707900  1
  C  595  1  0.50119000  0.01085200  0.60272500  1
  C  596  1  0.49968500  0.01123100  0.58217000  1
  C  597  1  0.49255000  0.00385400  0.64582800  1
  C  601  1  0.49440700  0.00350900  0.66635500  1
  C  602  1  0.01110100  0.49332000  0.58319900  1
  C  603  1  0.01032400  0.49325900  0.60380200  1
  C  604  1  0.00479000  0.50650300  0.64583800  1
  C  608  1  0.00370300  0.50716600  0.66641700  1
  C  609  1  0.99414500  0.49499100  0.57210800  1
  C  610  1  0.99263700  0.49484900  0.61384900  1
  C  611  1  0.97530600  0.49644700  0.60252500  1
  C  612  1  0.97601700  0.49652400  0.58193500  1
  C  613  1  0.99183700  0.49513500  0.63476900  1
  C  614  1  0.97736800  0.48441500  0.64507200  1
  C  620  1  0.97614600  0.48522800  0.66562900  1
  C  621  1  0.50003500  0.99402400  0.57135300  1
  C  622  1  0.50188600  0.97604800  0.58141100  1
  C  623  1  0.50349200  0.97573400  0.60195700  1
  C  624  1  0.50321900  0.99332700  0.61296600  1
  C  625  1  0.50509500  0.99299000  0.63378700  1
  C  626  1  0.51968700  0.98150400  0.64300800  1
  C  632  1  0.52163400  0.98129200  0.66353200  1
  C  635  1  0.51489100  0.00324700  0.75758400  1
  C  638  1  0.00248800  0.49820300  0.72934500  1
  C  640  1  0.01303200  0.48522200  0.74171100  1
  C  646  1  0.98955100  0.49655600  0.67664000  1
  C  648  1  0.98798100  0.49765700  0.69738700  1
  C  651  1  0.98953700  0.51410400  0.75763400  1
  C  652  1  0.99931100  0.50084500  0.77009800  1
  C  654  1  0.49909000  0.99885400  0.76998100  1
  C  655  1  0.50888400  0.99231100  0.67562800  1
  C  657  1  0.51099600  0.99199900  0.69644900  1
  C  659  1  0.49639200  0.99429000  0.72910100  1
  C  661  1  0.48049000  0.98898700  0.74150100  1
  C  667  1  0.49224200  0.00157900  0.88607600  1
  C  668  1  0.49094900  0.00215800  0.86519300  1
  C  669  1  0.48748600  0.00229400  0.82335400  1
  C  670  1  0.47495600  0.01386300  0.83513400  1
  C  671  1  0.47674100  0.01389200  0.85567000  1
  C  674  1  0.48504300  0.00166000  0.80263800  1
  C  679  1  0.00471600  0.50515200  0.85370900  1
  C  680  1  0.00574300  0.50367400  0.83317200  1
  C  684  1  0.99376500  0.49264400  0.88582200  1
  C  685  1  0.99417800  0.49154400  0.86490700  1
  C  686  1  0.99639700  0.48841400  0.82312300  1
  C  687  1  0.98544300  0.47479200  0.83424000  1
  C  688  1  0.98422000  0.47643400  0.85475100  1
  C  691  1  0.99818200  0.48632300  0.80247000  1
  C  695  1  0.50349900  0.99103200  0.85338600  1
  C  696  1  0.50180700  0.99110100  0.83283700  1
  C  699  1  0.49625900  0.03959300  0.98280400  1
  C  701  1  0.49609000  0.01739900  0.95866600  1
  C  702  1  0.49576400  0.03599400  0.95010800  1
  C  703  1  0.49589100  0.04968100  0.96499300  1
  C  704  1  0.47513600  0.00006400  0.89774400  1
  C  707  1  0.49470900  0.99995300  0.92773500  1
  C  708  1  0.51061600  0.00224500  0.89572000  1
  C  709  1  0.51186500  0.00146700  0.91628800  1
  C  711  1  0.50262000  0.16381600  0.99384100  1
  C  712  1  0.50429200  0.14326900  0.99376600  1
  C  715  1  0.50867900  0.32109500  0.99409300  1
  C  717  1  0.51096400  0.30029600  0.99383700  1
  C  719  1  0.49666000  0.26753600  0.99638900  1
  C  721  1  0.48080100  0.25498800  0.99131600  1
  C  727  1  0.52120500  0.33325900  0.98288900  1
  C  728  1  0.49964700  0.42534400  0.99593000  1
  C  729  1  0.50121000  0.41531500  0.97790500  1
  C  730  1  0.50272700  0.39476500  0.97752900  1
  C  731  1  0.50264100  0.38371900  0.99510500  1
  C  732  1  0.50458900  0.36290700  0.99472100  1
  C  733  1  0.51910900  0.35376400  0.98308100  1
  C  739  1  0.08063300  0.51225900  0.99406000  1
  C  740  1  0.10121800  0.51114100  0.99387600  1
  C  743  1  0.01404200  0.49609300  0.95685600  1
  C  745  1  0.03826900  0.49620500  0.97896000  1
  C  746  1  0.04676000  0.49579200  0.96033800  1
  C  747  1  0.03182500  0.49579900  0.94670900  1
  C  748  1  0.04845300  0.49617500  0.99709200  1
  C  749  1  0.06927200  0.49513500  0.99636200  1
  C  750  1  0.09939600  0.47586000  0.99819700  1
  C  751  1  0.07882400  0.47690600  0.99835300  1
  C  754  1  0.11099700  0.49294400  0.99601500  1
  C  755  1  0.13191100  0.49182800  0.99644300  1
  C  756  1  0.14204800  0.47665700  0.98655800  1
  C  757  1  0.16255300  0.47500600  0.98776600  1
  C  758  1  0.17369400  0.48868300  0.99862700  1
  C  763  1  0.32023400  0.49647900  0.99154700  1
  C  764  1  0.33123700  0.48512100  0.97815700  1
  C  766  1  0.29949000  0.49763100  0.98995300  1
  C  769  1  0.23924000  0.51414300  0.99143700  1
  C  771  1  0.42477100  0.49500900  0.99625500  1
  C  772  1  0.41495000  0.49638500  0.97810700  1
  C  773  1  0.39436400  0.49620000  0.97737300  1
  C  774  1  0.38302600  0.49463800  0.99470200  1
  C  775  1  0.36210300  0.49494800  0.99389000  1
  C  776  1  0.35178800  0.48425600  0.97940400  1
  C  782  1  0.44754500  0.45926800  0.99622600  1
  C  783  1  0.46235400  0.44549100  0.99607000  1
  C  784  1  0.48029300  0.45535600  0.99660400  1
  C  786  1  0.45609600  0.47786800  0.99688700  1
  C  787  1  0.44559300  0.49587500  0.99700100  1
  C  788  1  0.45427700  0.51477900  0.99717000  1
  C  790  1  0.47661000  0.53878900  0.99708900  1
  C  791  1  0.45807400  0.54746500  0.99699100  1
  C  792  1  0.44430200  0.53266100  0.99710400  1
  C  793  1  0.49483600  0.54879400  0.99694800  1
  C  794  1  0.51354100  0.53959300  0.99695300  1
  C  796  1  0.53772800  0.51709200  0.99668000  1
  C  797  1  0.54628600  0.53569700  0.99703900  1
  C  798  1  0.53148400  0.54946700  0.99720300  1
  C  799  1  0.54824900  0.49909900  0.99635200  1
  C  800  1  0.53958000  0.48020200  0.99630600  1
  C  802  1  0.51724100  0.45620000  0.99638000  1
  C  803  1  0.53579400  0.44753900  0.99611200  1
  C  804  1  0.54956800  0.46234100  0.99602800  1
  C  805  1  0.49900800  0.44618100  0.99639100  1
  C  808  1  0.56907500  0.50008100  0.99598700  1
  C  809  1  0.57912700  0.50192400  0.97800300  1
  C  810  1  0.59966800  0.50354500  0.97768300  1
  C  811  1  0.61068300  0.50328200  0.99527600  1
  C  812  1  0.63150100  0.50517900  0.99493300  1
  C  813  1  0.64070600  0.51976000  0.98342300  1
  C  814  1  0.66122200  0.52173800  0.98321300  1
  C  820  1  0.67333600  0.50903400  0.99426800  1
  C  822  1  0.69414900  0.51119200  0.99397200  1
  C  824  1  0.72684000  0.49668700  0.99638100  1
  C  826  1  0.73929100  0.48078600  0.99119600  1
  C  832  1  0.85114900  0.50400300  0.99353200  1
  C  833  1  0.83060400  0.50230800  0.99352700  1
  C  837  1  0.99207500  0.51196700  0.91619900  1
  C  838  1  0.99174400  0.51084800  0.89561300  1
  C  840  1  0.95888300  0.49555600  0.95064600  1
  C  841  1  0.94524800  0.49566400  0.96558400  1
  C  842  1  0.95528200  0.49624900  0.98343300  1
  C  844  1  0.97756400  0.49613200  0.95902200  1
  C  845  1  0.99547100  0.49592200  0.94835200  1
  C  846  1  0.99439500  0.49483800  0.92754800  1
  C  847  1  0.99621600  0.47659300  0.91798400  1
  C  848  1  0.99592500  0.47554600  0.89741000  1
  C  853  1  0.49430300  0.56963000  0.99628000  1
  C  854  1  0.49418400  0.61137200  0.99477000  1
  C  855  1  0.49566100  0.60004500  0.97742800  1
  C  856  1  0.49572000  0.57945800  0.97814100  1
  C  857  1  0.49450200  0.63229100  0.99396600  1
  C  858  1  0.48373600  0.64261000  0.97954000  1
  C  859  1  0.48459200  0.66316100  0.97830000  1
  C  865  1  0.49600500  0.67415700  0.99164800  1
  C  867  1  0.49714100  0.69490000  0.99005800  1
  C  870  1  0.51363100  0.75515100  0.99146500  1
  C  873  1  0.49244500  0.88339600  0.99634000  1
  C  874  1  0.49132200  0.86248100  0.99671700  1
  C  875  1  0.48816900  0.82069200  0.99883600  1
  C  876  1  0.47440600  0.83186700  0.98811800  1
  C  877  1  0.47606100  0.85237400  0.98694100  1
  C  882  1  0.47632200  0.99969100  0.91829900  1
  C  885  1  0.51177100  0.91375600  0.99442900  1
  C  886  1  0.51063200  0.89317400  0.99411700  1
  C  888  1  0.49518800  0.94810600  0.96133500  1
  C  889  1  0.49526800  0.96299400  0.94764500  1
  C  890  1  0.49589600  0.98087300  0.95762200  1
  C  892  1  0.49589000  0.95654000  0.97998900  1
  C  893  1  0.49578100  0.94592600  0.99793600  1
  C  894  1  0.49583700  0.99964500  0.94854800  1
  C  895  1  0.49467900  0.92512000  0.99693800  1
  C  896  1  0.47645300  0.91557000  0.99898300  1
  C  897  1  0.47538800  0.89500000  0.99870900  1
  C  901  1  0.61372000  0.13044200  0.15890400  1
  C  903  1  0.61376600  0.15476500  0.13653700  1
  C  904  1  0.61365500  0.16321700  0.15519600  1
  C  905  1  0.61368200  0.14833400  0.16888200  1
  C  906  1  0.61351400  0.16538300  0.11859900  1
  C  907  1  0.61252600  0.18618400  0.11966100  1
  C  908  1  0.59418200  0.19571700  0.11926200  1
  C  909  1  0.59311200  0.21626400  0.12024400  1
  C  915  1  0.61029300  0.22783100  0.12165600  1
  C  916  1  0.62862300  0.21809000  0.12205100  1
  C  917  1  0.62975700  0.19752600  0.12109700  1
  C  920  1  0.60910000  0.24871200  0.12231400  1
  C  921  1  0.59505300  0.25825500  0.13422400  1
  C  922  1  0.59327500  0.27878500  0.13418500  1
  C  923  1  0.60565100  0.29054400  0.12242800  1
  C  926  1  0.60312000  0.31124500  0.12171600  1
  C  930  1  0.61149500  0.44751900  0.12269200  1
  C  933  1  0.63269500  0.35647600  0.12257100  1
  C  934  1  0.61693400  0.34393800  0.11800600  1
  C  936  1  0.61808000  0.51115700  0.12993100  1
  C  937  1  0.61666100  0.53171300  0.13037000  1
  C  938  1  0.60949600  0.46802900  0.12301800  1
  C  942  1  0.15665500  0.61368100  0.13272900  1
  C  944  1  0.13437200  0.61383300  0.15713200  1
  C  945  1  0.15305500  0.61365300  0.16552300  1
  C  946  1  0.16668900  0.61361500  0.15059100  1
  C  947  1  0.11711400  0.59437500  0.19816100  1
  C  948  1  0.11814100  0.59331300  0.21871100  1
  C  953  1  0.11760300  0.61270900  0.18861300  1
  C  954  1  0.12019100  0.62881300  0.22050700  1
  C  955  1  0.11918600  0.62993900  0.19994100  1
  C  959  1  0.28089500  0.62123500  0.12515100  1
  C  960  1  0.26036100  0.62273400  0.12412600  1
  C  963  1  0.31156900  0.60379700  0.11724400  1
  C  965  1  0.44769600  0.62429300  0.12296600  1
  C  967  1  0.38473900  0.61548900  0.12170600  1
  C  969  1  0.37235600  0.60261800  0.13236500  1
  C  975  1  0.34398400  0.61823200  0.11818900  1
  C  976  1  0.53089400  0.61055400  0.13046100  1
  C  977  1  0.51029400  0.61037100  0.12966000  1
  C  978  1  0.46826800  0.62357300  0.12407900  1
  C  982  1  0.71767500  0.61848900  0.13006400  1
  C  983  1  0.69712300  0.61697300  0.13044800  1
  C  984  1  0.76078300  0.60990500  0.12308700  1
  C  988  1  0.78130500  0.61178200  0.12273600  1
  C  991  1  0.87248200  0.63254100  0.12253800  1
  C  992  1  0.88492800  0.61674500  0.11784300  1
  C  994  1  0.00102411  0.60998100  0.12146700  1
  C  995  1  0.98014200  0.60871800  0.12200000  1
  C  996  1  0.93830600  0.60525400  0.12199200  1
  C  997  1  0.95004500  0.59277300  0.13365900  1
  C  998  1  0.97057400  0.59455700  0.13375500  1
  C  1001  1  0.91759700  0.60277900  0.12127800  1
  C  1008  1  0.11688900  0.61369100  0.16781200  1
  C  1009  1  0.09790410  0.61375700  0.15931900  1
  C  1011  1  0.07368310  0.61368700  0.13721300  1
  C  1012  1  0.06519710  0.61340800  0.15584500  1
  C  1013  1  0.08013310  0.61348300  0.16947600  1
  C  1014  1  0.04268810  0.61236400  0.11986900  1
  C  1015  1  0.03321810  0.59399300  0.11925100  1
  C  1016  1  0.01266510  0.59285000  0.12003200  1
  C  1020  1  0.06349910  0.61344100  0.11907800  1
  C  1021  1  0.01070310  0.62833900  0.12206900  1
  C  1022  1  0.03127210  0.62954600  0.12131300  1
  C  1024  1  0.60998700  0.69795000  0.13050600  1
  C  1025  1  0.60993300  0.71855100  0.12972700  1
  C  1026  1  0.62319200  0.76056800  0.12410600  1
  C  1030  1  0.62389100  0.78114300  0.12301100  1
  C  1032  1  0.61506600  0.84409400  0.12181200  1
  C  1034  1  0.60222200  0.85646700  0.13251800  1
  C  1040  1  0.61773700  0.88484900  0.11825100  1
  C  1041  1  0.62230700  0.96845100  0.12426500  1
  C  1042  1  0.62081600  0.94791400  0.12524100  1
  C  1046  1  0.60328400  0.91727000  0.11743200  1
  C  1048  1  0.62959300  0.10923700  0.20017500  1
  C  1049  1  0.62848800  0.10913000  0.22076600  1
  C  1051  1  0.61327600  0.07173010  0.13373200  1
  C  1053  1  0.61347900  0.09392710  0.15787600  1
  C  1054  1  0.61311800  0.07534210  0.16644500  1
  C  1055  1  0.61307300  0.06165710  0.15156000  1
  C  1056  1  0.61346800  0.11209500  0.16799200  1
  C  1057  1  0.61245400  0.11144000  0.18881600  1
  C  1058  1  0.59319300  0.11334500  0.21894700  1
  C  1059  1  0.59422400  0.11341900  0.19837200  1
  C  1065  1  0.62132400  0.12334600  0.28318000  1
  C  1066  1  0.62280700  0.12228200  0.26264300  1
  C  1070  1  0.11969200  0.61049200  0.23026400  1
  C  1071  1  0.12037100  0.60931000  0.25114900  1
  C  1072  1  0.13218400  0.59518000  0.26068900  1
  C  1073  1  0.13214600  0.59340500  0.28122300  1
  C  1074  1  0.12048100  0.60586200  0.29299000  1
  C  1077  1  0.11975700  0.60334300  0.31369600  1
  C  1081  1  0.10923500  0.62012800  0.28348900  1
  C  1082  1  0.10918400  0.62182100  0.26294000  1
  C  1086  1  0.61029000  0.11125400  0.23054600  1
  C  1087  1  0.60918100  0.11174800  0.25146000  1
  C  1088  1  0.59405000  0.10183800  0.26163200  1
  C  1089  1  0.59239500  0.10310800  0.28213600  1
  C  1090  1  0.60603600  0.11405500  0.29323900  1
  C  1093  1  0.60392500  0.11587300  0.31388500  1
  C  1097  1  0.62431300  0.12112200  0.45002300  1
  C  1099  1  0.61559900  0.11997300  0.38705100  1
  C  1101  1  0.60270700  0.13060100  0.37466300  1
  C  1107  1  0.12090600  0.61188100  0.45000500  1
  C  1110  1  0.12089700  0.63294600  0.35891300  1
  C  1112  1  0.11662300  0.61720600  0.34639100  1
  C  1113  1  0.10961900  0.62631900  0.44078000  1
  C  1115  1  0.10938900  0.62858500  0.41997500  1
  C  1117  1  0.11187000  0.61422700  0.38723000  1
  C  1119  1  0.10667400  0.59839200  0.37470000  1
  C  1125  1  0.61375300  0.10697300  0.43974700  1
  C  1127  1  0.61494800  0.10541800  0.41900000  1
  C  1130  1  0.63153700  0.10701800  0.35878200  1
  C  1131  1  0.61838200  0.11689900  0.34629400  1
  C  1133  1  0.61045700  0.12847500  0.53321600  1
  C  1134  1  0.61028000  0.12770500  0.51261100  1
  C  1135  1  0.62357000  0.12219300  0.47060000  1
  C  1139  1  0.12795400  0.61853600  0.51370200  1
  C  1140  1  0.12829700  0.61713800  0.53426700  1
  C  1141  1  0.12118000  0.60988600  0.47052200  1
  C  1145  1  0.09841810  0.63887400  0.45291500  1
  C  1146  1  0.11105600  0.61723700  0.54503500  1
  C  1147  1  0.09308010  0.61871400  0.53491300  1
  C  1148  1  0.09280110  0.62024900  0.51436000  1
  C  1149  1  0.11042900  0.62026000  0.50340700  1
  C  1150  1  0.11013300  0.62223100  0.48259500  1
  C  1151  1  0.09855110  0.63677800  0.47342400  1
  C  1157  1  0.60237700  0.09356510  0.45070900  1
  C  1158  1  0.61216600  0.11151500  0.54429400  1
  C  1159  1  0.61357200  0.09338610  0.53444700  1
  C  1160  1  0.61340400  0.09268310  0.51385600  1
  C  1161  1  0.61181100  0.11002300  0.50254500  1
  C  1162  1  0.61214700  0.10924700  0.48161900  1
  C  1163  1  0.60147500  0.09477910  0.47126400  1
  C  1169  1  0.13095300  0.15660100  0.61328700  1
  C  1171  1  0.15495900  0.13392700  0.61325900  1
  C  1172  1  0.16361000  0.15241100  0.61153000  1
  C  1173  1  0.14891000  0.16629100  0.61152100  1
  C  1178  1  0.22782100  0.11865000  0.61142300  1
  C  1179  1  0.21786000  0.11964100  0.62961200  1
  C  1181  1  0.19728300  0.11872500  0.63050600  1
  C  1183  1  0.24869400  0.11951300  0.61045500  1
  C  1184  1  0.25824000  0.13126000  0.59627800  1
  C  1185  1  0.27878400  0.13142200  0.59471500  1
  C  1186  1  0.29054400  0.12001800  0.60741800  1
  C  1189  1  0.31126900  0.11943200  0.60503200  1
  C  1193  1  0.44748200  0.12078600  0.61378800  1
  C  1196  1  0.35638600  0.12071100  0.63478000  1
  C  1198  1  0.51112200  0.12799700  0.62034400  1
  C  1199  1  0.53167800  0.12840600  0.61891100  1
  C  1200  1  0.46799100  0.12108200  0.61178600  1
  C  1204  1  0.69788800  0.12846800  0.61219100  1
  C  1205  1  0.71848900  0.12770100  0.61216000  1
  C  1206  1  0.76047400  0.12218300  0.62554500  1
  C  1210  1  0.78104700  0.12110700  0.62630200  1
  C  1212  1  0.84401500  0.11991900  0.61760000  1
  C  1214  1  0.85637000  0.13056200  0.60468900  1
  C  1220  1  0.96842900  0.12269400  0.62454800  1
  C  1221  1  0.94787000  0.12350200  0.62322000  1
  C  1225  1  0.11566200  0.19734000  0.63143200  1
  C  1226  1  0.11499800  0.21793300  0.63145900  1
  C  1228  1  0.07197710  0.13220800  0.61467500  1
  C  1230  1  0.09448110  0.15604600  0.61467600  1
  C  1231  1  0.07603010  0.16482300  0.61593000  1
  C  1232  1  0.06215110  0.15012300  0.61589000  1
  C  1233  1  0.11275800  0.16594700  0.61400100  1
  C  1234  1  0.11234400  0.18680000  0.61394200  1
  C  1235  1  0.10755700  0.21778300  0.59659300  1
  C  1236  1  0.10841400  0.19719200  0.59648100  1
  C  1242  1  0.12202700  0.28138700  0.62385900  1
  C  1243  1  0.12381700  0.26087100  0.62300200  1
  C  1248  1  0.11083200  0.22846000  0.61407500  1
  C  1249  1  0.10939900  0.24926300  0.61436000  1
  C  1250  1  0.09270610  0.25880200  0.60663000  1
  C  1251  1  0.09075710  0.27928000  0.60782300  1
  C  1252  1  0.10562200  0.29092500  0.61638200  1
  C  1255  1  0.10323400  0.31156500  0.61817400  1
  C  1257  1  0.12228400  0.44805800  0.62469700  1
  C  1260  1  0.12958700  0.35699700  0.60757200  1
  C  1262  1  0.11705700  0.34437500  0.61756400  1
  C  1263  1  0.11387600  0.43825200  0.60869900  1
  C  1264  1  0.10442600  0.44970800  0.59422600  1
  C  1266  1  0.11490400  0.41750100  0.60681900  1
  C  1268  1  0.11407800  0.38516900  0.62124600  1
  C  1270  1  0.10138100  0.37264000  0.63196300  1
  C  1276  1  0.12915600  0.53209100  0.61702000  1
  C  1277  1  0.12931600  0.51150600  0.61619200  1
  C  1278  1  0.12173500  0.46861200  0.62613400  1
  C  1282  1  0.11182700  0.54250100  0.61486100  1
  C  1283  1  0.09426810  0.53199100  0.61183000  1
  C  1284  1  0.09450410  0.51140600  0.61080800  1
  C  1285  1  0.11222400  0.50084800  0.61300700  1
  C  1286  1  0.11252500  0.48002400  0.61175500  1
  C  1287  1  0.10356600  0.47023400  0.59583500  1
  C  1293  1  0.11234900  0.56522800  0.57908800  1
  C  1294  1  0.11218600  0.58000000  0.56527200  1
  C  1295  1  0.11169500  0.59795300  0.57511000  1
  C  1297  1  0.11184000  0.57381000  0.59768600  1
  C  1298  1  0.11169500  0.56333900  0.61572100  1
  C  1299  1  0.11162600  0.57206100  0.63460800  1
  C  1301  1  0.11182600  0.59445100  0.65856500  1
  C  1302  1  0.11114600  0.57594400  0.66728300  1
  C  1303  1  0.11103000  0.56213800  0.65250900  1
  C  1304  1  0.11206300  0.61270100  0.66852900  1
  C  1305  1  0.11238600  0.63138500  0.65929200  1
  C  1307  1  0.11223900  0.65551500  0.63672800  1
  C  1308  1  0.11247500  0.66412200  0.65531600  1
  C  1309  1  0.11260100  0.64935500  0.66912400  1
  C  1310  1  0.11178500  0.66598000  0.61870600  1
  C  1311  1  0.11158400  0.65727200  0.59982300  1
  C  1313  1  0.11135700  0.63489200  0.57586300  1
  C  1314  1  0.11102700  0.65342400  0.56716300  1
  C  1315  1  0.11113000  0.66722600  0.58194000  1
  C  1316  1  0.11138300  0.61664100  0.56588200  1
  C  1319  1  0.12671200  0.71865900  0.62098200  1
  C  1320  1  0.12776100  0.69809900  0.61996200  1
  C  1321  1  0.11867100  0.76113400  0.61021900  1
  C  1325  1  0.11737900  0.78168600  0.61102500  1
  C  1326  1  0.11087200  0.68678400  0.61961900  1
  C  1327  1  0.09254310  0.69633200  0.62033800  1
  C  1328  1  0.09155410  0.71687700  0.62144500  1
  C  1329  1  0.10881300  0.72839300  0.62179100  1
  C  1330  1  0.10773500  0.74923600  0.62283700  1
  C  1331  1  0.09506110  0.75862000  0.63630000  1
  C  1332  1  0.09376710  0.77917300  0.63709000  1
  C  1339  1  0.11766600  0.84424000  0.62113300  1
  C  1341  1  0.13364700  0.85661900  0.62615300  1
  C  1347  1  0.10520500  0.79109800  0.62456000  1
  C  1349  1  0.10350600  0.81191500  0.62516900  1
  C  1352  1  0.09947610  0.87262800  0.61187100  1
  C  1353  1  0.11528000  0.88509100  0.61656300  1
  C  1355  1  0.11871700  0.00128811  0.61308800  1
  C  1356  1  0.12072000  0.98050500  0.61305100  1
  C  1357  1  0.12553600  0.93885000  0.61402300  1
  C  1358  1  0.13932100  0.95097700  0.60438300  1
  C  1359  1  0.13686600  0.97142700  0.60374500  1
  C  1363  1  0.12845900  0.91819600  0.61508700  1
  C  1365  1  0.10741400  0.96842500  0.62281000  1
  C  1366  1  0.10974100  0.94795000  0.62322100  1
  C  1372  1  0.19593700  0.11595900  0.59499100  1
  C  1373  1  0.21649300  0.11696800  0.59415100  1
  C  1376  1  0.16535000  0.11629400  0.61393900  1
  C  1377  1  0.15652500  0.09748210  0.61460300  1
  C  1379  1  0.13402000  0.07365210  0.61455300  1
  C  1380  1  0.15248300  0.06486810  0.61559700  1
  C  1381  1  0.16636600  0.07956510  0.61559700  1
  C  1382  1  0.11952400  0.03280310  0.59575300  1
  C  1383  1  0.12083100  0.01223710  0.59558900  1
  C  1384  1  0.18616900  0.11706100  0.61318400  1
  C  1388  1  0.28102400  0.10885700  0.62174700  1
  C  1389  1  0.26046300  0.10861100  0.62323900  1
  C  1392  1  0.34390800  0.11638900  0.61901900  1
  C  1393  1  0.43827800  0.10952500  0.62826300  1
  C  1395  1  0.41747900  0.10926400  0.63052300  1
  C  1397  1  0.38474800  0.11168500  0.61613300  1
  C  1399  1  0.37226200  0.10642700  0.60028300  1
  C  1405  1  0.45042900  0.09838310  0.64085400  1
  C  1406  1  0.54251400  0.11121300  0.61919100  1
  C  1407  1  0.53246600  0.09320910  0.62082800  1
  C  1408  1  0.51191700  0.09286310  0.62235400  1
  C  1409  1  0.50089500  0.11044800  0.62221000  1
  C  1410  1  0.48008400  0.11009800  0.62417100  1
  C  1411  1  0.47093500  0.09854210  0.63875500  1
  C  1417  1  0.57642900  0.11146700  0.56707200  1
  C  1418  1  0.56265300  0.11131000  0.58188600  1
  C  1419  1  0.57252200  0.11185700  0.59982600  1
  C  1421  1  0.59502900  0.11213100  0.57562300  1
  C  1422  1  0.61303800  0.11223300  0.56512000  1
  C  1423  1  0.63194500  0.11239400  0.57379800  1
  C  1425  1  0.65595900  0.11230500  0.59612700  1
  C  1426  1  0.66463100  0.11221800  0.57758500  1
  C  1427  1  0.64982200  0.11232400  0.56381500  1
  C  1428  1  0.66597000  0.11216300  0.61435400  1
  C  1429  1  0.65677100  0.11216900  0.63306400  1
  C  1431  1  0.63427000  0.11191700  0.65725800  1
  C  1432  1  0.65287600  0.11227700  0.66581600  1
  C  1433  1  0.66666667  0.11242900  0.65101100  1
  C  1434  1  0.61627900  0.11160900  0.66778100  1
  C  1435  1  0.59737800  0.11156800  0.65911800  1
  C  1437  1  0.57337100  0.11164600  0.63678200  1
  C  1438  1  0.56471500  0.11139600  0.65534100  1
  C  1439  1  0.57952100  0.11130800  0.66911400  1
  C  1440  1  0.56335100  0.11165100  0.61854900  1
  C  1443  1  0.68680400  0.11150300  0.61381900  1
  C  1444  1  0.72854600  0.11001900  0.61374600  1
  C  1445  1  0.71722900  0.09268110  0.61529900  1
  C  1446  1  0.69664100  0.09338010  0.61533200  1
  C  1447  1  0.74946400  0.10923100  0.61411900  1
  C  1448  1  0.75982200  0.09475710  0.60345900  1
  C  1449  1  0.78037100  0.09353210  0.60438100  1
  C  1455  1  0.79132500  0.10694000  0.61576400  1
  C  1457  1  0.81206700  0.10537100  0.61697500  1
  C  1460  1  0.87231900  0.10696700  0.63348000  1
  C  1461  1  0.88477600  0.11687400  0.62031200  1
  C  1464  1  0.00057311  0.11244600  0.61149900  1
  C  1465  1  0.97965400  0.11258800  0.61062400  1
  C  1466  1  0.93783100  0.11433300  0.60783500  1
  C  1467  1  0.94898700  0.10374300  0.59395400  1
  C  1468  1  0.96951500  0.10275700  0.59542300  1
  C  1471  1  0.91716400  0.11600900  0.60580200  1
  C  1475  1  0.03119010  0.11023900  0.63037100  1
  C  1476  1  0.01059110  0.10993700  0.62951800  1
  C  1478  1  0.06487810  0.07728310  0.61139900  1
  C  1479  1  0.07958210  0.06340210  0.61138600  1
  C  1480  1  0.09753410  0.07309110  0.61318900  1
  C  1482  1  0.07351910  0.09576310  0.61321900  1
  C  1483  1  0.06313410  0.11381600  0.61393900  1
  C  1484  1  0.11615400  0.06376010  0.61384400  1
  C  1485  1  0.11662500  0.04291710  0.61349500  1
  C  1486  1  0.11554600  0.01155810  0.63076100  1
  C  1487  1  0.11436500  0.03212910  0.63099800  1
  C  1488  1  0.04230710  0.11310400  0.61316700  1
  C  1489  1  0.03250610  0.11555400  0.59512300  1
  C  1490  1  0.01192610  0.11523600  0.59433500  1
  C  1495  1  0.61841700  0.12807900  0.71998100  1
  C  1496  1  0.61691200  0.12845800  0.69942600  1
  C  1497  1  0.60977700  0.12108100  0.76308400  1
  C  1501  1  0.61163400  0.12073600  0.78361100  1
  C  1502  1  0.12832800  0.61054700  0.70045500  1
  C  1503  1  0.12755100  0.61048600  0.72105800  1
  C  1504  1  0.12201700  0.62373000  0.76309400  1
  C  1508  1  0.12093000  0.62439300  0.78367300  1
  C  1509  1  0.11137200  0.61221800  0.68936400  1
  C  1510  1  0.10986400  0.61207600  0.73110500  1
  C  1511  1  0.09253310  0.61367400  0.71978100  1
  C  1512  1  0.09324410  0.61375100  0.69919100  1
  C  1513  1  0.10906400  0.61236200  0.75202500  1
  C  1514  1  0.09459510  0.60164200  0.76232800  1
  C  1520  1  0.09337310  0.60245500  0.78288500  1
  C  1521  1  0.61726200  0.11125100  0.68860900  1
  C  1522  1  0.61911300  0.09327510  0.69866700  1
  C  1523  1  0.62071900  0.09296110  0.71921300  1
  C  1524  1  0.62044600  0.11055400  0.73022200  1
  C  1525  1  0.62232200  0.11021700  0.75104300  1
  C  1526  1  0.63691400  0.09873110  0.76026400  1
  C  1532  1  0.63886100  0.09851910  0.78078800  1
  C  1535  1  0.63211800  0.12047400  0.87484000  1
  C  1538  1  0.11971500  0.61543000  0.84660100  1
  C  1540  1  0.13025900  0.60244900  0.85896700  1
  C  1546  1  0.10677800  0.61378300  0.79389600  1
  C  1548  1  0.10520800  0.61488400  0.81464300  1
  C  1551  1  0.10676400  0.63133100  0.87489000  1
  C  1552  1  0.11653800  0.61807200  0.88735400  1
  C  1554  1  0.61631700  0.11608100  0.88723700  1
  C  1555  1  0.62611100  0.10953800  0.79288400  1
  C  1557  1  0.62822300  0.10922600  0.81370500  1
  C  1559  1  0.61361900  0.11151700  0.84635700  1
  C  1561  1  0.59771700  0.10621400  0.85875700  1
  C  1567  1  0.60946900  0.11880600  0.00333163  1
  C  1568  1  0.60817600  0.11938500  0.98244900  1
  C  1569  1  0.60471300  0.11952100  0.94061000  1
  C  1570  1  0.59218300  0.13109000  0.95239000  1
  C  1571  1  0.59396800  0.13111900  0.97292600  1
  C  1574  1  0.60227000  0.11888700  0.91989400  1
  C  1579  1  0.12194300  0.62237900  0.97096500  1
  C  1580  1  0.12297000  0.62090100  0.95042800  1
  C  1584  1  0.11099200  0.60987100  0.00307763  1
  C  1585  1  0.11140500  0.60877100  0.98216300  1
  C  1586  1  0.11362400  0.60564100  0.94037900  1
  C  1587  1  0.10267000  0.59201900  0.95149600  1
  C  1588  1  0.10144700  0.59366100  0.97200700  1
  C  1591  1  0.11540900  0.60355000  0.91972600  1
  C  1595  1  0.62072600  0.10825900  0.97064200  1
  C  1596  1  0.61903400  0.10832800  0.95009300  1
  C  1599  1  0.61348600  0.15682000  0.10006000  1
  C  1601  1  0.61331700  0.13462600  0.07592160  1
  C  1602  1  0.61299100  0.15322100  0.06736360  1
  C  1603  1  0.61311800  0.16690800  0.08224860  1
  C  1604  1  0.59236300  0.11729100  0.01499960  1
  C  1607  1  0.61193600  0.11718000  0.04499060  1
  C  1608  1  0.62784300  0.11947200  0.01297560  1
  C  1609  1  0.62909200  0.11869400  0.03354360  1
  C  1611  1  0.61984700  0.28104300  0.11109700  1
  C  1612  1  0.62151900  0.26049600  0.11102200  1
  C  1615  1  0.62590600  0.43832200  0.11134900  1
  C  1617  1  0.62819100  0.41752300  0.11109300  1
  C  1619  1  0.61388700  0.38476300  0.11364500  1
  C  1621  1  0.59802800  0.37221500  0.10857200  1
  C  1627  1  0.63843200  0.45048600  0.10014500  1
  C  1628  1  0.61687400  0.54257100  0.11318600  1
  C  1629  1  0.61843700  0.53254200  0.09516060  1
  C  1630  1  0.61995400  0.51199200  0.09478460  1
  C  1631  1  0.61986800  0.50094600  0.11236100  1
  C  1632  1  0.62181600  0.48013400  0.11197700  1
  C  1633  1  0.63633600  0.47099100  0.10033700  1
  C  1639  1  0.19786000  0.62948600  0.11131600  1
  C  1640  1  0.21844500  0.62836800  0.11113200  1
  C  1643  1  0.13126900  0.61332000  0.07411160  1
  C  1645  1  0.15549600  0.61343200  0.09621560  1
  C  1646  1  0.16398700  0.61301900  0.07759360  1
  C  1647  1  0.14905200  0.61302600  0.06396460  1
  C  1648  1  0.16568000  0.61340200  0.11434800  1
  C  1649  1  0.18649900  0.61236200  0.11361800  1
  C  1650  1  0.21662300  0.59308700  0.11545300  1
  C  1651  1  0.19605100  0.59413300  0.11560900  1
  C  1654  1  0.22822400  0.61017100  0.11327100  1
  C  1655  1  0.24913800  0.60905500  0.11369900  1
  C  1656  1  0.25927500  0.59388400  0.10381400  1
  C  1657  1  0.27978000  0.59223300  0.10502200  1
  C  1658  1  0.29092100  0.60591000  0.11588300  1
  C  1663  1  0.43746100  0.61370600  0.10880300  1
  C  1664  1  0.44846400  0.60234800  0.09541260  1
  C  1666  1  0.41671700  0.61485800  0.10720900  1
  C  1669  1  0.35646700  0.63137000  0.10869300  1
  C  1671  1  0.54199800  0.61223600  0.11351100  1
  C  1672  1  0.53217700  0.61361200  0.09536260  1
  C  1673  1  0.51159100  0.61342700  0.09462860  1
  C  1674  1  0.50025300  0.61186500  0.11195800  1
  C  1675  1  0.47933000  0.61217500  0.11114600  1
  C  1676  1  0.46901500  0.60148300  0.09665960  1
  C  1682  1  0.56477200  0.57649500  0.11348200  1
  C  1683  1  0.57958100  0.56271800  0.11332600  1
  C  1684  1  0.59752000  0.57258300  0.11386000  1
  C  1686  1  0.57332300  0.59509500  0.11414300  1
  C  1687  1  0.56282000  0.61310200  0.11425700  1
  C  1688  1  0.57150400  0.63200600  0.11442600  1
  C  1690  1  0.59383700  0.65601600  0.11434500  1
  C  1691  1  0.57530100  0.66469200  0.11424700  1
  C  1692  1  0.56152900  0.64988800  0.11436000  1
  C  1693  1  0.61206300  0.66602100  0.11420400  1
  C  1694  1  0.63076800  0.65682000  0.11420900  1
  C  1696  1  0.65495500  0.63431900  0.11393600  1
  C  1697  1  0.66351300  0.65292400  0.11429500  1
  C  1698  1  0.64871100  0.66666667  0.11445900  1
  C  1699  1  0.66547600  0.61632600  0.11360800  1
  C  1700  1  0.65680700  0.59742900  0.11356200  1
  C  1702  1  0.63446800  0.57342700  0.11363600  1
  C  1703  1  0.65302100  0.56476600  0.11336800  1
  C  1704  1  0.66679500  0.57956800  0.11328400  1
  C  1705  1  0.61623500  0.56340800  0.11364700  1
  C  1708  1  0.68630200  0.61730800  0.11324300  1
  C  1709  1  0.69635400  0.61915100  0.09525860  1
  C  1710  1  0.71689500  0.62077200  0.09493860  1
  C  1711  1  0.72791000  0.62050900  0.11253200  1
  C  1712  1  0.74872800  0.62240600  0.11218900  1
  C  1713  1  0.75793300  0.63698700  0.10067900  1
  C  1714  1  0.77844900  0.63896500  0.10046900  1
  C  1720  1  0.79056300  0.62626100  0.11152400  1
  C  1722  1  0.81137600  0.62841900  0.11122800  1
  C  1724  1  0.84406700  0.61391400  0.11363700  1
  C  1726  1  0.85651800  0.59801300  0.10845200  1
  C  1732  1  0.96837600  0.62123000  0.11078800  1
  C  1733  1  0.94783100  0.61953500  0.11078300  1
  C  1737  1  0.10930200  0.62919400  0.03345460  1
  C  1738  1  0.10897100  0.62807500  0.01286860  1
  C  1740  1  0.07611010  0.61278300  0.06790160  1
  C  1741  1  0.06247510  0.61289100  0.08283960  1
  C  1742  1  0.07250910  0.61347600  0.10068900  1
  C  1744  1  0.09479110  0.61335900  0.07627760  1
  C  1745  1  0.11269800  0.61314900  0.06560760  1
  C  1746  1  0.11162200  0.61206500  0.04480360  1
  C  1747  1  0.11344300  0.59382000  0.03523960  1
  C  1748  1  0.11315200  0.59277300  0.01466560  1
  C  1753  1  0.61153000  0.68685700  0.11353600  1
  C  1754  1  0.61141100  0.72859900  0.11202600  1
  C  1755  1  0.61288800  0.71727200  0.09468360  1
  C  1756  1  0.61294700  0.69668500  0.09539660  1
  C  1757  1  0.61172900  0.74951800  0.11122200  1
  C  1758  1  0.60096300  0.75983700  0.09679560  1
  C  1759  1  0.60181900  0.78038800  0.09555560  1
  C  1765  1  0.61323200  0.79138400  0.10890400  1
  C  1767  1  0.61436800  0.81212700  0.10731400  1
  C  1770  1  0.63085800  0.87237800  0.10872100  1
  C  1773  1  0.60967200  0.00062311  0.11359600  1
  C  1774  1  0.60854900  0.97970800  0.11397300  1
  C  1775  1  0.60539600  0.93791900  0.11609200  1
  C  1776  1  0.59163300  0.94909400  0.10537400  1
  C  1777  1  0.59328800  0.96960100  0.10419700  1
  C  1782  1  0.59354900  0.11691800  0.03555460  1
  C  1785  1  0.62899800  0.03098310  0.11168500  1
  C  1786  1  0.62785900  0.01040110  0.11137300  1
  C  1788  1  0.61241500  0.06533310  0.07859060  1
  C  1789  1  0.61249500  0.08022110  0.06490060  1
  C  1790  1  0.61312300  0.09810010  0.07487760  1
  C  1792  1  0.61311700  0.07376710  0.09724460  1
  C  1793  1  0.61300800  0.06315310  0.11519200  1
  C  1794  1  0.61306400  0.11687200  0.06580360  1
  C  1795  1  0.61190600  0.04234710  0.11419400  1
  C  1796  1  0.59368000  0.03279710  0.11623900  1
  C  1797  1  0.59261500  0.01222710  0.11596500  1
  C  1801  1  0.73094700  0.24766900  0.27615900  1
  C  1803  1  0.73099300  0.27199200  0.25379200  1
  C  1804  1  0.73088200  0.28044400  0.27245100  1
  C  1805  1  0.73090900  0.26556100  0.28613700  1
  C  1806  1  0.73074100  0.28261000  0.23585400  1
  C  1807  1  0.72975300  0.30341100  0.23691600  1
  C  1808  1  0.71140900  0.31294400  0.23651700  1
  C  1809  1  0.71033900  0.33349100  0.23749900  1
  C  1815  1  0.72752000  0.34505800  0.23891100  1
  C  1816  1  0.74585000  0.33531700  0.23930600  1
  C  1817  1  0.74698400  0.31475300  0.23835200  1
  C  1820  1  0.72632700  0.36593900  0.23956900  1
  C  1821  1  0.71228000  0.37548200  0.25147900  1
  C  1822  1  0.71050200  0.39601200  0.25144000  1
  C  1823  1  0.72287800  0.40777100  0.23968300  1
  C  1826  1  0.72034700  0.42847200  0.23897100  1
  C  1830  1  0.72872200  0.56474600  0.23994700  1
  C  1833  1  0.74992200  0.47370300  0.23982600  1
  C  1834  1  0.73416100  0.46116500  0.23526100  1
  C  1836  1  0.73530700  0.62838400  0.24718600  1
  C  1837  1  0.73388800  0.64894000  0.24762500  1
  C  1838  1  0.72672300  0.58525600  0.24027300  1
  C  1842  1  0.27388200  0.73090800  0.24998400  1
  C  1844  1  0.25159900  0.73106000  0.27438700  1
  C  1845  1  0.27028200  0.73088000  0.28277800  1
  C  1846  1  0.28391600  0.73084200  0.26784600  1
  C  1847  1  0.23434100  0.71160200  0.31541600  1
  C  1848  1  0.23536800  0.71054000  0.33596600  1
  C  1853  1  0.23483000  0.72993600  0.30586800  1
  C  1854  1  0.23741800  0.74604000  0.33776200  1
  C  1855  1  0.23641300  0.74716600  0.31719600  1
  C  1859  1  0.39812200  0.73846200  0.24240600  1
  C  1860  1  0.37758800  0.73996100  0.24138100  1
  C  1863  1  0.42879600  0.72102400  0.23449900  1
  C  1865  1  0.56492300  0.74152000  0.24022100  1
  C  1867  1  0.50196600  0.73271600  0.23896100  1
  C  1869  1  0.48958300  0.71984500  0.24962000  1
  C  1875  1  0.46121100  0.73545900  0.23544400  1
  C  1876  1  0.64812100  0.72778100  0.24771600  1
  C  1877  1  0.62752100  0.72759800  0.24691500  1
  C  1878  1  0.58549500  0.74080000  0.24133400  1
  C  1882  1  0.83490200  0.73571600  0.24731900  1
  C  1883  1  0.81435000  0.73420000  0.24770300  1
  C  1884  1  0.87801000  0.72713200  0.24034200  1
  C  1888  1  0.89853200  0.72900900  0.23999100  1
  C  1891  1  0.98970900  0.74976800  0.23979300  1
  C  1892  1  0.00215522  0.73397200  0.23509800  1
  C  1894  1  0.11825100  0.72720800  0.23872200  1
  C  1895  1  0.09736920  0.72594500  0.23925500  1
  C  1896  1  0.05553320  0.72248100  0.23924700  1
  C  1897  1  0.06727220  0.71000000  0.25091400  1
  C  1898  1  0.08780120  0.71178400  0.25101000  1
  C  1901  1  0.03482420  0.72000600  0.23853300  1
  C  1908  1  0.23411600  0.73091800  0.28506700  1
  C  1909  1  0.21513100  0.73098400  0.27657400  1
  C  1911  1  0.19091000  0.73091400  0.25446800  1
  C  1912  1  0.18242400  0.73063500  0.27310000  1
  C  1913  1  0.19736000  0.73071000  0.28673100  1
  C  1914  1  0.15991500  0.72959100  0.23712400  1
  C  1915  1  0.15044500  0.71122000  0.23650600  1
  C  1916  1  0.12989200  0.71007700  0.23728700  1
  C  1920  1  0.18072600  0.73066800  0.23633300  1
  C  1921  1  0.12793000  0.74556600  0.23932400  1
  C  1922  1  0.14849900  0.74677300  0.23856800  1
  C  1924  1  0.72721400  0.81517700  0.24776100  1
  C  1925  1  0.72716000  0.83577800  0.24698200  1
  C  1926  1  0.74041900  0.87779500  0.24136100  1
  C  1930  1  0.74111800  0.89837000  0.24026600  1
  C  1932  1  0.73229300  0.96132100  0.23906700  1
  C  1934  1  0.71944900  0.97369400  0.24977300  1
  C  1940  1  0.73496400  0.00207622  0.23550600  1
  C  1941  1  0.73953400  0.08567820  0.24152000  1
  C  1942  1  0.73804300  0.06514120  0.24249600  1
  C  1946  1  0.72051100  0.03449720  0.23468700  1
  C  1948  1  0.74682000  0.22646400  0.31743000  1
  C  1949  1  0.74571500  0.22635700  0.33802100  1
  C  1951  1  0.73050300  0.18895700  0.25098700  1
  C  1953  1  0.73070600  0.21115400  0.27513100  1
  C  1954  1  0.73034500  0.19256900  0.28370000  1
  C  1955  1  0.73030000  0.17888400  0.26881500  1
  C  1956  1  0.73069500  0.22932200  0.28524700  1
  C  1957  1  0.72968100  0.22866700  0.30607100  1
  C  1958  1  0.71042000  0.23057200  0.33620200  1
  C  1959  1  0.71145100  0.23064600  0.31562700  1
  C  1965  1  0.73855100  0.24057300  0.40043500  1
  C  1966  1  0.74003400  0.23950900  0.37989800  1
  C  1970  1  0.23691900  0.72771900  0.34751900  1
  C  1971  1  0.23759800  0.72653700  0.36840400  1
  C  1972  1  0.24941100  0.71240700  0.37794400  1
  C  1973  1  0.24937300  0.71063200  0.39847800  1
  C  1974  1  0.23770800  0.72308900  0.41024500  1
  C  1977  1  0.23698400  0.72057000  0.43095100  1
  C  1981  1  0.22646200  0.73735500  0.40074400  1
  C  1982  1  0.22641100  0.73904800  0.38019500  1
  C  1986  1  0.72751700  0.22848100  0.34780100  1
  C  1987  1  0.72640800  0.22897500  0.36871500  1
  C  1988  1  0.71127700  0.21906500  0.37888700  1
  C  1989  1  0.70962200  0.22033500  0.39939100  1
  C  1990  1  0.72326300  0.23128200  0.41049400  1
  C  1993  1  0.72115200  0.23310000  0.43114000  1
  C  1997  1  0.74154000  0.23834900  0.56727800  1
  C  1999  1  0.73282600  0.23720000  0.50430600  1
  C  2001  1  0.71993400  0.24782800  0.49191800  1
  C  2007  1  0.23813300  0.72910800  0.56726000  1
  C  2010  1  0.23812400  0.75017300  0.47616800  1
  C  2012  1  0.23385000  0.73443300  0.46364600  1
  C  2013  1  0.22684600  0.74354600  0.55803500  1
  C  2015  1  0.22661600  0.74581200  0.53723000  1
  C  2017  1  0.22909700  0.73145400  0.50448500  1
  C  2019  1  0.22390100  0.71561900  0.49195500  1
  C  2025  1  0.73098000  0.22420000  0.55700200  1
  C  2027  1  0.73217500  0.22264500  0.53625500  1
  C  2030  1  0.74876400  0.22424500  0.47603700  1
  C  2031  1  0.73560900  0.23412600  0.46354900  1
  C  2033  1  0.72768400  0.24570200  0.65047100  1
  C  2034  1  0.72750700  0.24493200  0.62986600  1
  C  2035  1  0.74079700  0.23942000  0.58785500  1
  C  2039  1  0.24518100  0.73576300  0.63095700  1
  C  2040  1  0.24552400  0.73436500  0.65152200  1
  C  2041  1  0.23840700  0.72711300  0.58777700  1
  C  2045  1  0.21564500  0.75610100  0.57017000  1
  C  2046  1  0.22828300  0.73446400  0.66229000  1
  C  2047  1  0.21030700  0.73594100  0.65216800  1
  C  2048  1  0.21002800  0.73747600  0.63161500  1
  C  2049  1  0.22765600  0.73748700  0.62066200  1
  C  2050  1  0.22736000  0.73945800  0.59985000  1
  C  2051  1  0.21577800  0.75400500  0.59067900  1
  C  2057  1  0.71960400  0.21079200  0.56796400  1
  C  2058  1  0.72939300  0.22874200  0.66154900  1
  C  2059  1  0.73079900  0.21061300  0.65170200  1
  C  2060  1  0.73063100  0.20991000  0.63111100  1
  C  2061  1  0.72903800  0.22725000  0.61980000  1
  C  2062  1  0.72937400  0.22647400  0.59887400  1
  C  2063  1  0.71870200  0.21200600  0.58851900  1
  C  2069  1  0.24818000  0.27382800  0.73054200  1
  C  2071  1  0.27218600  0.25115400  0.73051400  1
  C  2072  1  0.28083700  0.26963800  0.72878500  1
  C  2073  1  0.26613700  0.28351800  0.72877600  1
  C  2078  1  0.34504800  0.23587700  0.72867800  1
  C  2079  1  0.33508700  0.23686800  0.74686700  1
  C  2081  1  0.31451000  0.23595200  0.74776100  1
  C  2083  1  0.36592100  0.23674000  0.72771000  1
  C  2084  1  0.37546700  0.24848700  0.71353300  1
  C  2085  1  0.39601100  0.24864900  0.71197000  1
  C  2086  1  0.40777100  0.23724500  0.72467300  1
  C  2089  1  0.42849600  0.23665900  0.72228700  1
  C  2093  1  0.56470900  0.23801300  0.73104300  1
  C  2096  1  0.47361300  0.23793800  0.75203500  1
  C  2098  1  0.62834900  0.24522400  0.73759900  1
  C  2099  1  0.64890500  0.24563300  0.73616600  1
  C  2100  1  0.58521800  0.23830900  0.72904100  1
  C  2104  1  0.81511500  0.24569500  0.72944600  1
  C  2105  1  0.83571600  0.24492800  0.72941500  1
  C  2106  1  0.87770100  0.23941000  0.74280000  1
  C  2110  1  0.89827400  0.23833400  0.74355700  1
  C  2112  1  0.96124200  0.23714600  0.73485500  1
  C  2114  1  0.97359700  0.24778900  0.72194400  1
  C  2120  1  0.08565620  0.23992100  0.74180300  1
  C  2121  1  0.06509720  0.24072900  0.74047500  1
  C  2125  1  0.23288900  0.31456700  0.74868700  1
  C  2126  1  0.23222500  0.33516000  0.74871400  1
  C  2128  1  0.18920400  0.24943500  0.73193000  1
  C  2130  1  0.21170800  0.27327300  0.73193100  1
  C  2131  1  0.19325700  0.28205000  0.73318500  1
  C  2132  1  0.17937800  0.26735000  0.73314500  1
  C  2133  1  0.22998500  0.28317400  0.73125600  1
  C  2134  1  0.22957100  0.30402700  0.73119700  1
  C  2135  1  0.22478400  0.33501000  0.71384800  1
  C  2136  1  0.22564100  0.31441900  0.71373600  1
  C  2142  1  0.23925400  0.39861400  0.74111400  1
  C  2143  1  0.24104400  0.37809800  0.74025700  1
  C  2148  1  0.22805900  0.34568700  0.73133000  1
  C  2149  1  0.22662600  0.36649000  0.73161500  1
  C  2150  1  0.20993300  0.37602900  0.72388500  1
  C  2151  1  0.20798400  0.39650700  0.72507800  1
  C  2152  1  0.22284900  0.40815200  0.73363700  1
  C  2155  1  0.22046100  0.42879200  0.73542900  1
  C  2157  1  0.23951100  0.56528500  0.74195200  1
  C  2160  1  0.24681400  0.47422400  0.72482700  1
  C  2162  1  0.23428400  0.46160200  0.73481900  1
  C  2163  1  0.23110300  0.55547900  0.72595400  1
  C  2164  1  0.22165300  0.56693500  0.71148100  1
  C  2166  1  0.23213100  0.53472800  0.72407400  1
  C  2168  1  0.23130500  0.50239600  0.73850100  1
  C  2170  1  0.21860800  0.48986700  0.74921800  1
  C  2176  1  0.24638300  0.64931800  0.73427500  1
  C  2177  1  0.24654300  0.62873300  0.73344700  1
  C  2178  1  0.23896200  0.58583900  0.74338900  1
  C  2182  1  0.22905400  0.65972800  0.73211600  1
  C  2183  1  0.21149500  0.64921800  0.72908500  1
  C  2184  1  0.21173100  0.62863300  0.72806300  1
  C  2185  1  0.22945100  0.61807500  0.73026200  1
  C  2186  1  0.22975200  0.59725100  0.72901000  1
  C  2187  1  0.22079300  0.58746100  0.71309000  1
  C  2193  1  0.22957600  0.68245500  0.69634300  1
  C  2194  1  0.22941300  0.69722700  0.68252700  1
  C  2195  1  0.22892200  0.71518000  0.69236500  1
  C  2197  1  0.22906700  0.69103700  0.71494100  1
  C  2198  1  0.22892200  0.68056600  0.73297600  1
  C  2199  1  0.22885300  0.68928800  0.75186300  1
  C  2201  1  0.22905300  0.71167800  0.77582000  1
  C  2202  1  0.22837300  0.69317100  0.78453800  1
  C  2203  1  0.22825700  0.67936500  0.76976400  1
  C  2204  1  0.22929000  0.72992800  0.78578400  1
  C  2205  1  0.22961300  0.74861200  0.77654700  1
  C  2207  1  0.22946600  0.77274200  0.75398300  1
  C  2208  1  0.22970200  0.78134900  0.77257100  1
  C  2209  1  0.22982800  0.76658200  0.78637900  1
  C  2210  1  0.22901200  0.78320700  0.73596100  1
  C  2211  1  0.22881100  0.77449900  0.71707800  1
  C  2213  1  0.22858400  0.75211900  0.69311800  1
  C  2214  1  0.22825400  0.77065100  0.68441800  1
  C  2215  1  0.22835700  0.78445300  0.69919500  1
  C  2216  1  0.22861000  0.73386800  0.68313700  1
  C  2219  1  0.24393900  0.83588600  0.73823700  1
  C  2220  1  0.24498800  0.81532600  0.73721700  1
  C  2221  1  0.23589800  0.87836100  0.72747400  1
  C  2225  1  0.23460600  0.89891300  0.72828000  1
  C  2226  1  0.22809900  0.80401100  0.73687400  1
  C  2227  1  0.20977000  0.81355900  0.73759300  1
  C  2228  1  0.20878100  0.83410400  0.73870000  1
  C  2229  1  0.22604000  0.84562000  0.73904600  1
  C  2230  1  0.22496200  0.86646300  0.74009200  1
  C  2231  1  0.21228800  0.87584700  0.75355500  1
  C  2232  1  0.21099400  0.89640000  0.75434500  1
  C  2239  1  0.23489300  0.96146700  0.73838800  1
  C  2241  1  0.25087400  0.97384600  0.74340800  1
  C  2247  1  0.22243200  0.90832500  0.74181500  1
  C  2249  1  0.22073300  0.92914200  0.74242400  1
  C  2252  1  0.21670300  0.98985500  0.72912600  1
  C  2253  1  0.23250700  0.00231822  0.73381800  1
  C  2255  1  0.23594400  0.11851500  0.73034300  1
  C  2256  1  0.23794700  0.09773220  0.73030600  1
  C  2257  1  0.24276300  0.05607720  0.73127800  1
  C  2258  1  0.25654800  0.06820420  0.72163800  1
  C  2259  1  0.25409300  0.08865420  0.72100000  1
  C  2263  1  0.24568600  0.03542320  0.73234200  1
  C  2265  1  0.22464100  0.08565220  0.74006500  1
  C  2266  1  0.22696800  0.06517720  0.74047600  1
  C  2272  1  0.31316400  0.23318600  0.71224600  1
  C  2273  1  0.33372000  0.23419500  0.71140600  1
  C  2276  1  0.28257700  0.23352100  0.73119400  1
  C  2277  1  0.27375200  0.21470900  0.73185800  1
  C  2279  1  0.25124700  0.19087900  0.73180800  1
  C  2280  1  0.26971000  0.18209500  0.73285200  1
  C  2281  1  0.28359300  0.19679200  0.73285200  1
  C  2282  1  0.23675100  0.15003000  0.71300800  1
  C  2283  1  0.23805800  0.12946400  0.71284400  1
  C  2284  1  0.30339600  0.23428800  0.73043900  1
  C  2288  1  0.39825100  0.22608400  0.73900200  1
  C  2289  1  0.37769000  0.22583800  0.74049400  1
  C  2292  1  0.46113500  0.23361600  0.73627400  1
  C  2293  1  0.55550500  0.22675200  0.74551800  1
  C  2295  1  0.53470600  0.22649100  0.74777800  1
  C  2297  1  0.50197500  0.22891200  0.73338800  1
  C  2299  1  0.48948900  0.22365400  0.71753800  1
  C  2305  1  0.56765600  0.21561000  0.75810900  1
  C  2306  1  0.65974100  0.22844000  0.73644600  1
  C  2307  1  0.64969300  0.21043600  0.73808300  1
  C  2308  1  0.62914400  0.21009000  0.73960900  1
  C  2309  1  0.61812200  0.22767500  0.73946500  1
  C  2310  1  0.59731100  0.22732500  0.74142600  1
  C  2311  1  0.58816200  0.21576900  0.75601000  1
  C  2317  1  0.69365600  0.22869400  0.68432700  1
  C  2318  1  0.67988000  0.22853700  0.69914100  1
  C  2319  1  0.68974900  0.22908400  0.71708100  1
  C  2321  1  0.71225600  0.22935800  0.69287800  1
  C  2322  1  0.73026500  0.22946000  0.68237500  1
  C  2323  1  0.74917200  0.22962100  0.69105300  1
  C  2325  1  0.77318600  0.22953200  0.71338200  1
  C  2326  1  0.78185800  0.22944500  0.69484000  1
  C  2327  1  0.76704900  0.22955100  0.68107000  1
  C  2328  1  0.78319700  0.22939000  0.73160900  1
  C  2329  1  0.77399800  0.22939600  0.75031900  1
  C  2331  1  0.75149700  0.22914400  0.77451300  1
  C  2332  1  0.77010300  0.22950400  0.78307100  1
  C  2333  1  0.78387100  0.22965600  0.76826600  1
  C  2334  1  0.73350600  0.22883600  0.78503600  1
  C  2335  1  0.71460500  0.22879500  0.77637300  1
  C  2337  1  0.69059800  0.22887300  0.75403700  1
  C  2338  1  0.68194200  0.22862300  0.77259600  1
  C  2339  1  0.69674800  0.22853500  0.78636900  1
  C  2340  1  0.68057800  0.22887800  0.73580400  1
  C  2343  1  0.80403100  0.22873000  0.73107400  1
  C  2344  1  0.84577300  0.22724600  0.73100100  1
  C  2345  1  0.83445600  0.20990800  0.73255400  1
  C  2346  1  0.81386800  0.21060700  0.73258700  1
  C  2347  1  0.86669100  0.22645800  0.73137400  1
  C  2348  1  0.87704900  0.21198400  0.72071400  1
  C  2349  1  0.89759800  0.21075900  0.72163600  1
  C  2355  1  0.90855200  0.22416700  0.73301900  1
  C  2357  1  0.92929400  0.22259800  0.73423000  1
  C  2360  1  0.98954600  0.22419400  0.75073500  1
  C  2361  1  0.00200322  0.23410100  0.73756700  1
  C  2364  1  0.11780000  0.22967300  0.72875400  1
  C  2365  1  0.09688120  0.22981500  0.72787900  1
  C  2366  1  0.05505820  0.23156000  0.72509000  1
  C  2367  1  0.06621420  0.22097000  0.71120900  1
  C  2368  1  0.08674220  0.21998400  0.71267800  1
  C  2371  1  0.03439120  0.23323600  0.72305700  1
  C  2375  1  0.14841700  0.22746600  0.74762600  1
  C  2376  1  0.12781800  0.22716400  0.74677300  1
  C  2378  1  0.18210500  0.19451000  0.72865400  1
  C  2379  1  0.19680900  0.18062900  0.72864100  1
  C  2380  1  0.21476100  0.19031800  0.73044400  1
  C  2382  1  0.19074600  0.21299000  0.73047400  1
  C  2383  1  0.18036100  0.23104300  0.73119400  1
  C  2384  1  0.23338100  0.18098700  0.73109900  1
  C  2385  1  0.23385200  0.16014400  0.73075000  1
  C  2386  1  0.23277300  0.12878500  0.74801600  1
  C  2387  1  0.23159200  0.14935600  0.74825300  1
  C  2388  1  0.15953400  0.23033100  0.73042200  1
  C  2389  1  0.14973300  0.23278100  0.71237800  1
  C  2390  1  0.12915300  0.23246300  0.71159000  1
  C  2395  1  0.73564400  0.24530600  0.83723600  1
  C  2396  1  0.73413900  0.24568500  0.81668100  1
  C  2397  1  0.72700400  0.23830800  0.88033900  1
  C  2401  1  0.72886100  0.23796300  0.90086600  1
  C  2402  1  0.24555500  0.72777400  0.81771000  1
  C  2403  1  0.24477800  0.72771300  0.83831300  1
  C  2404  1  0.23924400  0.74095700  0.88034900  1
  C  2408  1  0.23815700  0.74162000  0.90092800  1
  C  2409  1  0.22859900  0.72944500  0.80661900  1
  C  2410  1  0.22709100  0.72930300  0.84836000  1
  C  2411  1  0.20976000  0.73090100  0.83703600  1
  C  2412  1  0.21047100  0.73097800  0.81644600  1
  C  2413  1  0.22629100  0.72958900  0.86928000  1
  C  2414  1  0.21182200  0.71886900  0.87958300  1
  C  2420  1  0.21060000  0.71968200  0.90014000  1
  C  2421  1  0.73448900  0.22847800  0.80586400  1
  C  2422  1  0.73634000  0.21050200  0.81592200  1
  C  2423  1  0.73794600  0.21018800  0.83646800  1
  C  2424  1  0.73767300  0.22778100  0.84747700  1
  C  2425  1  0.73954900  0.22744400  0.86829800  1
  C  2426  1  0.75414100  0.21595800  0.87751900  1
  C  2432  1  0.75608800  0.21574600  0.89804300  1
  C  2435  1  0.74934500  0.23770100  0.99209500  1
  C  2438  1  0.23694200  0.73265700  0.96385600  1
  C  2440  1  0.24748600  0.71967600  0.97622200  1
  C  2446  1  0.22400500  0.73101000  0.91115100  1
  C  2448  1  0.22243500  0.73211100  0.93189800  1
  C  2451  1  0.22399100  0.74855800  0.99214500  1
  C  2452  1  0.23376500  0.73529900  0.00460926  1
  C  2454  1  0.73354400  0.23330800  0.00449226  1
  C  2455  1  0.74333800  0.22676500  0.91013900  1
  C  2457  1  0.74545000  0.22645300  0.93096000  1
  C  2459  1  0.73084600  0.22874400  0.96361200  1
  C  2461  1  0.71494400  0.22344100  0.97601200  1
  C  2467  1  0.72669600  0.23603300  0.12058700  1
  C  2468  1  0.72540300  0.23661200  0.09970430  1
  C  2469  1  0.72194000  0.23674800  0.05786530  1
  C  2470  1  0.70941000  0.24831700  0.06964530  1
  C  2471  1  0.71119500  0.24834600  0.09018130  1
  C  2474  1  0.71949700  0.23611400  0.03714930  1
  C  2479  1  0.23917000  0.73960600  0.08822030  1
  C  2480  1  0.24019700  0.73812800  0.06768330  1
  C  2484  1  0.22821900  0.72709800  0.12033300  1
  C  2485  1  0.22863200  0.72599800  0.09941830  1
  C  2486  1  0.23085100  0.72286800  0.05763430  1
  C  2487  1  0.21989700  0.70924600  0.06875130  1
  C  2488  1  0.21867400  0.71088800  0.08926230  1
  C  2491  1  0.23263600  0.72077700  0.03698130  1
  C  2495  1  0.73795300  0.22548600  0.08789730  1
  C  2496  1  0.73626100  0.22555500  0.06734830  1
  C  2499  1  0.73071300  0.27404700  0.21731500  1
  C  2501  1  0.73054400  0.25185300  0.19317700  1
  C  2502  1  0.73021800  0.27044800  0.18461900  1
  C  2503  1  0.73034500  0.28413500  0.19950400  1
  C  2504  1  0.70959000  0.23451800  0.13225500  1
  C  2507  1  0.72916300  0.23440700  0.16224600  1
  C  2508  1  0.74507000  0.23669900  0.13023100  1
  C  2509  1  0.74631900  0.23592100  0.15079900  1
  C  2511  1  0.73707400  0.39827000  0.22835200  1
  C  2512  1  0.73874600  0.37772300  0.22827700  1
  C  2515  1  0.74313300  0.55554900  0.22860400  1
  C  2517  1  0.74541800  0.53475000  0.22834800  1
  C  2519  1  0.73111400  0.50199000  0.23090000  1
  C  2521  1  0.71525500  0.48944200  0.22582700  1
  C  2527  1  0.75565900  0.56771300  0.21740000  1
  C  2528  1  0.73410100  0.65979800  0.23044100  1
  C  2529  1  0.73566400  0.64976900  0.21241600  1
  C  2530  1  0.73718100  0.62921900  0.21204000  1
  C  2531  1  0.73709500  0.61817300  0.22961600  1
  C  2532  1  0.73904300  0.59736100  0.22923200  1
  C  2533  1  0.75356300  0.58821800  0.21759200  1
  C  2539  1  0.31508700  0.74671300  0.22857100  1
  C  2540  1  0.33567200  0.74559500  0.22838700  1
  C  2543  1  0.24849600  0.73054700  0.19136700  1
  C  2545  1  0.27272300  0.73065900  0.21347100  1
  C  2546  1  0.28121400  0.73024600  0.19484900  1
  C  2547  1  0.26627900  0.73025300  0.18122000  1
  C  2548  1  0.28290700  0.73062900  0.23160300  1
  C  2549  1  0.30372600  0.72958900  0.23087300  1
  C  2550  1  0.33385000  0.71031400  0.23270800  1
  C  2551  1  0.31327800  0.71136000  0.23286400  1
  C  2554  1  0.34545100  0.72739800  0.23052600  1
  C  2555  1  0.36636500  0.72628200  0.23095400  1
  C  2556  1  0.37650200  0.71111100  0.22106900  1
  C  2557  1  0.39700700  0.70946000  0.22227700  1
  C  2558  1  0.40814800  0.72313700  0.23313800  1
  C  2563  1  0.55468800  0.73093300  0.22605800  1
  C  2564  1  0.56569100  0.71957500  0.21266800  1
  C  2566  1  0.53394400  0.73208500  0.22446400  1
  C  2569  1  0.47369400  0.74859700  0.22594800  1
  C  2571  1  0.65922500  0.72946300  0.23076600  1
  C  2572  1  0.64940400  0.73083900  0.21261800  1
  C  2573  1  0.62881800  0.73065400  0.21188400  1
  C  2574  1  0.61748000  0.72909200  0.22921300  1
  C  2575  1  0.59655700  0.72940200  0.22840100  1
  C  2576  1  0.58624200  0.71871000  0.21391500  1
  C  2582  1  0.68199900  0.69372200  0.23073700  1
  C  2583  1  0.69680800  0.67994500  0.23058100  1
  C  2584  1  0.71474700  0.68981000  0.23111500  1
  C  2586  1  0.69055000  0.71232200  0.23139800  1
  C  2587  1  0.68004700  0.73032900  0.23151200  1
  C  2588  1  0.68873100  0.74923300  0.23168100  1
  C  2590  1  0.71106400  0.77324300  0.23160000  1
  C  2591  1  0.69252800  0.78191900  0.23150200  1
  C  2592  1  0.67875600  0.76711500  0.23161500  1
  C  2593  1  0.72929000  0.78324800  0.23145900  1
  C  2594  1  0.74799500  0.77404700  0.23146400  1
  C  2596  1  0.77218200  0.75154600  0.23119100  1
  C  2597  1  0.78074000  0.77015100  0.23155000  1
  C  2598  1  0.76593800  0.78392100  0.23171400  1
  C  2599  1  0.78270300  0.73355300  0.23086300  1
  C  2600  1  0.77403400  0.71465600  0.23081700  1
  C  2602  1  0.75169500  0.69065400  0.23089100  1
  C  2603  1  0.77024800  0.68199300  0.23062300  1
  C  2604  1  0.78402200  0.69679500  0.23053900  1
  C  2605  1  0.73346200  0.68063500  0.23090200  1
  C  2608  1  0.80352900  0.73453500  0.23049800  1
  C  2609  1  0.81358100  0.73637800  0.21251400  1
  C  2610  1  0.83412200  0.73799900  0.21219400  1
  C  2611  1  0.84513700  0.73773600  0.22978700  1
  C  2612  1  0.86595500  0.73963300  0.22944400  1
  C  2613  1  0.87516000  0.75421400  0.21793400  1
  C  2614  1  0.89567600  0.75619200  0.21772400  1
  C  2620  1  0.90779000  0.74348800  0.22877900  1
  C  2622  1  0.92860300  0.74564600  0.22848300  1
  C  2624  1  0.96129400  0.73114100  0.23089200  1
  C  2626  1  0.97374500  0.71524000  0.22570700  1
  C  2632  1  0.08560320  0.73845700  0.22804300  1
  C  2633  1  0.06505820  0.73676200  0.22803800  1
  C  2637  1  0.22652900  0.74642100  0.15071000  1
  C  2638  1  0.22619800  0.74530200  0.13012400  1
  C  2640  1  0.19333700  0.73001000  0.18515700  1
  C  2641  1  0.17970200  0.73011800  0.20009500  1
  C  2642  1  0.18973600  0.73070300  0.21794400  1
  C  2644  1  0.21201800  0.73058600  0.19353300  1
  C  2645  1  0.22992500  0.73037600  0.18286300  1
  C  2646  1  0.22884900  0.72929200  0.16205900  1
  C  2647  1  0.23067000  0.71104700  0.15249500  1
  C  2648  1  0.23037900  0.71000000  0.13192100  1
  C  2653  1  0.72875700  0.80408400  0.23079100  1
  C  2654  1  0.72863800  0.84582600  0.22928100  1
  C  2655  1  0.73011500  0.83449900  0.21193900  1
  C  2656  1  0.73017400  0.81391200  0.21265200  1
  C  2657  1  0.72895600  0.86674500  0.22847700  1
  C  2658  1  0.71819000  0.87706400  0.21405100  1
  C  2659  1  0.71904600  0.89761500  0.21281100  1
  C  2665  1  0.73045900  0.90861100  0.22615900  1
  C  2667  1  0.73159500  0.92935400  0.22456900  1
  C  2670  1  0.74808500  0.98960500  0.22597600  1
  C  2673  1  0.72689900  0.11785000  0.23085100  1
  C  2674  1  0.72577600  0.09693520  0.23122800  1
  C  2675  1  0.72262300  0.05514620  0.23334700  1
  C  2676  1  0.70886000  0.06632120  0.22262900  1
  C  2677  1  0.71051500  0.08682820  0.22145200  1
  C  2682  1  0.71077600  0.23414500  0.15281000  1
  C  2685  1  0.74622500  0.14821000  0.22894000  1
  C  2686  1  0.74508600  0.12762800  0.22862800  1
  C  2688  1  0.72964200  0.18256000  0.19584600  1
  C  2689  1  0.72972200  0.19744800  0.18215600  1
  C  2690  1  0.73035000  0.21532700  0.19213300  1
  C  2692  1  0.73034400  0.19099400  0.21450000  1
  C  2693  1  0.73023500  0.18038000  0.23244700  1
  C  2694  1  0.73029100  0.23409900  0.18305900  1
  C  2695  1  0.72913300  0.15957400  0.23144900  1
  C  2696  1  0.71090700  0.15002400  0.23349400  1
  C  2697  1  0.70984200  0.12945400  0.23322000  1
  N  2  1  0.49672900  0.01791600  0.02234900  1
  N  28  1  0.50119400  0.20675200  0.00259900  1
  N  32  1  0.51318700  0.25883300  0.00304200  1
  N  43  1  0.02014900  0.49676200  0.02024000  1
  N  68  1  0.23544900  0.48740200  0.01263800  1
  N  70  1  0.26157200  0.47086300  0.02699000  1
  N  73  1  0.28748900  0.49773000  0.00549600  1
  N  90  1  0.73565300  0.51314100  0.00306400  1
  N  103  1  0.78767700  0.50091000  0.00236700  1
  N  110  1  0.97603700  0.49669900  0.02281900  1
  N  133  1  0.48696600  0.75892000  0.01276300  1
  N  135  1  0.47052300  0.73278700  0.02720400  1
  N  138  1  0.49734300  0.70689000  0.00560900  1
  N  152  1  0.49636200  0.97375700  0.02104200  1
  N  179  1  0.00081000  0.50144000  0.20916800  1
  N  195  1  0.50230200  0.99799200  0.20908600  1
  N  200  1  0.48751100  0.01091500  0.23772600  1
  N  202  1  0.47092000  0.02521600  0.26384700  1
  N  205  1  0.49779900  0.00375500  0.28977400  1
  N  209  1  0.00140200  0.51346900  0.26125000  1
  N  218  1  0.99210500  0.48360400  0.23783500  1
  N  220  1  0.98156900  0.46394400  0.26341500  1
  N  223  1  0.99396000  0.49594400  0.29008500  1
  N  229  1  0.51228200  0.99174400  0.26118100  1
  N  270  1  0.01818100  0.02004400  0.49698400  1
  N  291  1  0.20670800  0.00054100  0.50315900  1
  N  295  1  0.25875800  0.00123200  0.51532400  1
  N  313  1  0.75882400  0.01089300  0.48943500  1
  N  315  1  0.73267400  0.02517600  0.47288500  1
  N  318  1  0.70681100  0.00370600  0.49981800  1
  N  329  1  0.97405300  0.01929800  0.49671800  1
  N  346  1  0.00071700  0.20718600  0.49854900  1
  N  359  1  0.01026700  0.25939700  0.49241500  1
  N  369  1  0.98630500  0.23576100  0.51215900  1
  N  371  1  0.96965000  0.26162600  0.52674500  1
  N  374  1  0.99629600  0.28794200  0.50522400  1
  N  396  1  0.99427500  0.47617800  0.47719400  1
  N  400  1  0.99486800  0.47412200  0.52176000  1
  N  406  1  0.99514400  0.51869300  0.52269800  1
  N  412  1  0.99452400  0.52075400  0.47815400  1
  N  440  1  0.01404300  0.75902400  0.50638200  1
  N  442  1  0.03366500  0.73318400  0.51651800  1
  N  445  1  0.00130600  0.70693800  0.50455800  1
  N  451  1  0.98436800  0.73579900  0.49685200  1
  N  470  1  0.99654800  0.78785600  0.49750200  1
  N  478  1  0.01998900  0.97594800  0.49674000  1
  N  498  1  0.23542600  0.99183800  0.48542400  1
  N  500  1  0.26104900  0.98128500  0.46583300  1
  N  503  1  0.28762700  0.99379400  0.49784100  1
  N  520  1  0.47461000  0.99520800  0.47797400  1
  N  524  1  0.51917500  0.99521100  0.47582600  1
  N  530  1  0.52022200  0.99470600  0.52039400  1
  N  536  1  0.47569700  0.99453600  0.52257500  1
  N  559  1  0.73543500  0.99168300  0.51423300  1
  N  573  1  0.78750700  0.99800600  0.50417000  1
  N  581  1  0.97584400  0.97518900  0.49696300  1
  N  634  1  0.51278200  0.00105500  0.73796700  1
  N  639  1  0.01052400  0.48718600  0.76139400  1
  N  641  1  0.02481900  0.47063000  0.73524400  1
  N  644  1  0.00353700  0.49771300  0.70936700  1
  N  650  1  0.99152400  0.51213200  0.73797800  1
  N  660  1  0.48279400  0.99155400  0.76113900  1
  N  662  1  0.46333400  0.98108100  0.73537700  1
  N  665  1  0.49548400  0.99366100  0.70898200  1
  N  676  1  0.50043500  0.00013900  0.78996700  1
  N  693  1  0.99762300  0.50196100  0.79005100  1
  N  700  1  0.49641700  0.02033600  0.97823900  1
  N  720  1  0.48327500  0.23538900  0.99398000  1
  N  722  1  0.46351900  0.26093100  0.98355200  1
  N  725  1  0.49557800  0.28764000  0.99570100  1
  N  744  1  0.01868400  0.49640000  0.97609600  1
  N  761  1  0.20680500  0.50216900  0.99970700  1
  N  768  1  0.25889200  0.51213600  0.99340700  1
  N  785  1  0.47569700  0.47467200  0.99718400  1
  N  789  1  0.47355900  0.51923300  0.99722300  1
  N  795  1  0.51812300  0.52027100  0.99672000  1
  N  801  1  0.52029500  0.47575200  0.99651000  1
  N  825  1  0.75891200  0.48315400  0.99379300  1
  N  827  1  0.73323700  0.46356000  0.98339200  1
  N  830  1  0.70672600  0.49572400  0.99572200  1
  N  843  1  0.97455600  0.49668100  0.97865400  1
  N  869  1  0.51165100  0.73549800  0.99344800  1
  N  880  1  0.50164300  0.78757600  0.99974900  1
  N  891  1  0.49641700  0.97615600  0.97691400  1
  N  902  1  0.61395600  0.13514300  0.13960500  1
  N  928  1  0.61842100  0.32397900  0.11985500  1
  N  932  1  0.63041400  0.37606000  0.12029800  1
  N  943  1  0.13737600  0.61398900  0.13749600  1
  N  968  1  0.35267600  0.60462900  0.12989400  1
  N  970  1  0.37879900  0.58809000  0.14424600  1
  N  973  1  0.40471600  0.61495700  0.12275200  1
  N  990  1  0.85288000  0.63036800  0.12032000  1
  N  1003  1  0.90490400  0.61813700  0.11962300  1
  N  1010  1  0.09326410  0.61392600  0.14007500  1
  N  1033  1  0.60419300  0.87614700  0.13001900  1
  N  1035  1  0.58775000  0.85001400  0.14446000  1
  N  1038  1  0.61457000  0.82411700  0.12286500  1
  N  1052  1  0.61358900  0.09098410  0.13829800  1
  N  1079  1  0.11803700  0.61866700  0.32642400  1
  N  1095  1  0.61952900  0.11521900  0.32634200  1
  N  1100  1  0.60473800  0.12814200  0.35498200  1
  N  1102  1  0.58814700  0.14244300  0.38110300  1
  N  1105  1  0.61502600  0.12098200  0.40703000  1
  N  1109  1  0.11862900  0.63069600  0.37850600  1
  N  1118  1  0.10933200  0.60083100  0.35509100  1
  N  1120  1  0.09879610  0.58117100  0.38067100  1
  N  1123  1  0.11118700  0.61317100  0.40734100  1
  N  1129  1  0.62950900  0.10897100  0.37843700  1
  N  1170  1  0.13540800  0.13727100  0.61424000  1
  N  1191  1  0.32393500  0.11776800  0.62041500  1
  N  1195  1  0.37598500  0.11845900  0.63258000  1
  N  1213  1  0.87605100  0.12812000  0.60669100  1
  N  1215  1  0.84990100  0.14240300  0.59014100  1
  N  1218  1  0.82403800  0.12093300  0.61707400  1
  N  1229  1  0.09128010  0.13652500  0.61397400  1
  N  1246  1  0.11794400  0.32441300  0.61580500  1
  N  1259  1  0.12749400  0.37662400  0.60967100  1
  N  1269  1  0.10353200  0.35298800  0.62941500  1
  N  1271  1  0.08687710  0.37885300  0.64400100  1
  N  1274  1  0.11352300  0.40516900  0.62248000  1
  N  1296  1  0.11150200  0.59340500  0.59445000  1
  N  1300  1  0.11209500  0.59134900  0.63901600  1
  N  1306  1  0.11237100  0.63592000  0.63995400  1
  N  1312  1  0.11175100  0.63798100  0.59541000  1
  N  1340  1  0.13127000  0.87625100  0.62363800  1
  N  1342  1  0.15089200  0.85041100  0.63377400  1
  N  1345  1  0.11853300  0.82416500  0.62181400  1
  N  1351  1  0.10159500  0.85302600  0.61410800  1
  N  1370  1  0.11377500  0.90508300  0.61475800  1
  N  1378  1  0.13721600  0.09317510  0.61399600  1
  N  1398  1  0.35265300  0.10906500  0.60268000  1
  N  1400  1  0.37827600  0.09851210  0.58308900  1
  N  1403  1  0.40485400  0.11102100  0.61509700  1
  N  1420  1  0.59183700  0.11243500  0.59523000  1
  N  1424  1  0.63640200  0.11243800  0.59308200  1
  N  1430  1  0.63744900  0.11193300  0.63765000  1
  N  1436  1  0.59292400  0.11176300  0.63983100  1
  N  1459  1  0.85266200  0.10891000  0.63148900  1
  N  1473  1  0.90473400  0.11523300  0.62142600  1
  N  1481  1  0.09307110  0.09241610  0.61421900  1
  N  1534  1  0.63000900  0.11828200  0.85522300  1
  N  1539  1  0.12775100  0.60441300  0.87865000  1
  N  1541  1  0.14204600  0.58785700  0.85250000  1
  N  1544  1  0.12076400  0.61494000  0.82662300  1
  N  1550  1  0.10875100  0.62935900  0.85523400  1
  N  1560  1  0.60002100  0.10878100  0.87839500  1
  N  1562  1  0.58056100  0.09830810  0.85263300  1
  N  1565  1  0.61271100  0.11088800  0.82623800  1
  N  1576  1  0.61766200  0.11736600  0.90722300  1
  N  1593  1  0.11485000  0.61918800  0.90730700  1
  N  1600  1  0.61364400  0.13756300  0.09549460  1
  N  1620  1  0.60050200  0.35261600  0.11123600  1
  N  1622  1  0.58074600  0.37815800  0.10080800  1
  N  1625  1  0.61280500  0.40486700  0.11295700  1
  N  1644  1  0.13591100  0.61362700  0.09335160  1
  N  1661  1  0.32403200  0.61939600  0.11696300  1
  N  1668  1  0.37611900  0.62936300  0.11066300  1
  N  1685  1  0.59292400  0.59189900  0.11444000  1
  N  1689  1  0.59078600  0.63646000  0.11447900  1
  N  1695  1  0.63535000  0.63749800  0.11397600  1
  N  1701  1  0.63752200  0.59297900  0.11376600  1
  N  1725  1  0.87613900  0.60038100  0.11104900  1
  N  1727  1  0.85046400  0.58078700  0.10064800  1
  N  1730  1  0.82395300  0.61295100  0.11297800  1
  N  1743  1  0.09178310  0.61390800  0.09590960  1
  N  1769  1  0.62887800  0.85272500  0.11070400  1
  N  1780  1  0.61887000  0.90480300  0.11700500  1
  N  1791  1  0.61364400  0.09338310  0.09416960  1
  N  1802  1  0.73118300  0.25237000  0.25686000  1
  N  1828  1  0.73564800  0.44120600  0.23711000  1
  N  1832  1  0.74764100  0.49328700  0.23755300  1
  N  1843  1  0.25460300  0.73121600  0.25475100  1
  N  1868  1  0.46990300  0.72185600  0.24714900  1
  N  1870  1  0.49602600  0.70531700  0.26150100  1
  N  1873  1  0.52194300  0.73218400  0.24000700  1
  N  1890  1  0.97010700  0.74759500  0.23757500  1
  N  1903  1  0.02213120  0.73536400  0.23687800  1
  N  1910  1  0.21049100  0.73115300  0.25733000  1
  N  1933  1  0.72142000  0.99337400  0.24727400  1
  N  1935  1  0.70497700  0.96724100  0.26171500  1
  N  1938  1  0.73179700  0.94134400  0.24012000  1
  N  1952  1  0.73081600  0.20821100  0.25555300  1
  N  1979  1  0.23526400  0.73589400  0.44367900  1
  N  1995  1  0.73675600  0.23244600  0.44359700  1
  N  2000  1  0.72196500  0.24536900  0.47223700  1
  N  2002  1  0.70537400  0.25967000  0.49835800  1
  N  2005  1  0.73225300  0.23820900  0.52428500  1
  N  2009  1  0.23585600  0.74792300  0.49576100  1
  N  2018  1  0.22655900  0.71805800  0.47234600  1
  N  2020  1  0.21602300  0.69839800  0.49792600  1
  N  2023  1  0.22841400  0.73039800  0.52459600  1
  N  2029  1  0.74673600  0.22619800  0.49569200  1
  N  2070  1  0.25263500  0.25449800  0.73149500  1
  N  2091  1  0.44116200  0.23499500  0.73767000  1
  N  2095  1  0.49321200  0.23568600  0.74983500  1
  N  2113  1  0.99327800  0.24534700  0.72394600  1
  N  2115  1  0.96712800  0.25963000  0.70739600  1
  N  2118  1  0.94126500  0.23816000  0.73432900  1
  N  2129  1  0.20850700  0.25375200  0.73122900  1
  N  2146  1  0.23517100  0.44164000  0.73306000  1
  N  2159  1  0.24472100  0.49385100  0.72692600  1
  N  2169  1  0.22075900  0.47021500  0.74667000  1
  N  2171  1  0.20410400  0.49608000  0.76125600  1
  N  2174  1  0.23075000  0.52239600  0.73973500  1
  N  2196  1  0.22872900  0.71063200  0.71170500  1
  N  2200  1  0.22932200  0.70857600  0.75627100  1
  N  2206  1  0.22959800  0.75314700  0.75720900  1
  N  2212  1  0.22897800  0.75520800  0.71266500  1
  N  2240  1  0.24849700  0.99347800  0.74089300  1
  N  2242  1  0.26811900  0.96763800  0.75102900  1
  N  2245  1  0.23576000  0.94139200  0.73906900  1
  N  2251  1  0.21882200  0.97025300  0.73136300  1
  N  2270  1  0.23100200  0.02231020  0.73201300  1
  N  2278  1  0.25444300  0.21040200  0.73125100  1
  N  2298  1  0.46988000  0.22629200  0.71993500  1
  N  2300  1  0.49550300  0.21573900  0.70034400  1
  N  2303  1  0.52208100  0.22824800  0.73235200  1
  N  2320  1  0.70906400  0.22966200  0.71248500  1
  N  2324  1  0.75362900  0.22966500  0.71033700  1
  N  2330  1  0.75467600  0.22916000  0.75490500  1
  N  2336  1  0.71015100  0.22899000  0.75708600  1
  N  2359  1  0.96988900  0.22613700  0.74874400  1
  N  2373  1  0.02196120  0.23246000  0.73868100  1
  N  2381  1  0.21029800  0.20964300  0.73147400  1
  N  2434  1  0.74723600  0.23550900  0.97247800  1
  N  2439  1  0.24497800  0.72164000  0.99590500  1
  N  2441  1  0.25927300  0.70508400  0.96975500  1
  N  2444  1  0.23799100  0.73216700  0.94387800  1
  N  2450  1  0.22597800  0.74658600  0.97248900  1
  N  2460  1  0.71724800  0.22600800  0.99565000  1
  N  2462  1  0.69778800  0.21553500  0.96988800  1
  N  2465  1  0.72993800  0.22811500  0.94349300  1
  N  2476  1  0.73488900  0.23459300  0.02447830  1
  N  2493  1  0.23207700  0.73641500  0.02456230  1
  N  2500  1  0.73087100  0.25479000  0.21275000  1
  N  2520  1  0.71772900  0.46984300  0.22849100  1
  N  2522  1  0.69797300  0.49538500  0.21806300  1
  N  2525  1  0.73003200  0.52209400  0.23021200  1
  N  2544  1  0.25313800  0.73085400  0.21060700  1
  N  2561  1  0.44125900  0.73662300  0.23421800  1
  N  2568  1  0.49334600  0.74659000  0.22791800  1
  N  2585  1  0.71015100  0.70912600  0.23169500  1
  N  2589  1  0.70801300  0.75368700  0.23173400  1
  N  2595  1  0.75257700  0.75472500  0.23123100  1
  N  2601  1  0.75474900  0.71020600  0.23102100  1
  N  2625  1  0.99336600  0.71760800  0.22830400  1
  N  2627  1  0.96769100  0.69801400  0.21790300  1
  N  2630  1  0.94118000  0.73017800  0.23023300  1
  N  2643  1  0.20901000  0.73113500  0.21316500  1
  N  2669  1  0.74610500  0.96995200  0.22795900  1
  N  2680  1  0.73609700  0.02203020  0.23426000  1
  N  2691  1  0.73087100  0.21061000  0.21142500  1
  O  27  1  0.46742100  0.20096400  0.00668500  1
  O  64  1  0.20156900  0.46809100  0.00080500  1
  O  102  1  0.79338100  0.46707800  0.00609500  1
  O  147  1  0.46758200  0.79282000  0.00112800  1
  O  178  1  0.00466200  0.46763700  0.20339600  1
  O  194  1  0.46821800  0.99944500  0.20386400  1
  O  216  1  0.98838400  0.52948300  0.29553300  1
  O  228  1  0.49691300  0.96999600  0.29381000  1
  O  290  1  0.20108100  0.00425800  0.46931400  1
  O  356  1  0.96756200  0.20112400  0.50376800  1
  O  367  1  0.99832200  0.29273100  0.47119300  1
  O  450  1  0.96883200  0.70230600  0.51357800  1
  O  464  1  0.03000800  0.79452700  0.49835500  1
  O  496  1  0.29306000  0.98830700  0.53140400  1
  O  558  1  0.70276000  0.96994400  0.49892300  1
  O  572  1  0.79265300  0.99965300  0.47008500  1
  O  649  1  0.96977300  0.49688500  0.70529700  1
  O  658  1  0.52909300  0.98831000  0.70375200  1
  O  675  1  0.46657300  0.00368400  0.79562300  1
  O  692  1  0.99889200  0.46785200  0.79520400  1
  O  718  1  0.52907400  0.29313400  0.98993900  1
  O  767  1  0.29159500  0.49682500  0.97173700  1
  O  823  1  0.70141100  0.52929200  0.99022500  1
  O  868  1  0.49625800  0.70280000  0.97184800  1
  O  927  1  0.58464800  0.31819100  0.12394100  1
  O  964  1  0.31879600  0.58531800  0.11806100  1
  O  1002  1  0.91060800  0.58430500  0.12335100  1
  O  1047  1  0.58480900  0.91004700  0.11838400  1
  O  1078  1  0.12188900  0.58486400  0.32065200  1
  O  1094  1  0.58544500  0.11667200  0.32112000  1
  O  1116  1  0.10561100  0.64671000  0.41278900  1
  O  1128  1  0.61414000  0.08722310  0.41106600  1
  O  1190  1  0.31830800  0.12148500  0.58657000  1
  O  1256  1  0.08478910  0.31835100  0.62102400  1
  O  1267  1  0.11554900  0.40995800  0.58844900  1
  O  1350  1  0.08605910  0.81953300  0.63083400  1
  O  1364  1  0.14723500  0.91175400  0.61561100  1
  O  1396  1  0.41028700  0.10553400  0.64866000  1
  O  1458  1  0.81998700  0.08717110  0.61617900  1
  O  1472  1  0.90988000  0.11688000  0.58734100  1
  O  1549  1  0.08700010  0.61411200  0.82255300  1
  O  1558  1  0.64632000  0.10553700  0.82100800  1
  O  1575  1  0.58380000  0.12091100  0.91287900  1
  O  1592  1  0.11611900  0.58507900  0.91246000  1
  O  1618  1  0.64630100  0.41036100  0.10719500  1
  O  1667  1  0.40882200  0.61405200  0.08899260  1
  O  1723  1  0.81863800  0.64651900  0.10748100  1
  O  1768  1  0.61348500  0.82002700  0.08910360  1
  O  1827  1  0.70187500  0.43541800  0.24119600  1
  O  1864  1  0.43602300  0.70254500  0.23531600  1
  O  1902  1  0.02783520  0.70153200  0.24060600  1
  O  1947  1  0.70203600  0.02727420  0.23563900  1
  O  1978  1  0.23911600  0.70209100  0.43790700  1
  O  1994  1  0.70267200  0.23389900  0.43837500  1
  O  2016  1  0.22283800  0.76393700  0.53004400  1
  O  2028  1  0.73136700  0.20445000  0.52832100  1
  O  2090  1  0.43553500  0.23871200  0.70382500  1
  O  2156  1  0.20201600  0.43557800  0.73827900  1
  O  2167  1  0.23277600  0.52718500  0.70570400  1
  O  2250  1  0.20328600  0.93676000  0.74808900  1
  O  2264  1  0.26446200  0.02898120  0.73286600  1
  O  2296  1  0.52751400  0.22276100  0.76591500  1
  O  2358  1  0.93721400  0.20439800  0.73343400  1
  O  2372  1  0.02710720  0.23410700  0.70459600  1
  O  2449  1  0.20422700  0.73133900  0.93980800  1
  O  2458  1  0.76354700  0.22276400  0.93826300  1
  O  2475  1  0.70102700  0.23813800  0.03013430  1
  O  2492  1  0.23334600  0.70230600  0.02971530  1
  O  2518  1  0.76352800  0.52758800  0.22445000  1
  O  2567  1  0.52604900  0.73127900  0.20624800  1
  O  2623  1  0.93586500  0.76374600  0.22473600  1
  O  2668  1  0.73071200  0.93725400  0.20635900  1
