# generated using pymatgen
data_H21C36(N3O2)2
_symmetry_space_group_name_H-M   'P 1'
_cell_length_a   59.55840000
_cell_length_b   59.55840000
_cell_length_c   59.56730000
_cell_angle_alpha   90.00000000
_cell_angle_beta   90.00000000
_cell_angle_gamma   90.00000000
_symmetry_Int_Tables_number   1
_chemical_formula_structural   H21C36(N3O2)2
_chemical_formula_sum   'H504 C864 N144 O96'
_cell_volume   211297.30589093
_cell_formula_units_Z   24
loop_
 _symmetry_equiv_pos_site_id
 _symmetry_equiv_pos_as_xyz
  1  'x, y, z'
loop_
 _atom_site_type_symbol
 _atom_site_label
 _atom_site_symmetry_multiplicity
 _atom_site_fract_x
 _atom_site_fract_y
 _atom_site_fract_z
 _atom_site_occupancy
  H  1  1  0.47280300  0.09140500  0.00309900  1
  H  13  1  0.50647300  0.07872900  0.04295300  1
  H  14  1  0.50617200  0.05008400  0.07432800  1
  H  15  1  0.50425800  0.01628700  0.01470700  1
  H  16  1  0.54225800  0.01191400  0.08464200  1
  H  17  1  0.54558700  0.01479100  0.12453100  1
  H  20  1  0.48914200  0.19451200  0.03411000  1
  H  28  1  0.47452100  0.34234500  0.01575100  1
  H  33  1  0.53155900  0.30615500  0.02250900  1
  H  34  1  0.52989000  0.26590700  0.02205500  1
  H  36  1  0.00320800  0.47287000  0.09098000  1
  H  39  1  0.13129000  0.47600200  0.00191300  1
  H  43  1  0.30833800  0.47510700  0.02310900  1
  H  46  1  0.34207800  0.49786400  0.03035800  1
  H  47  1  0.48461300  0.37634800  0.04312500  1
  H  57  1  0.48703000  0.48756900  0.00577600  1
  H  58  1  0.48916000  0.41631700  0.04189600  1
  H  59  1  0.45357500  0.42770500  0.00581500  1
  H  60  1  0.42476300  0.45883400  0.00575800  1
  H  69  1  0.58596300  0.48910300  0.04240400  1
  H  70  1  0.57523200  0.45245000  0.00706700  1
  H  71  1  0.54397500  0.42350500  0.00735700  1
  H  74  1  0.62597900  0.48508900  0.04379100  1
  H  76  1  0.66014900  0.47506300  0.01703300  1
  H  81  1  0.80776700  0.48909300  0.03389100  1
  H  87  1  0.91078200  0.47267600  0.00338000  1
  H  97  1  0.04313400  0.50649100  0.07829400  1
  H  98  1  0.07449600  0.50619700  0.04963300  1
  H  99  1  0.01484700  0.50439400  0.01587000  1
  H  100  1  0.08482200  0.54233200  0.01148600  1
  H  101  1  0.12471800  0.54559900  0.01443200  1
  H  104  1  0.16071800  0.52565500  0.02080000  1
  H  107  1  0.19702200  0.51308100  0.03361900  1
  H  108  1  0.23705000  0.51234800  0.03213100  1
  H  111  1  0.37816800  0.50780700  0.04648900  1
  H  121  1  0.45870600  0.57820600  0.00658800  1
  H  122  1  0.42745300  0.54919700  0.00639600  1
  H  123  1  0.41805700  0.50888500  0.04269600  1
  H  133  1  0.57798200  0.54295800  0.00809100  1
  H  134  1  0.54907500  0.57412200  0.00735500  1
  H  135  1  0.51581300  0.51421600  0.00476700  1
  H  136  1  0.50918900  0.58425800  0.04278200  1
  H  137  1  0.50827300  0.62415900  0.04652600  1
  H  141  1  0.69613400  0.53150000  0.02244700  1
  H  142  1  0.73638300  0.52977900  0.02195800  1
  H  153  1  0.99038800  0.54249800  0.08458600  1
  H  154  1  0.95154000  0.50623800  0.07492000  1
  H  155  1  0.92277300  0.50637000  0.04345000  1
  H  156  1  0.98719600  0.54572500  0.12445800  1
  H  159  1  0.47520600  0.69382500  0.02303800  1
  H  162  1  0.49848700  0.66027300  0.03038600  1
  H  166  1  0.47577500  0.87099700  0.00220500  1
  H  169  1  0.52561900  0.84146500  0.02045100  1
  H  172  1  0.51276600  0.80527300  0.03356400  1
  H  173  1  0.51211400  0.76524200  0.03206800  1
  H  174  1  0.47276800  0.99835500  0.09116500  1
  H  177  1  0.54549800  0.87747300  0.01407100  1
  H  187  1  0.50640700  0.95853600  0.07912800  1
  H  188  1  0.50611500  0.92706800  0.05036500  1
  H  189  1  0.54220600  0.91738900  0.01145200  1
  H  190  1  0.47599800  0.00227200  0.13119000  1
  H  193  1  0.52572300  0.02107500  0.16057600  1
  H  196  1  0.51320900  0.03389300  0.19690200  1
  H  197  1  0.51249900  0.03237800  0.23692200  1
  H  201  1  0.03425800  0.48911000  0.19408100  1
  H  205  1  0.99896600  0.47599800  0.13099100  1
  H  210  1  0.98017200  0.52576500  0.16032000  1
  H  213  1  0.96615300  0.51186600  0.19623500  1
  H  214  1  0.96713800  0.51154800  0.23636300  1
  H  218  1  0.48796000  0.96674000  0.19360300  1
  H  227  1  0.47524100  0.02341100  0.30819400  1
  H  230  1  0.49800200  0.03059300  0.34194800  1
  H  235  1  0.01628100  0.47437800  0.34177800  1
  H  240  1  0.98133100  0.47338400  0.30881400  1
  H  246  1  0.02279100  0.53137400  0.30577700  1
  H  247  1  0.02229300  0.52979400  0.26553200  1
  H  249  1  0.97365400  0.50159000  0.37192200  1
  H  250  1  0.49727300  0.97555500  0.37172200  1
  H  255  1  0.52630900  0.97337900  0.30666000  1
  H  256  1  0.52510600  0.97325800  0.26645300  1
  H  258  1  0.09146000  0.00396700  0.47271100  1
  H  265  1  0.19481400  0.03478900  0.48880200  1
  H  271  1  0.34238200  0.01605600  0.47447500  1
  H  273  1  0.37642900  0.04333600  0.48448100  1
  H  283  1  0.48763100  0.00602300  0.48688500  1
  H  284  1  0.41640100  0.04209000  0.48900200  1
  H  285  1  0.42777000  0.00591300  0.45343500  1
  H  286  1  0.45889900  0.00584500  0.42462600  1
  H  287  1  0.50785100  0.04670700  0.37805500  1
  H  297  1  0.57826300  0.00693000  0.45859200  1
  H  298  1  0.54926600  0.00669400  0.42733200  1
  H  299  1  0.50892100  0.04289300  0.41793400  1
  H  302  1  0.69391600  0.02322500  0.47517500  1
  H  306  1  0.66031300  0.03061000  0.49831400  1
  H  307  1  0.87104400  0.00191200  0.47581500  1
  H  308  1  0.99804900  0.09164700  0.47298100  1
  H  311  1  0.00208000  0.13165700  0.47620600  1
  H  316  1  0.96697500  0.19523400  0.48949200  1
  H  317  1  0.96666100  0.23547600  0.48836400  1
  H  321  1  0.02054800  0.30670600  0.46762900  1
  H  322  1  0.02038600  0.26642900  0.46895200  1
  H  324  1  0.97274400  0.37262600  0.49930100  1
  H  326  1  0.04358600  0.48431000  0.37580700  1
  H  336  1  0.00682100  0.48648200  0.48711100  1
  H  337  1  0.04240300  0.48870400  0.41578700  1
  H  338  1  0.00650100  0.45304900  0.42725800  1
  H  339  1  0.00671000  0.42421600  0.45838700  1
  H  341  1  0.97171200  0.41278300  0.49617000  1
  H  352  1  0.04357200  0.58385200  0.49258200  1
  H  353  1  0.00765100  0.57476500  0.45211900  1
  H  354  1  0.00830700  0.54350200  0.42310000  1
  H  355  1  0.04766700  0.62373100  0.49339200  1
  H  357  1  0.97244600  0.50556800  0.41199300  1
  H  364  1  0.97549000  0.69507100  0.47220400  1
  H  365  1  0.97487800  0.73529200  0.47315700  1
  H  370  1  0.03262900  0.80699100  0.48808000  1
  H  371  1  0.03246100  0.76678900  0.48728100  1
  H  372  1  0.99919100  0.87100400  0.47623400  1
  H  375  1  0.00387000  0.91095300  0.47292900  1
  H  376  1  0.13148000  0.99977000  0.47584300  1
  H  380  1  0.30933300  0.98127000  0.47345600  1
  H  384  1  0.49862000  0.97185800  0.41173100  1
  H  388  1  0.59041500  0.97202600  0.49857400  1
  H  389  1  0.63043000  0.97564100  0.49739700  1
  H  395  1  0.80841000  0.96614900  0.48759600  1
  H  400  1  0.91110600  0.99843300  0.47261700  1
  H  410  1  0.07848200  0.04399400  0.50638900  1
  H  411  1  0.04959600  0.07515800  0.50625300  1
  H  412  1  0.01624600  0.01527700  0.50438700  1
  H  413  1  0.01122800  0.08511200  0.54252600  1
  H  414  1  0.01420300  0.12500400  0.54585500  1
  H  420  1  0.30629600  0.02278200  0.53140400  1
  H  421  1  0.26604800  0.02246300  0.52970000  1
  H  431  1  0.48915900  0.04260400  0.58584200  1
  H  432  1  0.45248900  0.00733700  0.57507700  1
  H  433  1  0.42355700  0.00762300  0.54381000  1
  H  444  1  0.54300000  0.00824000  0.57784400  1
  H  445  1  0.57416400  0.00753000  0.54894200  1
  H  446  1  0.51426300  0.00504500  0.51567700  1
  H  447  1  0.58430500  0.04303700  0.50907800  1
  H  448  1  0.62420900  0.04677200  0.50817100  1
  H  453  1  0.84145800  0.01985600  0.52579200  1
  H  456  1  0.80542000  0.03337100  0.51269700  1
  H  457  1  0.76538000  0.03201700  0.51206300  1
  H  458  1  0.87747300  0.01362100  0.54555900  1
  H  468  1  0.95802300  0.07928500  0.50654300  1
  H  469  1  0.92676100  0.05028600  0.50614200  1
  H  470  1  0.91739500  0.01120000  0.54225700  1
  H  473  1  0.02083900  0.16098300  0.52600500  1
  H  476  1  0.03545500  0.19623400  0.51117500  1
  H  483  1  0.01592000  0.34164300  0.52511500  1
  H  487  1  0.98047100  0.30905500  0.52657900  1
  H  490  1  0.04290900  0.37578600  0.51579600  1
  H  500  1  0.00610600  0.45821900  0.57776200  1
  H  501  1  0.00631000  0.42698100  0.54882800  1
  H  502  1  0.04189100  0.41586100  0.51225100  1
  H  505  1  0.97170800  0.49818300  0.59000000  1
  H  515  1  0.00747500  0.57742500  0.54250400  1
  H  516  1  0.00698200  0.54853700  0.57365200  1
  H  517  1  0.00425700  0.51525100  0.51375500  1
  H  518  1  0.04269200  0.50876600  0.58373000  1
  H  519  1  0.04650900  0.50796900  0.62361700  1
  H  522  1  0.97254500  0.59062700  0.50259100  1
  H  523  1  0.03157400  0.65996200  0.50373400  1
  H  526  1  0.02396400  0.69440800  0.52473100  1
  H  530  1  0.97652700  0.63063500  0.50364900  1
  H  536  1  0.98077500  0.84202600  0.52653900  1
  H  539  1  0.96504800  0.80693400  0.51236700  1
  H  551  1  0.08508800  0.99140800  0.54237300  1
  H  552  1  0.07574400  0.95238300  0.50610300  1
  H  553  1  0.04446800  0.92339300  0.50639200  1
  H  554  1  0.12496400  0.98826500  0.54561000  1
  H  557  1  0.16080300  0.98117500  0.52572000  1
  H  560  1  0.19653300  0.96670800  0.51166700  1
  H  561  1  0.23667200  0.96745900  0.51143200  1
  H  562  1  0.37237900  0.97342100  0.50180000  1
  H  564  1  0.41244400  0.97215000  0.50589800  1
  H  568  1  0.50501200  0.97241400  0.58970400  1
  H  572  1  0.69553600  0.97330700  0.52634100  1
  H  573  1  0.73574000  0.97303500  0.52493600  1
  H  577  1  0.98796100  0.87794200  0.54601100  1
  H  587  1  0.98628100  0.98742600  0.50415900  1
  H  588  1  0.99156800  0.91776500  0.54259100  1
  H  589  1  0.95292700  0.92754700  0.50624300  1
  H  590  1  0.92404900  0.95869300  0.50636800  1
  H  592  1  0.48513100  0.04397600  0.62585000  1
  H  594  1  0.47510800  0.01722900  0.66001000  1
  H  599  1  0.53154000  0.02255800  0.69599900  1
  H  600  1  0.52980400  0.02208200  0.73624300  1
  H  604  1  0.02320800  0.47516400  0.69346100  1
  H  607  1  0.03044700  0.49818500  0.65977000  1
  H  609  1  0.97540700  0.49710700  0.63001000  1
  H  616  1  0.97324800  0.52629400  0.69508800  1
  H  617  1  0.97313200  0.52502800  0.73529400  1
  H  621  1  0.47347800  0.98122300  0.69275300  1
  H  625  1  0.50138400  0.97379900  0.62979900  1
  H  630  1  0.48914000  0.03414200  0.80758600  1
  H  634  1  0.00222700  0.47592600  0.87058200  1
  H  639  1  0.96646000  0.48786200  0.80805700  1
  H  644  1  0.02059600  0.52572800  0.84105000  1
  H  647  1  0.03370200  0.51288700  0.80486100  1
  H  648  1  0.03223600  0.51221000  0.76483400  1
  H  651  1  0.47564900  0.99908500  0.87066100  1
  H  655  1  0.52513000  0.97951400  0.84146800  1
  H  658  1  0.51145900  0.96588700  0.80543500  1
  H  659  1  0.51122100  0.96689800  0.76531400  1
  H  662  1  0.47257600  0.00375400  0.91064400  1
  H  672  1  0.54240400  0.08497600  0.99013600  1
  H  673  1  0.50610200  0.07531800  0.95137800  1
  H  674  1  0.50623900  0.04383600  0.92262000  1
  H  675  1  0.54564400  0.12485200  0.98694100  1
  H  676  1  0.47594500  0.13142000  0.99885700  1
  H  680  1  0.52567200  0.16072500  0.97994900  1
  H  683  1  0.51177800  0.19664100  0.96597100  1
  H  684  1  0.51149800  0.23677300  0.96695300  1
  H  688  1  0.47349700  0.30927800  0.98116600  1
  H  691  1  0.50192200  0.37231700  0.97321900  1
  H  692  1  0.09125900  0.47283200  0.99792700  1
  H  698  1  0.19375400  0.48796500  0.96642100  1
  H  702  1  0.37187700  0.49715400  0.97535600  1
  H  705  1  0.41189300  0.49851100  0.97167700  1
  H  708  1  0.50604300  0.41237800  0.97196100  1
  H  712  1  0.69289600  0.47349500  0.98103300  1
  H  716  1  0.87079100  0.47577200  0.99880100  1
  H  719  1  0.99856600  0.47274400  0.91062900  1
  H  720  1  0.01425400  0.54562100  0.87704800  1
  H  730  1  0.07925600  0.50653500  0.95810300  1
  H  731  1  0.05048400  0.50626900  0.92664300  1
  H  732  1  0.01163500  0.54234000  0.91695600  1
  H  738  1  0.30680800  0.52628800  0.97320200  1
  H  739  1  0.26659700  0.52507800  0.97306400  1
  H  743  1  0.49872100  0.59038500  0.97177800  1
  H  746  1  0.58985000  0.50497800  0.97223000  1
  H  747  1  0.62995100  0.50136200  0.97363000  1
  H  751  1  0.84155900  0.52532600  0.97940800  1
  H  754  1  0.80554500  0.51161500  0.96571600  1
  H  755  1  0.76542000  0.51134500  0.96675500  1
  H  757  1  0.87740400  0.54540100  0.98649900  1
  H  767  1  0.98720600  0.50434200  0.98571400  1
  H  768  1  0.91725900  0.54221100  0.99003800  1
  H  769  1  0.92755300  0.50593400  0.95194000  1
  H  770  1  0.95890300  0.50624600  0.92328800  1
  H  771  1  0.49753500  0.63039600  0.97540100  1
  H  776  1  0.52638300  0.69557900  0.97313600  1
  H  777  1  0.52499100  0.73578700  0.97298900  1
  H  783  1  0.48770300  0.80850600  0.96634600  1
  H  790  1  0.47258500  0.91104900  0.99853900  1
  H  791  1  0.54526800  0.98673100  0.87726800  1
  H  801  1  0.50414900  0.98612600  0.98706700  1
  H  802  1  0.54210200  0.99036400  0.91710900  1
  H  803  1  0.50588500  0.95230900  0.92744500  1
  H  804  1  0.50615400  0.92367700  0.95880600  1
  H  805  1  0.60712500  0.22572700  0.13740100  1
  H  817  1  0.64079500  0.21305100  0.17725500  1
  H  818  1  0.64049400  0.18440600  0.20863000  1
  H  819  1  0.63858000  0.15060900  0.14900900  1
  H  820  1  0.67658000  0.14623600  0.21894400  1
  H  821  1  0.67990900  0.14911300  0.25883300  1
  H  824  1  0.62346400  0.32883400  0.16841200  1
  H  832  1  0.60884300  0.47666700  0.15005300  1
  H  837  1  0.66588100  0.44047700  0.15681100  1
  H  838  1  0.66421200  0.40022900  0.15635700  1
  H  840  1  0.13753000  0.60719200  0.22528200  1
  H  843  1  0.26561200  0.61032400  0.13621500  1
  H  847  1  0.44266000  0.60942900  0.15741100  1
  H  850  1  0.47640000  0.63218600  0.16466000  1
  H  851  1  0.61893500  0.51067000  0.17742700  1
  H  861  1  0.62135200  0.62189100  0.14007800  1
  H  862  1  0.62348200  0.55063900  0.17619800  1
  H  863  1  0.58789700  0.56202700  0.14011700  1
  H  864  1  0.55908500  0.59315600  0.14006000  1
  H  873  1  0.72028500  0.62342500  0.17670600  1
  H  874  1  0.70955400  0.58677200  0.14136900  1
  H  875  1  0.67829700  0.55782700  0.14165900  1
  H  878  1  0.76030100  0.61941100  0.17809300  1
  H  880  1  0.79447100  0.60938500  0.15133500  1
  H  885  1  0.94208900  0.62341500  0.16819300  1
  H  891  1  0.04510390  0.60699800  0.13768200  1
  H  901  1  0.17745600  0.64081300  0.21259600  1
  H  902  1  0.20881800  0.64051900  0.18393500  1
  H  903  1  0.14916900  0.63871600  0.15017200  1
  H  904  1  0.21914400  0.67665400  0.14578800  1
  H  905  1  0.25904000  0.67992100  0.14873400  1
  H  908  1  0.29504000  0.65997700  0.15510200  1
  H  911  1  0.33134400  0.64740300  0.16792100  1
  H  912  1  0.37137200  0.64667000  0.16643300  1
  H  915  1  0.51249000  0.64212900  0.18079100  1
  H  925  1  0.59302800  0.71252800  0.14089000  1
  H  926  1  0.56177500  0.68351900  0.14069800  1
  H  927  1  0.55237900  0.64320700  0.17699800  1
  H  937  1  0.71230400  0.67728000  0.14239300  1
  H  938  1  0.68339700  0.70844400  0.14165700  1
  H  939  1  0.65013500  0.64853800  0.13906900  1
  H  940  1  0.64351100  0.71858000  0.17708400  1
  H  941  1  0.64259500  0.75848100  0.18082800  1
  H  945  1  0.83045600  0.66582200  0.15674900  1
  H  946  1  0.87070500  0.66410100  0.15626000  1
  H  957  1  0.12471000  0.67682000  0.21888800  1
  H  958  1  0.08586190  0.64056000  0.20922200  1
  H  959  1  0.05709490  0.64069200  0.17775200  1
  H  960  1  0.12151800  0.68004700  0.25876000  1
  H  963  1  0.60952800  0.82814700  0.15734000  1
  H  966  1  0.63280900  0.79459500  0.16468800  1
  H  970  1  0.61009700  0.00531894  0.13650700  1
  H  973  1  0.65994100  0.97578700  0.15475300  1
  H  976  1  0.64708800  0.93959500  0.16786600  1
  H  977  1  0.64643600  0.89956400  0.16637000  1
  H  978  1  0.60709000  0.13267700  0.22546700  1
  H  981  1  0.67982000  0.01179490  0.14837300  1
  H  991  1  0.64072900  0.09285790  0.21343000  1
  H  992  1  0.64043700  0.06138990  0.18466700  1
  H  993  1  0.67652800  0.05171090  0.14575400  1
  H  994  1  0.61032000  0.13659400  0.26549200  1
  H  997  1  0.66004500  0.15539700  0.29487800  1
  H  1000  1  0.64753100  0.16821500  0.33120400  1
  H  1001  1  0.64682100  0.16670000  0.37122400  1
  H  1005  1  0.16858000  0.62343200  0.32838300  1
  H  1009  1  0.13328800  0.61032000  0.26529300  1
  H  1014  1  0.11449400  0.66008700  0.29462200  1
  H  1017  1  0.10047500  0.64618800  0.33053700  1
  H  1018  1  0.10146000  0.64587000  0.37066500  1
  H  1022  1  0.62228200  0.10106200  0.32790500  1
  H  1031  1  0.60956300  0.15773300  0.44249600  1
  H  1034  1  0.63232400  0.16491500  0.47625000  1
  H  1039  1  0.15060300  0.60870000  0.47608000  1
  H  1044  1  0.11565300  0.60770600  0.44311600  1
  H  1050  1  0.15711300  0.66569600  0.44007900  1
  H  1051  1  0.15661500  0.66411600  0.39983400  1
  H  1053  1  0.10797600  0.63591200  0.50622400  1
  H  1054  1  0.63159500  0.10987700  0.50602400  1
  H  1059  1  0.66063100  0.10770100  0.44096200  1
  H  1060  1  0.65942800  0.10758000  0.40075500  1
  H  1062  1  0.22578200  0.13828900  0.60701300  1
  H  1069  1  0.32913600  0.16911100  0.62310400  1
  H  1075  1  0.47670400  0.15037800  0.60877700  1
  H  1077  1  0.51075100  0.17765800  0.61878300  1
  H  1087  1  0.62195300  0.14034500  0.62118700  1
  H  1088  1  0.55072300  0.17641200  0.62330400  1
  H  1089  1  0.56209200  0.14023500  0.58773700  1
  H  1090  1  0.59322100  0.14016700  0.55892800  1
  H  1091  1  0.64217300  0.18102900  0.51235700  1
  H  1101  1  0.71258500  0.14125200  0.59289400  1
  H  1102  1  0.68358800  0.14101600  0.56163400  1
  H  1103  1  0.64324300  0.17721500  0.55223600  1
  H  1106  1  0.82823800  0.15754700  0.60947700  1
  H  1110  1  0.79463500  0.16493200  0.63261600  1
  H  1111  1  0.00536594  0.13623400  0.61011700  1
  H  1112  1  0.13237100  0.22596900  0.60728300  1
  H  1115  1  0.13640200  0.26597900  0.61050800  1
  H  1120  1  0.10129700  0.32955600  0.62379400  1
  H  1121  1  0.10098300  0.36979800  0.62266600  1
  H  1125  1  0.15487000  0.44102800  0.60193100  1
  H  1126  1  0.15470800  0.40075100  0.60325400  1
  H  1128  1  0.10706600  0.50694800  0.63360300  1
  H  1130  1  0.17790800  0.61863200  0.51010900  1
  H  1140  1  0.14114300  0.62080400  0.62141300  1
  H  1141  1  0.17672500  0.62302600  0.55008900  1
  H  1142  1  0.14082300  0.58737100  0.56156000  1
  H  1143  1  0.14103200  0.55853800  0.59268900  1
  H  1145  1  0.10603400  0.54710500  0.63047200  1
  H  1156  1  0.17789400  0.71817400  0.62688400  1
  H  1157  1  0.14197300  0.70908700  0.58642100  1
  H  1158  1  0.14262900  0.67782400  0.55740200  1
  H  1159  1  0.18198900  0.75805300  0.62769400  1
  H  1161  1  0.10676800  0.63989000  0.54629500  1
  H  1168  1  0.10981200  0.82939300  0.60650600  1
  H  1169  1  0.10920000  0.86961400  0.60745900  1
  H  1174  1  0.16695100  0.94131300  0.62238200  1
  H  1175  1  0.16678300  0.90111100  0.62158300  1
  H  1176  1  0.13351300  0.00532594  0.61053600  1
  H  1179  1  0.13819200  0.04527490  0.60723100  1
  H  1180  1  0.26580200  0.13409200  0.61014500  1
  H  1184  1  0.44365500  0.11559200  0.60775800  1
  H  1188  1  0.63294200  0.10618000  0.54603300  1
  H  1192  1  0.72473700  0.10634800  0.63287600  1
  H  1193  1  0.76475200  0.10996300  0.63169900  1
  H  1199  1  0.94273200  0.10047100  0.62189800  1
  H  1204  1  0.04542790  0.13275500  0.60691900  1
  H  1214  1  0.21280400  0.17831600  0.64069100  1
  H  1215  1  0.18391800  0.20948000  0.64055500  1
  H  1216  1  0.15056800  0.14959900  0.63868900  1
  H  1217  1  0.14555000  0.21943400  0.67682800  1
  H  1218  1  0.14852500  0.25932600  0.68015700  1
  H  1224  1  0.44061800  0.15710400  0.66570600  1
  H  1225  1  0.40037000  0.15678500  0.66400200  1
  H  1235  1  0.62348100  0.17692600  0.72014400  1
  H  1236  1  0.58681100  0.14165900  0.70937900  1
  H  1237  1  0.55787900  0.14194500  0.67811200  1
  H  1248  1  0.67732200  0.14256200  0.71214600  1
  H  1249  1  0.70848600  0.14185200  0.68324400  1
  H  1250  1  0.64858500  0.13936700  0.64997900  1
  H  1251  1  0.71862700  0.17735900  0.64338000  1
  H  1252  1  0.75853100  0.18109400  0.64247300  1
  H  1257  1  0.97578000  0.15417800  0.66009400  1
  H  1260  1  0.93974200  0.16769300  0.64699900  1
  H  1261  1  0.89970200  0.16633900  0.64636500  1
  H  1262  1  0.01179490  0.14794300  0.67986100  1
  H  1272  1  0.09234490  0.21360700  0.64084500  1
  H  1273  1  0.06108290  0.18460800  0.64044400  1
  H  1274  1  0.05171690  0.14552200  0.67655900  1
  H  1277  1  0.15516100  0.29530500  0.66030700  1
  H  1280  1  0.16977700  0.33055600  0.64547700  1
  H  1287  1  0.15024200  0.47596500  0.65941700  1
  H  1291  1  0.11479300  0.44337700  0.66088100  1
  H  1294  1  0.17723100  0.51010800  0.65009800  1
  H  1304  1  0.14042800  0.59254100  0.71206400  1
  H  1305  1  0.14063200  0.56130300  0.68313000  1
  H  1306  1  0.17621300  0.55018300  0.64655300  1
  H  1309  1  0.10603000  0.63250500  0.72430200  1
  H  1319  1  0.14179700  0.71174700  0.67680600  1
  H  1320  1  0.14130400  0.68285900  0.70795400  1
  H  1321  1  0.13857900  0.64957300  0.64805700  1
  H  1322  1  0.17701400  0.64308800  0.71803200  1
  H  1323  1  0.18083100  0.64229100  0.75791900  1
  H  1326  1  0.10686700  0.72494900  0.63689300  1
  H  1327  1  0.16589600  0.79428400  0.63803600  1
  H  1330  1  0.15828600  0.82873000  0.65903300  1
  H  1334  1  0.11084900  0.76495700  0.63795100  1
  H  1340  1  0.11509700  0.97634800  0.66084100  1
  H  1343  1  0.09936990  0.94125600  0.64666900  1
  H  1355  1  0.21941000  0.12573000  0.67667500  1
  H  1356  1  0.21006600  0.08670490  0.64040500  1
  H  1357  1  0.17879000  0.05771490  0.64069400  1
  H  1358  1  0.25928600  0.12258700  0.67991200  1
  H  1361  1  0.29512500  0.11549700  0.66002200  1
  H  1364  1  0.33085500  0.10103000  0.64596900  1
  H  1365  1  0.37099400  0.10178100  0.64573400  1
  H  1366  1  0.50670100  0.10774300  0.63610200  1
  H  1368  1  0.54676600  0.10647200  0.64020000  1
  H  1372  1  0.63933400  0.10673600  0.72400600  1
  H  1376  1  0.82985800  0.10762900  0.66064300  1
  H  1377  1  0.87006200  0.10735700  0.65923800  1
  H  1381  1  0.12228300  0.01226390  0.68031300  1
  H  1391  1  0.12060300  0.12174800  0.63846100  1
  H  1392  1  0.12589000  0.05208690  0.67689300  1
  H  1393  1  0.08724890  0.06186890  0.64054500  1
  H  1394  1  0.05837090  0.09301490  0.64067000  1
  H  1396  1  0.61945300  0.17829800  0.76015200  1
  H  1398  1  0.60943000  0.15155100  0.79431200  1
  H  1403  1  0.66586200  0.15688000  0.83030100  1
  H  1404  1  0.66412600  0.15640400  0.87054500  1
  H  1408  1  0.15753000  0.60948600  0.82776300  1
  H  1411  1  0.16476900  0.63250700  0.79407200  1
  H  1413  1  0.10972900  0.63142900  0.76431200  1
  H  1420  1  0.10757000  0.66061600  0.82939000  1
  H  1421  1  0.10745400  0.65935000  0.86959600  1
  H  1425  1  0.60780000  0.11554500  0.82705500  1
  H  1429  1  0.63570600  0.10812100  0.76410100  1
  H  1434  1  0.62346200  0.16846400  0.94188800  1
  H  1438  1  0.13654900  0.61024800  0.00488387  1
  H  1443  1  0.10078200  0.62218400  0.94235900  1
  H  1448  1  0.15491800  0.66005000  0.97535200  1
  H  1451  1  0.16802400  0.64720900  0.93916300  1
  H  1452  1  0.16655800  0.64653200  0.89913600  1
  H  1455  1  0.60997100  0.13340700  0.00496287  1
  H  1459  1  0.65945200  0.11383600  0.97577000  1
  H  1462  1  0.64578100  0.10020900  0.93973700  1
  H  1463  1  0.64554300  0.10122000  0.89961600  1
  H  1466  1  0.60689800  0.13807600  0.04494590  1
  H  1476  1  0.67672600  0.21929800  0.12443800  1
  H  1477  1  0.64042400  0.20964000  0.08567990  1
  H  1478  1  0.64056100  0.17815800  0.05692190  1
  H  1479  1  0.67996600  0.25917400  0.12124300  1
  H  1480  1  0.61026700  0.26574200  0.13315900  1
  H  1484  1  0.65999400  0.29504700  0.11425100  1
  H  1487  1  0.64610000  0.33096300  0.10027300  1
  H  1488  1  0.64582000  0.37109500  0.10125500  1
  H  1492  1  0.60781900  0.44360000  0.11546800  1
  H  1495  1  0.63624400  0.50663900  0.10752100  1
  H  1496  1  0.22558100  0.60715400  0.13222900  1
  H  1502  1  0.32807600  0.62228700  0.10072300  1
  H  1506  1  0.50619900  0.63147600  0.10965800  1
  H  1509  1  0.54621500  0.63283300  0.10597900  1
  H  1512  1  0.64036500  0.54670000  0.10626300  1
  H  1516  1  0.82721800  0.60781700  0.11533500  1
  H  1520  1  0.00511294  0.61009400  0.13310300  1
  H  1523  1  0.13288800  0.60706600  0.04493090  1
  H  1524  1  0.14857600  0.67994300  0.01134990  1
  H  1534  1  0.21357800  0.64085700  0.09240490  1
  H  1535  1  0.18480600  0.64059100  0.06094490  1
  H  1536  1  0.14595700  0.67666200  0.05125790  1
  H  1542  1  0.44113000  0.66061000  0.10750400  1
  H  1543  1  0.40091900  0.65940000  0.10736600  1
  H  1547  1  0.63304300  0.72470700  0.10608000  1
  H  1550  1  0.72417200  0.63930000  0.10653200  1
  H  1551  1  0.76427300  0.63568400  0.10793200  1
  H  1555  1  0.97588100  0.65964800  0.11371000  1
  H  1558  1  0.93986700  0.64593700  0.10001800  1
  H  1559  1  0.89974200  0.64566700  0.10105700  1
  H  1561  1  0.01172590  0.67972300  0.12080100  1
  H  1571  1  0.12152800  0.63866400  0.12001600  1
  H  1572  1  0.05158090  0.67653300  0.12434000  1
  H  1573  1  0.06187490  0.64025600  0.08624190  1
  H  1574  1  0.09322490  0.64056800  0.05758990  1
  H  1575  1  0.63185700  0.76471800  0.10970300  1
  H  1580  1  0.66070500  0.82990100  0.10743800  1
  H  1581  1  0.65931300  0.87010900  0.10729100  1
  H  1587  1  0.62202500  0.94282800  0.10064800  1
  H  1594  1  0.60690700  0.04537090  0.13284100  1
  H  1595  1  0.67959000  0.12105300  0.01156990  1
  H  1605  1  0.63847100  0.12044800  0.12136900  1
  H  1606  1  0.67642400  0.12468600  0.05141090  1
  H  1607  1  0.64020700  0.08663090  0.06174690  1
  H  1608  1  0.64047600  0.05799890  0.09310790  1
  C  2  1  0.48819100  0.00259100  0.09810600  1
  C  3  1  0.49015900  0.00410700  0.12162700  1
  C  4  1  0.50582500  0.06175400  0.04053100  1
  C  5  1  0.50568300  0.04612500  0.05764100  1
  C  6  1  0.50520200  0.02470000  0.04807100  1
  C  8  1  0.50520000  0.05027900  0.02007700  1
  C  9  1  0.50541700  0.00419400  0.06036900  1
  C  10  1  0.50720600  0.00546400  0.08422300  1
  C  11  1  0.53012000  0.01143600  0.11780100  1
  C  12  1  0.52822300  0.00974500  0.09432900  1
  C  18  1  0.49361000  0.22723400  0.02107400  1
  C  19  1  0.49389500  0.20344600  0.02020900  1
  C  24  1  0.50023500  0.23967900  0.00186200  1
  C  26  1  0.49319800  0.37051500  0.00897500  1
  C  27  1  0.48910800  0.34768600  0.00954500  1
  C  29  1  0.50054400  0.26355500  0.00189200  1
  C  30  1  0.50240800  0.31124700  0.00280700  1
  C  31  1  0.51885000  0.29840100  0.01392400  1
  C  32  1  0.51778400  0.27481400  0.01370400  1
  C  37  1  0.09822100  0.48824700  0.00216800  1
  C  38  1  0.12174600  0.49017900  0.00371400  1
  C  41  1  0.27576800  0.48479100  0.01304900  1
  C  42  1  0.29953100  0.48582900  0.01298800  1
  C  48  1  0.49940200  0.44195100  0.00646900  1
  C  49  1  0.47882900  0.45413200  0.00596200  1
  C  51  1  0.45307000  0.48195200  0.00554900  1
  C  52  1  0.44172800  0.46140900  0.00568300  1
  C  53  1  0.45746400  0.44441600  0.00573800  1
  C  54  1  0.49819700  0.41802500  0.00745600  1
  C  55  1  0.49219900  0.40715200  0.02767600  1
  C  56  1  0.48950400  0.38369100  0.02836500  1
  C  61  1  0.54866300  0.47753500  0.00657400  1
  C  63  1  0.52105800  0.45193100  0.00647500  1
  C  64  1  0.54151200  0.44048200  0.00698900  1
  C  65  1  0.55849900  0.45623300  0.00684900  1
  C  66  1  0.58422000  0.49759200  0.00782900  1
  C  67  1  0.59512300  0.49206000  0.02816500  1
  C  68  1  0.61861600  0.48966100  0.02893900  1
  C  72  1  0.56028200  0.49838600  0.00672200  1
  C  73  1  0.63179800  0.49319500  0.00952000  1
  C  75  1  0.65467500  0.48932300  0.01020900  1
  C  77  1  0.73868000  0.50046000  0.00175000  1
  C  79  1  0.77502900  0.49353700  0.02089100  1
  C  80  1  0.79881600  0.49382000  0.01999300  1
  C  84  1  0.76255700  0.50013300  0.00168600  1
  C  85  1  0.99916900  0.48831900  0.09795300  1
  C  86  1  0.99744800  0.49022100  0.12146700  1
  C  88  1  0.04070100  0.50589200  0.06132100  1
  C  89  1  0.05780200  0.50576200  0.04568300  1
  C  90  1  0.04821900  0.50529600  0.02426600  1
  C  92  1  0.02023700  0.50529900  0.04985800  1
  C  93  1  0.06050500  0.50552600  0.00375500  1
  C  94  1  0.08436300  0.50728400  0.00502000  1
  C  95  1  0.11796800  0.53014400  0.01105600  1
  C  96  1  0.09449300  0.52828300  0.00932600  1
  C  102  1  0.13199500  0.51115900  0.00825300  1
  C  103  1  0.15506100  0.51344700  0.01089100  1
  C  105  1  0.20461600  0.50779100  0.01916400  1
  C  106  1  0.22818300  0.50716300  0.01834100  1
  C  109  1  0.34782800  0.50066300  0.01490700  1
  C  110  1  0.37093300  0.50257100  0.01187000  1
  C  112  1  0.44251900  0.50339800  0.00567900  1
  C  113  1  0.45409400  0.52423500  0.00556900  1
  C  115  1  0.48168200  0.54981200  0.00551600  1
  C  116  1  0.46119400  0.56123700  0.00605600  1
  C  117  1  0.44420400  0.54548800  0.00599300  1
  C  118  1  0.41864100  0.50403800  0.00740000  1
  C  119  1  0.38493500  0.50607600  0.03077500  1
  C  120  1  0.40843300  0.50678500  0.02860800  1
  C  124  1  0.56104100  0.54040100  0.00714300  1
  C  125  1  0.54528200  0.55739600  0.00675300  1
  C  126  1  0.52395300  0.54764700  0.00592400  1
  C  128  1  0.54974600  0.51984400  0.00633300  1
  C  129  1  0.50335600  0.55977800  0.00579000  1
  C  130  1  0.50433700  0.58364900  0.00749000  1
  C  131  1  0.50652000  0.61738200  0.03081900  1
  C  132  1  0.50714300  0.59387600  0.02868100  1
  C  138  1  0.69099600  0.50238900  0.00269700  1
  C  139  1  0.70386700  0.51879300  0.01384000  1
  C  140  1  0.72745100  0.51769500  0.01360100  1
  C  144  1  0.99752000  0.50559600  0.06024100  1
  C  145  1  0.97675200  0.50536300  0.04850200  1
  C  147  1  0.95135200  0.50523900  0.02073800  1
  C  148  1  0.93976500  0.50585000  0.04111300  1
  C  149  1  0.95540000  0.50579100  0.05820900  1
  C  150  1  0.99659300  0.50740300  0.08411000  1
  C  151  1  0.99244100  0.52842900  0.09425000  1
  C  152  1  0.99053700  0.53026300  0.11771200  1
  C  157  1  0.48473100  0.72644000  0.01296300  1
  C  158  1  0.48588800  0.70268200  0.01291800  1
  C  164  1  0.50301000  0.63137500  0.01190700  1
  C  165  1  0.50112700  0.65449000  0.01491800  1
  C  167  1  0.51099800  0.87024300  0.00818000  1
  C  168  1  0.51330000  0.84716800  0.01070200  1
  C  170  1  0.50749700  0.79766900  0.01910700  1
  C  171  1  0.50691800  0.77410100  0.01827700  1
  C  175  1  0.48803400  0.90405900  0.00253700  1
  C  176  1  0.48997600  0.88052600  0.00390800  1
  C  178  1  0.50530600  0.94176000  0.00440700  1
  C  179  1  0.50518100  0.95349900  0.02516900  1
  C  181  1  0.50519800  0.98126700  0.05056200  1
  C  182  1  0.50582600  0.96088200  0.06214300  1
  C  183  1  0.50567700  0.94378500  0.04651100  1
  C  184  1  0.50710100  0.91789100  0.00530400  1
  C  185  1  0.53001600  0.88424600  0.01087200  1
  C  186  1  0.52814200  0.90773100  0.00932200  1
  C  191  1  0.51115700  0.00861100  0.13185400  1
  C  192  1  0.51348400  0.01120200  0.15492000  1
  C  194  1  0.50790500  0.01943800  0.20448600  1
  C  195  1  0.50728400  0.01860100  0.22805100  1
  C  198  1  0.00203200  0.50022500  0.23925700  1
  C  199  1  0.02123300  0.49357800  0.22680400  1
  C  200  1  0.02036600  0.49388300  0.20301900  1
  C  207  1  0.99978200  0.50099400  0.19143900  1
  C  208  1  0.99298000  0.51121600  0.13172200  1
  C  209  1  0.99002000  0.51345700  0.15475500  1
  C  211  1  0.98066800  0.50714900  0.20409400  1
  C  212  1  0.98120000  0.50679300  0.22768500  1
  C  215  1  0.49974300  0.99794700  0.23935300  1
  C  216  1  0.49257000  0.97915500  0.22654900  1
  C  217  1  0.49321300  0.98030300  0.20277200  1
  C  222  1  0.50111500  0.99957700  0.19150800  1
  C  225  1  0.48491100  0.01333900  0.27562900  1
  C  226  1  0.48594500  0.01327000  0.29938900  1
  C  231  1  0.50075900  0.01513100  0.34769400  1
  C  232  1  0.50263900  0.01208300  0.37079700  1
  C  233  1  0.00941500  0.49287900  0.37004400  1
  C  234  1  0.00997500  0.48889500  0.34719200  1
  C  236  1  0.00206200  0.50049700  0.26313300  1
  C  238  1  0.98915500  0.48409000  0.27585100  1
  C  239  1  0.98982500  0.48515200  0.29961400  1
  C  243  1  0.00303100  0.50225200  0.31082500  1
  C  244  1  0.01416700  0.51870100  0.29800400  1
  C  245  1  0.01392100  0.51768900  0.27441900  1
  C  251  1  0.49946900  0.99787100  0.26327000  1
  C  252  1  0.50129800  0.99825900  0.31109400  1
  C  253  1  0.51515200  0.98369700  0.29862700  1
  C  254  1  0.51438600  0.98361300  0.27502300  1
  C  259  1  0.00216700  0.09858800  0.48842700  1
  C  260  1  0.00373900  0.12210700  0.49039500  1
  C  261  1  0.09844200  0.00120300  0.48816700  1
  C  262  1  0.23978000  0.00231600  0.50005800  1
  C  263  1  0.22745600  0.02157900  0.49335100  1
  C  264  1  0.20366200  0.02085400  0.49361600  1
  C  269  1  0.37058900  0.00917900  0.49305600  1
  C  270  1  0.34775100  0.00977900  0.48902000  1
  C  272  1  0.26365600  0.00222000  0.50041400  1
  C  274  1  0.44201800  0.00666000  0.49925400  1
  C  275  1  0.45419800  0.00610800  0.47868400  1
  C  277  1  0.48201600  0.00569200  0.45292600  1
  C  278  1  0.46147300  0.00577800  0.44158600  1
  C  279  1  0.44448100  0.00582900  0.45732100  1
  C  280  1  0.41809600  0.00764500  0.49804000  1
  C  281  1  0.40723100  0.02787300  0.49204800  1
  C  282  1  0.38377000  0.02856700  0.48935600  1
  C  288  1  0.50346400  0.00585400  0.44237700  1
  C  289  1  0.52429500  0.00578500  0.45395700  1
  C  291  1  0.54986200  0.00576400  0.48155300  1
  C  292  1  0.56129400  0.00634500  0.46107200  1
  C  293  1  0.54555200  0.00626500  0.44407800  1
  C  294  1  0.50410400  0.00758700  0.41850100  1
  C  295  1  0.50613300  0.03098500  0.38480800  1
  C  296  1  0.50681500  0.02880700  0.40830500  1
  C  300  1  0.72650200  0.01304900  0.48469000  1
  C  301  1  0.70274400  0.01307900  0.48585500  1
  C  309  1  0.90410400  0.00235800  0.48807100  1
  C  310  1  0.88056400  0.00362300  0.49001700  1
  C  312  1  0.00153800  0.23984200  0.49924400  1
  C  314  1  0.98120500  0.20380500  0.49391200  1
  C  315  1  0.98102200  0.22741500  0.49330300  1
  C  318  1  0.00139900  0.31140400  0.49721100  1
  C  319  1  0.01217700  0.29877900  0.48037300  1
  C  320  1  0.01210600  0.27518200  0.48121700  1
  C  325  1  0.99957400  0.26369700  0.49862600  1
  C  327  1  0.00699400  0.49889000  0.44150100  1
  C  328  1  0.00668000  0.47830200  0.45367800  1
  C  330  1  0.00647000  0.45251400  0.48149200  1
  C  331  1  0.00660200  0.44118000  0.46095400  1
  C  332  1  0.00652700  0.45693000  0.44396800  1
  C  333  1  0.00795400  0.49770600  0.41757500  1
  C  334  1  0.02816900  0.49177100  0.40665300  1
  C  335  1  0.02882500  0.48915000  0.38318300  1
  C  340  1  0.98661500  0.40508600  0.49991900  1
  C  342  1  0.98809700  0.49921900  0.38094200  1
  C  343  1  0.00628800  0.55970900  0.49791900  1
  C  344  1  0.00639800  0.54813400  0.47707200  1
  C  346  1  0.00675900  0.52055500  0.45146900  1
  C  347  1  0.00749000  0.54103200  0.44005700  1
  C  348  1  0.00715200  0.55801700  0.45581900  1
  C  349  1  0.00824700  0.58357200  0.49728300  1
  C  350  1  0.02955200  0.59359900  0.49457800  1
  C  351  1  0.03189700  0.61708700  0.49510600  1
  C  356  1  0.98735000  0.50149900  0.40446200  1
  C  358  1  0.98812100  0.59752600  0.50031500  1
  C  359  1  0.01307100  0.63124800  0.49837400  1
  C  360  1  0.01625100  0.65433600  0.50010300  1
  C  361  1  0.99966600  0.69105600  0.49796300  1
  C  362  1  0.98547800  0.70329000  0.48352200  1
  C  363  1  0.98512200  0.72690000  0.48412100  1
  C  367  1  0.99875600  0.73889700  0.49941700  1
  C  368  1  0.01847500  0.79862300  0.49309800  1
  C  369  1  0.01836900  0.77501600  0.49270200  1
  C  373  1  0.99801400  0.76280300  0.49959000  1
  C  374  1  0.12196000  0.99830900  0.49007400  1
  C  378  1  0.27636900  0.98924200  0.48405600  1
  C  379  1  0.30013400  0.98980200  0.48519600  1
  C  383  1  0.50016000  0.98961200  0.38117100  1
  C  385  1  0.38142900  0.98785200  0.49947400  1
  C  386  1  0.50091300  0.98737400  0.40470500  1
  C  387  1  0.62100600  0.98970100  0.50035500  1
  C  390  1  0.73888000  0.99756700  0.49921900  1
  C  392  1  0.76279900  0.99756400  0.49939000  1
  C  393  1  0.77551400  0.97870700  0.49223000  1
  C  394  1  0.79930000  0.97976100  0.49282400  1
  C  398  1  0.99788100  0.88058900  0.49043700  1
  C  399  1  0.99985900  0.90407200  0.48842200  1
  C  401  1  0.06152500  0.04144900  0.50573700  1
  C  402  1  0.04576500  0.05844000  0.50569000  1
  C  403  1  0.02441100  0.04870600  0.50527200  1
  C  405  1  0.05020100  0.02090700  0.50514300  1
  C  406  1  0.00381100  0.06084500  0.50561600  1
  C  407  1  0.00491800  0.08470500  0.50745500  1
  C  408  1  0.01085200  0.11828000  0.53038700  1
  C  409  1  0.00909500  0.09480600  0.52849100  1
  C  415  1  0.19195900  0.00153900  0.50073300  1
  C  417  1  0.31134300  0.00296700  0.50232300  1
  C  418  1  0.29852400  0.01417500  0.51872300  1
  C  419  1  0.27493900  0.01403100  0.51763800  1
  C  423  1  0.47758300  0.00679400  0.54852200  1
  C  425  1  0.45199200  0.00669600  0.52091000  1
  C  426  1  0.44053400  0.00723900  0.54135600  1
  C  427  1  0.45627800  0.00710100  0.55834700  1
  C  428  1  0.49763400  0.00802100  0.58408400  1
  C  429  1  0.49210900  0.02835700  0.59499600  1
  C  430  1  0.48970600  0.02912500  0.61848500  1
  C  434  1  0.49843000  0.00692400  0.56014800  1
  C  435  1  0.54044400  0.00726200  0.56090700  1
  C  436  1  0.55743900  0.00691200  0.54515000  1
  C  437  1  0.54769100  0.00612300  0.52382300  1
  C  439  1  0.51988800  0.00650200  0.54961400  1
  C  440  1  0.55982000  0.00604500  0.50322700  1
  C  441  1  0.58368900  0.00774000  0.50421500  1
  C  442  1  0.61742600  0.03106500  0.50642000  1
  C  443  1  0.59392100  0.02893000  0.50704200  1
  C  449  1  0.63141400  0.01214600  0.50291000  1
  C  450  1  0.65452600  0.01515100  0.50100800  1
  C  451  1  0.87026300  0.00779400  0.51104700  1
  C  452  1  0.84718000  0.01027000  0.51335400  1
  C  454  1  0.79775800  0.01894000  0.50743100  1
  C  455  1  0.77418800  0.01819600  0.50685700  1
  C  459  1  0.94179500  0.00443000  0.50533800  1
  C  460  1  0.95337700  0.02528300  0.50523500  1
  C  462  1  0.98095700  0.05088200  0.50533900  1
  C  463  1  0.96048900  0.06231500  0.50594500  1
  C  464  1  0.94350600  0.04655600  0.50574700  1
  C  465  1  0.91792300  0.00514900  0.50714200  1
  C  466  1  0.88425600  0.01048200  0.53007300  1
  C  467  1  0.90774800  0.00905500  0.52819200  1
  C  471  1  0.00819400  0.13233600  0.51140100  1
  C  472  1  0.01104800  0.15538500  0.51366900  1
  C  474  1  0.02126500  0.22826200  0.50591300  1
  C  475  1  0.02111700  0.20448300  0.50657200  1
  C  478  1  0.00171400  0.19203700  0.50085700  1
  C  481  1  0.00860100  0.37037600  0.50753300  1
  C  482  1  0.00911800  0.34742900  0.51097000  1
  C  485  1  0.98818800  0.27621800  0.51541000  1
  C  486  1  0.98864300  0.29999300  0.51448200  1
  C  491  1  0.00654900  0.44195600  0.50293000  1
  C  492  1  0.00616600  0.45356800  0.52376400  1
  C  494  1  0.00563300  0.48117000  0.54933800  1
  C  495  1  0.00597100  0.46070200  0.56078800  1
  C  496  1  0.00610900  0.44371600  0.54504900  1
  C  497  1  0.00734500  0.41800800  0.50371600  1
  C  498  1  0.02812200  0.38334100  0.51131700  1
  C  499  1  0.02756300  0.40686600  0.50920400  1
  C  503  1  0.98726100  0.38151800  0.50169600  1
  C  504  1  0.98944400  0.50005500  0.62054900  1
  C  506  1  0.00661100  0.56048200  0.53993600  1
  C  507  1  0.00637900  0.54473400  0.55693100  1
  C  508  1  0.00562900  0.52341100  0.54718100  1
  C  510  1  0.00584500  0.54917700  0.51937900  1
  C  511  1  0.00568600  0.50282900  0.55932200  1
  C  512  1  0.00740300  0.50383500  0.58318900  1
  C  513  1  0.03079000  0.50617500  0.61687400  1
  C  514  1  0.02861000  0.50670400  0.59337400  1
  C  520  1  0.98720600  0.50065000  0.59701000  1
  C  521  1  0.99051700  0.62105400  0.50086500  1
  C  524  1  0.01391500  0.72679100  0.51447400  1
  C  525  1  0.01413900  0.70302300  0.51359100  1
  C  531  1  0.99839800  0.81065500  0.50071400  1
  C  534  1  0.99342800  0.87046200  0.51149700  1
  C  535  1  0.99019400  0.84746400  0.51384400  1
  C  537  1  0.97866300  0.77469000  0.50683700  1
  C  538  1  0.97908600  0.79847700  0.50724300  1
  C  542  1  0.06073200  0.99826200  0.50544200  1
  C  543  1  0.04914200  0.97740900  0.50525700  1
  C  545  1  0.02155900  0.95181500  0.50528100  1
  C  546  1  0.04201600  0.94036800  0.50585100  1
  C  547  1  0.05900200  0.95612500  0.50571200  1
  C  548  1  0.08460500  0.99749500  0.50726300  1
  C  549  1  0.09475100  0.99344000  0.52830200  1
  C  550  1  0.11821500  0.99155600  0.53013800  1
  C  555  1  0.13222100  0.99391900  0.51107900  1
  C  556  1  0.15525100  0.99092700  0.51333200  1
  C  558  1  0.20448800  0.98116600  0.50693400  1
  C  559  1  0.22808500  0.98155900  0.50662700  1
  C  563  1  0.40494500  0.98706300  0.50180900  1
  C  565  1  0.49919900  0.98826000  0.62076300  1
  C  566  1  0.59746400  0.98751100  0.50101100  1
  C  567  1  0.50126400  0.98740700  0.59722500  1
  C  569  1  0.69107100  0.99814800  0.50130200  1
  C  570  1  0.70355300  0.98356900  0.51512300  1
  C  571  1  0.72715400  0.98339300  0.51423300  1
  C  575  1  0.81064600  0.99900300  0.50067900  1
  C  578  1  0.99870700  0.94186000  0.50553400  1
  C  579  1  0.97811200  0.95400100  0.50519700  1
  C  581  1  0.95232900  0.98178900  0.50506100  1
  C  582  1  0.94100600  0.96124800  0.50570000  1
  C  583  1  0.95676200  0.94426100  0.50565500  1
  C  584  1  0.99755400  0.91801500  0.50746300  1
  C  585  1  0.99343000  0.90801500  0.52855700  1
  C  586  1  0.99127900  0.88458100  0.53049900  1
  C  591  1  0.49322300  0.00969500  0.63165700  1
  C  593  1  0.48935700  0.01038100  0.65453500  1
  C  595  1  0.50045800  0.00190900  0.73853800  1
  C  596  1  0.50240800  0.00283800  0.69085600  1
  C  597  1  0.51882200  0.01396500  0.70373000  1
  C  598  1  0.51771900  0.01372700  0.72731200  1
  C  602  1  0.01315200  0.48478800  0.72604800  1
  C  603  1  0.01308700  0.48586900  0.70228800  1
  C  610  1  0.99770500  0.49934700  0.73843200  1
  C  611  1  0.01190700  0.50266500  0.63090800  1
  C  612  1  0.01496900  0.50084800  0.65401800  1
  C  613  1  0.99809300  0.50125800  0.69061200  1
  C  614  1  0.98356400  0.51512300  0.70310400  1
  C  615  1  0.98347800  0.51431400  0.72670600  1
  C  619  1  0.48407300  0.98903100  0.72575900  1
  C  620  1  0.48523500  0.98968400  0.70199900  1
  C  627  1  0.50011400  0.00186300  0.76241300  1
  C  628  1  0.49356900  0.02110000  0.77486500  1
  C  629  1  0.49384000  0.02022200  0.79865100  1
  C  636  1  0.99776400  0.49956700  0.76235300  1
  C  637  1  0.97893300  0.49244900  0.77513000  1
  C  638  1  0.98005300  0.49306900  0.79890600  1
  C  642  1  0.00828600  0.51113200  0.86982100  1
  C  643  1  0.01081700  0.51343100  0.84674600  1
  C  645  1  0.01924500  0.50762400  0.79724900  1
  C  646  1  0.01843300  0.50703000  0.77368300  1
  C  649  1  0.99934000  0.50089700  0.81019600  1
  C  652  1  0.50079100  0.99958200  0.81023500  1
  C  653  1  0.51080600  0.99276000  0.86997600  1
  C  654  1  0.51301200  0.98962900  0.84696800  1
  C  656  1  0.50684000  0.98043600  0.79758000  1
  C  657  1  0.50652800  0.98098300  0.77398800  1
  C  660  1  0.48824900  0.09837100  0.99903000  1
  C  661  1  0.49016100  0.12188700  0.99730700  1
  C  663  1  0.50550600  0.06064800  0.99735600  1
  C  664  1  0.50526500  0.04890200  0.97659300  1
  C  666  1  0.50513300  0.02112900  0.95120100  1
  C  667  1  0.50572700  0.04150400  0.93960900  1
  C  668  1  0.50569400  0.05860400  0.95524100  1
  C  669  1  0.50732200  0.08451900  0.99641700  1
  C  670  1  0.52834500  0.09464900  0.99222700  1
  C  671  1  0.53018400  0.11811200  0.99030800  1
  C  677  1  0.50096200  0.19185900  0.99961600  1
  C  678  1  0.51115200  0.13213200  0.99280300  1
  C  679  1  0.51340000  0.15516600  0.98984300  1
  C  681  1  0.50709100  0.20450700  0.98049100  1
  C  682  1  0.50675600  0.22809900  0.98102100  1
  C  686  1  0.48414000  0.27629700  0.98900700  1
  C  687  1  0.48525800  0.30006200  0.98965000  1
  C  693  1  0.00260200  0.48818600  0.90364000  1
  C  694  1  0.00397600  0.49012200  0.88010700  1
  C  695  1  0.23949300  0.49965400  0.99768000  1
  C  696  1  0.22669800  0.49252500  0.97886900  1
  C  697  1  0.20292000  0.49318500  0.98000100  1
  C  703  1  0.26341200  0.49938400  0.99761400  1
  C  704  1  0.38131800  0.50008200  0.98940700  1
  C  706  1  0.49961000  0.38136200  0.98765300  1
  C  707  1  0.50195300  0.40487700  0.98687200  1
  C  709  1  0.62090700  0.49915700  0.98808200  1
  C  710  1  0.72590600  0.48408800  0.98885100  1
  C  711  1  0.70214300  0.48523600  0.98951400  1
  C  717  1  0.88033100  0.48997500  0.99719300  1
  C  718  1  0.90383100  0.48809200  0.99911500  1
  C  721  1  0.00452100  0.50546400  0.94133900  1
  C  722  1  0.02528900  0.50530700  0.95307200  1
  C  724  1  0.05069100  0.50528600  0.98083300  1
  C  725  1  0.06227000  0.50592200  0.96045000  1
  C  726  1  0.04663300  0.50580300  0.94335700  1
  C  727  1  0.00540900  0.50724800  0.91747000  1
  C  728  1  0.01102200  0.53014500  0.88382200  1
  C  729  1  0.00947100  0.52827800  0.90730500  1
  C  733  1  0.19164700  0.50105400  0.99928000  1
  C  735  1  0.31123700  0.50121200  0.99801200  1
  C  736  1  0.29877200  0.51510600  0.98348800  1
  C  737  1  0.27516500  0.51434200  0.98340200  1
  C  741  1  0.40485600  0.50082600  0.98718300  1
  C  742  1  0.50047300  0.62097000  0.98946100  1
  C  744  1  0.50114200  0.59742900  0.98726500  1
  C  745  1  0.59736800  0.50124400  0.98722600  1
  C  748  1  0.81037800  0.50084800  0.99936900  1
  C  749  1  0.87010900  0.51093700  0.99250600  1
  C  750  1  0.84708800  0.51316400  0.98944900  1
  C  752  1  0.79770400  0.50694900  0.98025400  1
  C  753  1  0.77411100  0.50661500  0.98081800  1
  C  758  1  0.94154300  0.50539100  0.99781800  1
  C  759  1  0.95383400  0.50511400  0.97731100  1
  C  761  1  0.98180800  0.50510400  0.95172500  1
  C  762  1  0.96134400  0.50562000  0.94025900  1
  C  763  1  0.94424600  0.50550700  0.95589400  1
  C  764  1  0.91768900  0.50716300  0.99650800  1
  C  765  1  0.90758100  0.52815200  0.99210000  1
  C  766  1  0.88413200  0.52996200  0.98998800  1
  C  772  1  0.49927000  0.73886000  0.99752700  1
  C  773  1  0.50133500  0.69104600  0.99795500  1
  C  774  1  0.51517000  0.70357000  0.98342700  1
  C  775  1  0.51428700  0.72717200  0.98332100  1
  C  780  1  0.49945300  0.76278100  0.99760600  1
  C  781  1  0.49231300  0.77556700  0.97879000  1
  C  782  1  0.49291800  0.79934500  0.97992900  1
  C  786  1  0.50075400  0.81062500  0.99921600  1
  C  788  1  0.48985700  0.99749800  0.88019600  1
  C  789  1  0.48798800  0.99948100  0.90369000  1
  C  792  1  0.50530400  0.99820200  0.94139900  1
  C  793  1  0.50501700  0.97770400  0.95370300  1
  C  795  1  0.50497800  0.95213300  0.98169000  1
  C  796  1  0.50553900  0.94065200  0.96123700  1
  C  797  1  0.50542000  0.95627700  0.94413000  1
  C  798  1  0.50706200  0.99687900  0.91754500  1
  C  799  1  0.52804100  0.99242900  0.90743600  1
  C  800  1  0.52983800  0.99026000  0.88399500  1
  C  806  1  0.62251300  0.13691300  0.23240800  1
  C  807  1  0.62448100  0.13842900  0.25592900  1
  C  808  1  0.64014700  0.19607600  0.17483300  1
  C  809  1  0.64000500  0.18044700  0.19194300  1
  C  810  1  0.63952400  0.15902200  0.18237300  1
  C  812  1  0.63952200  0.18460100  0.15437900  1
  C  813  1  0.63973900  0.13851600  0.19467100  1
  C  814  1  0.64152800  0.13978600  0.21852500  1
  C  815  1  0.66444200  0.14575800  0.25210300  1
  C  816  1  0.66254500  0.14406700  0.22863100  1
  C  822  1  0.62793200  0.36155600  0.15537600  1
  C  823  1  0.62821700  0.33776800  0.15451100  1
  C  828  1  0.63455700  0.37400100  0.13616400  1
  C  830  1  0.62752000  0.50483700  0.14327700  1
  C  831  1  0.62343000  0.48200800  0.14384700  1
  C  833  1  0.63486600  0.39787700  0.13619400  1
  C  834  1  0.63673000  0.44556900  0.13710900  1
  C  835  1  0.65317200  0.43272300  0.14822600  1
  C  836  1  0.65210600  0.40913600  0.14800600  1
  C  841  1  0.23254300  0.62256900  0.13647000  1
  C  842  1  0.25606800  0.62450100  0.13801600  1
  C  845  1  0.41009000  0.61911300  0.14735100  1
  C  846  1  0.43385300  0.62015100  0.14729000  1
  C  852  1  0.63372400  0.57627300  0.14077100  1
  C  853  1  0.61315100  0.58845400  0.14026400  1
  C  855  1  0.58739200  0.61627400  0.13985100  1
  C  856  1  0.57605000  0.59573100  0.13998500  1
  C  857  1  0.59178600  0.57873800  0.14004000  1
  C  858  1  0.63251900  0.55234700  0.14175800  1
  C  859  1  0.62652100  0.54147400  0.16197800  1
  C  860  1  0.62382600  0.51801300  0.16266700  1
  C  865  1  0.68298500  0.61185700  0.14087600  1
  C  867  1  0.65538000  0.58625300  0.14077700  1
  C  868  1  0.67583400  0.57480400  0.14129100  1
  C  869  1  0.69282100  0.59055500  0.14115100  1
  C  870  1  0.71854200  0.63191400  0.14213100  1
  C  871  1  0.72944500  0.62638200  0.16246700  1
  C  872  1  0.75293800  0.62398300  0.16324100  1
  C  876  1  0.69460400  0.63270800  0.14102400  1
  C  877  1  0.76612000  0.62751700  0.14382200  1
  C  879  1  0.78899700  0.62364500  0.14451100  1
  C  881  1  0.87300200  0.63478200  0.13605200  1
  C  883  1  0.90935100  0.62785900  0.15519300  1
  C  884  1  0.93313800  0.62814200  0.15429500  1
  C  888  1  0.89687900  0.63445500  0.13598800  1
  C  889  1  0.13349100  0.62264100  0.23225500  1
  C  890  1  0.13177000  0.62454300  0.25576900  1
  C  892  1  0.17502300  0.64021400  0.19562300  1
  C  893  1  0.19212400  0.64008400  0.17998500  1
  C  894  1  0.18254100  0.63961800  0.15856800  1
  C  896  1  0.15455900  0.63962100  0.18416000  1
  C  897  1  0.19482700  0.63984800  0.13805700  1
  C  898  1  0.21868500  0.64160600  0.13932200  1
  C  899  1  0.25229000  0.66446600  0.14535800  1
  C  900  1  0.22881500  0.66260500  0.14362800  1
  C  906  1  0.26631700  0.64548100  0.14255500  1
  C  907  1  0.28938300  0.64776900  0.14519300  1
  C  909  1  0.33893800  0.64211300  0.15346600  1
  C  910  1  0.36250500  0.64148500  0.15264300  1
  C  913  1  0.48215000  0.63498500  0.14920900  1
  C  914  1  0.50525500  0.63689300  0.14617200  1
  C  916  1  0.57684100  0.63772000  0.13998100  1
  C  917  1  0.58841600  0.65855700  0.13987100  1
  C  919  1  0.61600400  0.68413400  0.13981800  1
  C  920  1  0.59551600  0.69555900  0.14035800  1
  C  921  1  0.57852600  0.67981000  0.14029500  1
  C  922  1  0.55296300  0.63836000  0.14170200  1
  C  923  1  0.51925700  0.64039800  0.16507700  1
  C  924  1  0.54275500  0.64110700  0.16291000  1
  C  928  1  0.69536300  0.67472300  0.14144500  1
  C  929  1  0.67960400  0.69171800  0.14105500  1
  C  930  1  0.65827500  0.68196900  0.14022600  1
  C  932  1  0.68406800  0.65416600  0.14063500  1
  C  933  1  0.63767800  0.69410000  0.14009200  1
  C  934  1  0.63865900  0.71797100  0.14179200  1
  C  935  1  0.64084200  0.75170400  0.16512100  1
  C  936  1  0.64146500  0.72819800  0.16298300  1
  C  942  1  0.82531800  0.63671100  0.13699900  1
  C  943  1  0.83818900  0.65311500  0.14814200  1
  C  944  1  0.86177300  0.65201700  0.14790300  1
  C  948  1  0.13184200  0.63991800  0.19454300  1
  C  949  1  0.11107400  0.63968500  0.18280400  1
  C  951  1  0.08567390  0.63956100  0.15504000  1
  C  952  1  0.07408690  0.64017200  0.17541500  1
  C  953  1  0.08972190  0.64011300  0.19251100  1
  C  954  1  0.13091500  0.64172500  0.21841200  1
  C  955  1  0.12676300  0.66275100  0.22855200  1
  C  956  1  0.12485900  0.66458500  0.25201400  1
  C  961  1  0.61905300  0.86076200  0.14726500  1
  C  962  1  0.62021000  0.83700400  0.14722000  1
  C  968  1  0.63733200  0.76569700  0.14620900  1
  C  969  1  0.63544900  0.78881200  0.14922000  1
  C  971  1  0.64532000  0.00456494  0.14248200  1
  C  972  1  0.64762200  0.98149000  0.14500400  1
  C  974  1  0.64181900  0.93199100  0.15340900  1
  C  975  1  0.64124000  0.90842300  0.15257900  1
  C  979  1  0.62235600  0.03838090  0.13683900  1
  C  980  1  0.62429800  0.01484790  0.13821000  1
  C  982  1  0.63962800  0.07608190  0.13870900  1
  C  983  1  0.63950300  0.08782090  0.15947100  1
  C  985  1  0.63952000  0.11558900  0.18486400  1
  C  986  1  0.64014800  0.09520390  0.19644500  1
  C  987  1  0.63999900  0.07810690  0.18081300  1
  C  988  1  0.64142300  0.05221290  0.13960600  1
  C  989  1  0.66433800  0.01856790  0.14517400  1
  C  990  1  0.66246400  0.04205290  0.14362400  1
  C  995  1  0.64547900  0.14293300  0.26615600  1
  C  996  1  0.64780600  0.14552400  0.28922200  1
  C  998  1  0.64222700  0.15376000  0.33878800  1
  C  999  1  0.64160600  0.15292300  0.36235300  1
  C  1002  1  0.13635400  0.63454700  0.37355900  1
  C  1003  1  0.15555500  0.62790000  0.36110600  1
  C  1004  1  0.15468800  0.62820500  0.33732100  1
  C  1011  1  0.13410400  0.63531600  0.32574100  1
  C  1012  1  0.12730200  0.64553800  0.26602400  1
  C  1013  1  0.12434200  0.64777900  0.28905700  1
  C  1015  1  0.11499000  0.64147100  0.33839600  1
  C  1016  1  0.11552200  0.64111500  0.36198700  1
  C  1019  1  0.63406500  0.13226900  0.37365500  1
  C  1020  1  0.62689200  0.11347700  0.36085100  1
  C  1021  1  0.62753500  0.11462500  0.33707400  1
  C  1026  1  0.63543700  0.13389900  0.32581000  1
  C  1029  1  0.61923300  0.14766100  0.40993100  1
  C  1030  1  0.62026700  0.14759200  0.43369100  1
  C  1035  1  0.63508100  0.14945300  0.48199600  1
  C  1036  1  0.63696100  0.14640500  0.50509900  1
  C  1037  1  0.14373700  0.62720100  0.50434600  1
  C  1038  1  0.14429700  0.62321700  0.48149400  1
  C  1040  1  0.13638400  0.63481900  0.39743500  1
  C  1042  1  0.12347700  0.61841200  0.41015300  1
  C  1043  1  0.12414700  0.61947400  0.43391600  1
  C  1047  1  0.13735300  0.63657400  0.44512700  1
  C  1048  1  0.14848900  0.65302300  0.43230600  1
  C  1049  1  0.14824300  0.65201100  0.40872100  1
  C  1055  1  0.63379100  0.13219300  0.39757200  1
  C  1056  1  0.63562000  0.13258100  0.44539600  1
  C  1057  1  0.64947400  0.11801900  0.43292900  1
  C  1058  1  0.64870800  0.11793500  0.40932500  1
  C  1063  1  0.13648900  0.23291000  0.62272900  1
  C  1064  1  0.13806100  0.25642900  0.62469700  1
  C  1065  1  0.23276400  0.13552500  0.62246900  1
  C  1066  1  0.37410200  0.13663800  0.63436000  1
  C  1067  1  0.36177800  0.15590100  0.62765300  1
  C  1068  1  0.33798400  0.15517600  0.62791800  1
  C  1073  1  0.50491100  0.14350100  0.62735800  1
  C  1074  1  0.48207300  0.14410100  0.62332200  1
  C  1076  1  0.39797800  0.13654200  0.63471600  1
  C  1078  1  0.57634000  0.14098200  0.63355600  1
  C  1079  1  0.58852000  0.14043000  0.61298600  1
  C  1081  1  0.61633800  0.14001400  0.58722800  1
  C  1082  1  0.59579500  0.14010000  0.57588800  1
  C  1083  1  0.57880300  0.14015100  0.59162300  1
  C  1084  1  0.55241800  0.14196700  0.63234200  1
  C  1085  1  0.54155300  0.16219500  0.62635000  1
  C  1086  1  0.51809200  0.16288900  0.62365800  1
  C  1092  1  0.63778600  0.14017600  0.57667900  1
  C  1093  1  0.65861700  0.14010700  0.58825900  1
  C  1095  1  0.68418400  0.14008600  0.61585500  1
  C  1096  1  0.69561600  0.14066700  0.59537400  1
  C  1097  1  0.67987400  0.14058700  0.57838000  1
  C  1098  1  0.63842600  0.14190900  0.55280300  1
  C  1099  1  0.64045500  0.16530700  0.51911000  1
  C  1100  1  0.64113700  0.16312900  0.54260700  1
  C  1104  1  0.86082400  0.14737100  0.61899200  1
  C  1105  1  0.83706600  0.14740100  0.62015700  1
  C  1113  1  0.03842590  0.13668000  0.62237300  1
  C  1114  1  0.01488590  0.13794500  0.62431900  1
  C  1116  1  0.13586000  0.37416400  0.63354600  1
  C  1118  1  0.11552700  0.33812700  0.62821400  1
  C  1119  1  0.11534400  0.36173700  0.62760500  1
  C  1122  1  0.13572100  0.44572600  0.63151300  1
  C  1123  1  0.14649900  0.43310100  0.61467500  1
  C  1124  1  0.14642800  0.40950400  0.61551900  1
  C  1129  1  0.13389600  0.39801900  0.63292800  1
  C  1131  1  0.14131600  0.63321200  0.57580300  1
  C  1132  1  0.14100200  0.61262400  0.58798000  1
  C  1134  1  0.14079200  0.58683600  0.61579400  1
  C  1135  1  0.14092400  0.57550200  0.59525600  1
  C  1136  1  0.14084900  0.59125200  0.57827000  1
  C  1137  1  0.14227600  0.63202800  0.55187700  1
  C  1138  1  0.16249100  0.62609300  0.54095500  1
  C  1139  1  0.16314700  0.62347200  0.51748500  1
  C  1144  1  0.12093700  0.53940800  0.63422100  1
  C  1146  1  0.12241900  0.63354100  0.51524400  1
  C  1147  1  0.14061000  0.69403100  0.63222100  1
  C  1148  1  0.14072000  0.68245600  0.61137400  1
  C  1150  1  0.14108100  0.65487700  0.58577100  1
  C  1151  1  0.14181200  0.67535400  0.57435900  1
  C  1152  1  0.14147400  0.69233900  0.59012100  1
  C  1153  1  0.14256900  0.71789400  0.63158500  1
  C  1154  1  0.16387400  0.72792100  0.62888000  1
  C  1155  1  0.16621900  0.75140900  0.62940800  1
  C  1160  1  0.12167200  0.63582100  0.53876400  1
  C  1162  1  0.12244300  0.73184800  0.63461700  1
  C  1163  1  0.14739300  0.76557000  0.63267600  1
  C  1164  1  0.15057300  0.78865800  0.63440500  1
  C  1165  1  0.13398800  0.82537800  0.63226500  1
  C  1166  1  0.11980000  0.83761200  0.61782400  1
  C  1167  1  0.11944400  0.86122200  0.61842300  1
  C  1171  1  0.13307800  0.87321900  0.63371900  1
  C  1172  1  0.15279700  0.93294500  0.62740000  1
  C  1173  1  0.15269100  0.90933800  0.62700400  1
  C  1177  1  0.13233600  0.89712500  0.63389200  1
  C  1178  1  0.25628200  0.13263100  0.62437600  1
  C  1182  1  0.41069100  0.12356400  0.61835800  1
  C  1183  1  0.43445600  0.12412400  0.61949800  1
  C  1187  1  0.63448200  0.12393400  0.51547300  1
  C  1189  1  0.51575100  0.12217400  0.63377600  1
  C  1190  1  0.63523500  0.12169600  0.53900700  1
  C  1191  1  0.75532800  0.12402300  0.63465700  1
  C  1194  1  0.87320200  0.13188900  0.63352100  1
  C  1196  1  0.89712100  0.13188600  0.63369200  1
  C  1197  1  0.90983600  0.11302900  0.62653200  1
  C  1198  1  0.93362200  0.11408300  0.62712600  1
  C  1202  1  0.13220300  0.01491090  0.62473900  1
  C  1203  1  0.13418100  0.03839390  0.62272400  1
  C  1205  1  0.19584700  0.17577100  0.64003900  1
  C  1206  1  0.18008700  0.19276200  0.63999200  1
  C  1207  1  0.15873300  0.18302800  0.63957400  1
  C  1209  1  0.18452300  0.15522900  0.63944500  1
  C  1210  1  0.13813300  0.19516700  0.63991800  1
  C  1211  1  0.13924000  0.21902700  0.64175700  1
  C  1212  1  0.14517400  0.25260200  0.66468900  1
  C  1213  1  0.14341700  0.22912800  0.66279300  1
  C  1219  1  0.32628100  0.13586100  0.63503500  1
  C  1221  1  0.44566500  0.13728900  0.63662500  1
  C  1222  1  0.43284600  0.14849700  0.65302500  1
  C  1223  1  0.40926100  0.14835300  0.65194000  1
  C  1227  1  0.61190500  0.14111600  0.68282400  1
  C  1229  1  0.58631400  0.14101800  0.65521200  1
  C  1230  1  0.57485600  0.14156100  0.67565800  1
  C  1231  1  0.59060000  0.14142300  0.69264900  1
  C  1232  1  0.63195600  0.14234300  0.71838600  1
  C  1233  1  0.62643100  0.16267900  0.72929800  1
  C  1234  1  0.62402800  0.16344700  0.75278700  1
  C  1238  1  0.63275200  0.14124600  0.69445000  1
  C  1239  1  0.67476600  0.14158400  0.69520900  1
  C  1240  1  0.69176100  0.14123400  0.67945200  1
  C  1241  1  0.68201300  0.14044500  0.65812500  1
  C  1243  1  0.65421000  0.14082400  0.68391600  1
  C  1244  1  0.69414200  0.14036700  0.63752900  1
  C  1245  1  0.71801100  0.14206200  0.63851700  1
  C  1246  1  0.75174800  0.16538700  0.64072200  1
  C  1247  1  0.72824300  0.16325200  0.64134400  1
  C  1253  1  0.76573600  0.14646800  0.63721200  1
  C  1254  1  0.78884800  0.14947300  0.63531000  1
  C  1255  1  0.00458494  0.14211600  0.64534900  1
  C  1256  1  0.98150200  0.14459200  0.64765600  1
  C  1258  1  0.93208000  0.15326200  0.64173300  1
  C  1259  1  0.90851000  0.15251800  0.64115900  1
  C  1263  1  0.07611690  0.13875200  0.63964000  1
  C  1264  1  0.08769890  0.15960500  0.63953700  1
  C  1266  1  0.11527900  0.18520400  0.63964100  1
  C  1267  1  0.09481090  0.19663700  0.64024700  1
  C  1268  1  0.07782790  0.18087800  0.64004900  1
  C  1269  1  0.05224490  0.13947100  0.64144400  1
  C  1270  1  0.01857790  0.14480400  0.66437500  1
  C  1271  1  0.04206990  0.14337700  0.66249400  1
  C  1275  1  0.14251600  0.26665800  0.64570300  1
  C  1276  1  0.14537000  0.28970700  0.64797100  1
  C  1278  1  0.15558700  0.36258400  0.64021500  1
  C  1279  1  0.15543900  0.33880500  0.64087400  1
  C  1282  1  0.13603600  0.32635900  0.63515900  1
  C  1285  1  0.14292300  0.50469800  0.64183500  1
  C  1286  1  0.14344000  0.48175100  0.64527200  1
  C  1289  1  0.12251000  0.41054000  0.64971200  1
  C  1290  1  0.12296500  0.43431500  0.64878400  1
  C  1295  1  0.14087100  0.57627800  0.63723200  1
  C  1296  1  0.14048800  0.58789000  0.65806600  1
  C  1298  1  0.13995500  0.61549200  0.68364000  1
  C  1299  1  0.14029300  0.59502400  0.69509000  1
  C  1300  1  0.14043100  0.57803800  0.67935100  1
  C  1301  1  0.14166700  0.55233000  0.63801800  1
  C  1302  1  0.16244400  0.51766300  0.64561900  1
  C  1303  1  0.16188500  0.54118800  0.64350600  1
  C  1307  1  0.12158300  0.51584000  0.63599800  1
  C  1308  1  0.12376600  0.63437700  0.75485100  1
  C  1310  1  0.14093300  0.69480400  0.67423800  1
  C  1311  1  0.14070100  0.67905600  0.69123300  1
  C  1312  1  0.13995100  0.65773300  0.68148300  1
  C  1314  1  0.14016700  0.68349900  0.65368100  1
  C  1315  1  0.14000800  0.63715100  0.69362400  1
  C  1316  1  0.14172500  0.63815700  0.71749100  1
  C  1317  1  0.16511200  0.64049700  0.75117600  1
  C  1318  1  0.16293200  0.64102600  0.72767600  1
  C  1324  1  0.12152800  0.63497200  0.73131200  1
  C  1325  1  0.12483900  0.75537600  0.63516700  1
  C  1328  1  0.14823700  0.86111300  0.64877600  1
  C  1329  1  0.14846100  0.83734500  0.64789300  1
  C  1335  1  0.13272000  0.94497700  0.63501600  1
  C  1338  1  0.12775000  0.00478394  0.64579900  1
  C  1339  1  0.12451600  0.98178600  0.64814600  1
  C  1341  1  0.11298500  0.90901200  0.64113900  1
  C  1342  1  0.11340800  0.93279900  0.64154500  1
  C  1346  1  0.19505400  0.13258400  0.63974400  1
  C  1347  1  0.18346400  0.11173100  0.63955900  1
  C  1349  1  0.15588100  0.08613690  0.63958300  1
  C  1350  1  0.17633800  0.07468990  0.64015300  1
  C  1351  1  0.19332400  0.09044690  0.64001400  1
  C  1352  1  0.21892700  0.13181700  0.64156500  1
  C  1353  1  0.22907300  0.12776200  0.66260400  1
  C  1354  1  0.25253700  0.12587800  0.66444000  1
  C  1359  1  0.26654300  0.12824100  0.64538100  1
  C  1360  1  0.28957300  0.12524900  0.64763400  1
  C  1362  1  0.33881000  0.11548800  0.64123600  1
  C  1363  1  0.36240700  0.11588100  0.64092900  1
  C  1367  1  0.53926700  0.12138500  0.63611100  1
  C  1369  1  0.63352100  0.12258200  0.75506500  1
  C  1370  1  0.73178600  0.12183300  0.63531300  1
  C  1371  1  0.63558600  0.12172900  0.73152700  1
  C  1373  1  0.82539300  0.13247000  0.63560400  1
  C  1374  1  0.83787500  0.11789100  0.64942500  1
  C  1375  1  0.86147600  0.11771500  0.64853500  1
  C  1379  1  0.94496800  0.13332500  0.63498100  1
  C  1382  1  0.13302900  0.07618190  0.63983600  1
  C  1383  1  0.11243400  0.08832290  0.63949900  1
  C  1385  1  0.08665090  0.11611100  0.63936300  1
  C  1386  1  0.07532790  0.09556990  0.64000200  1
  C  1387  1  0.09108390  0.07858290  0.63995700  1
  C  1388  1  0.13187600  0.05233690  0.64176500  1
  C  1389  1  0.12775200  0.04233690  0.66285900  1
  C  1390  1  0.12560100  0.01890290  0.66480100  1
  C  1395  1  0.62754500  0.14401700  0.76595900  1
  C  1397  1  0.62367900  0.14470300  0.78883700  1
  C  1399  1  0.63478000  0.13623100  0.87284000  1
  C  1400  1  0.63673000  0.13716000  0.82515800  1
  C  1401  1  0.65314400  0.14828700  0.83803200  1
  C  1402  1  0.65204100  0.14804900  0.86161400  1
  C  1406  1  0.14747400  0.61911000  0.86035000  1
  C  1407  1  0.14740900  0.62019100  0.83659000  1
  C  1414  1  0.13202700  0.63366900  0.87273400  1
  C  1415  1  0.14622900  0.63698700  0.76521000  1
  C  1416  1  0.14929100  0.63517000  0.78832000  1
  C  1417  1  0.13241500  0.63558000  0.82491400  1
  C  1418  1  0.11788600  0.64944500  0.83740600  1
  C  1419  1  0.11780000  0.64863600  0.86100800  1
  C  1423  1  0.61839500  0.12335300  0.86006100  1
  C  1424  1  0.61955700  0.12400600  0.83630100  1
  C  1431  1  0.63443600  0.13618500  0.89671500  1
  C  1432  1  0.62789100  0.15542200  0.90916700  1
  C  1433  1  0.62816200  0.15454400  0.93295300  1
  C  1440  1  0.13208600  0.63388900  0.89665500  1
  C  1441  1  0.11325500  0.62677100  0.90943200  1
  C  1442  1  0.11437500  0.62739100  0.93320800  1
  C  1446  1  0.14260800  0.64545400  0.00412287  1
  C  1447  1  0.14513900  0.64775300  0.98104800  1
  C  1449  1  0.15356700  0.64194600  0.93155100  1
  C  1450  1  0.15275500  0.64135200  0.90798500  1
  C  1453  1  0.13366200  0.63521900  0.94449800  1
  C  1456  1  0.63511300  0.13390400  0.94453700  1
  C  1457  1  0.64512800  0.12708200  0.00427787  1
  C  1458  1  0.64733400  0.12395100  0.98127000  1
  C  1460  1  0.64116200  0.11475800  0.93188200  1
  C  1461  1  0.64085000  0.11530500  0.90829000  1
  C  1464  1  0.62257100  0.23269300  0.13333200  1
  C  1465  1  0.62448300  0.25620900  0.13160900  1
  C  1467  1  0.63982800  0.19497000  0.13165800  1
  C  1468  1  0.63958700  0.18322400  0.11089500  1
  C  1470  1  0.63945500  0.15545100  0.08550290  1
  C  1471  1  0.64004900  0.17582600  0.07391090  1
  C  1472  1  0.64001600  0.19292600  0.08954290  1
  C  1473  1  0.64164400  0.21884100  0.13071900  1
  C  1474  1  0.66266700  0.22897100  0.12652900  1
  C  1475  1  0.66450600  0.25243400  0.12461000  1
  C  1481  1  0.63528400  0.32618100  0.13391800  1
  C  1482  1  0.64547400  0.26645400  0.12710500  1
  C  1483  1  0.64772200  0.28948800  0.12414500  1
  C  1485  1  0.64141300  0.33882900  0.11479300  1
  C  1486  1  0.64107800  0.36242100  0.11532300  1
  C  1490  1  0.61846200  0.41061900  0.12330900  1
  C  1491  1  0.61958000  0.43438400  0.12395200  1
  C  1497  1  0.13692400  0.62250800  0.03794190  1
  C  1498  1  0.13829800  0.62444400  0.01440890  1
  C  1499  1  0.37381500  0.63397600  0.13198200  1
  C  1500  1  0.36102000  0.62684700  0.11317100  1
  C  1501  1  0.33724200  0.62750700  0.11430300  1
  C  1507  1  0.39773400  0.63370600  0.13191600  1
  C  1508  1  0.51564000  0.63440400  0.12370900  1
  C  1510  1  0.63393200  0.51568400  0.12195500  1
  C  1511  1  0.63627500  0.53919900  0.12117400  1
  C  1513  1  0.75522900  0.63347900  0.12238400  1
  C  1514  1  0.86022800  0.61841000  0.12315300  1
  C  1515  1  0.83646500  0.61955800  0.12381600  1
  C  1521  1  0.01465290  0.62429700  0.13149500  1
  C  1522  1  0.03815290  0.62241400  0.13341700  1
  C  1525  1  0.13884300  0.63978600  0.07564090  1
  C  1526  1  0.15961100  0.63962900  0.08737390  1
  C  1528  1  0.18501300  0.63960800  0.11513500  1
  C  1529  1  0.19659200  0.64024400  0.09475190  1
  C  1530  1  0.18095500  0.64012500  0.07765890  1
  C  1531  1  0.13973100  0.64157000  0.05177190  1
  C  1532  1  0.14534400  0.66446700  0.01812390  1
  C  1533  1  0.14379300  0.66260000  0.04160690  1
  C  1537  1  0.32596900  0.63537600  0.13358200  1
  C  1539  1  0.44555900  0.63553400  0.13231400  1
  C  1540  1  0.43309400  0.64942800  0.11779000  1
  C  1541  1  0.40948700  0.64866400  0.11770400  1
  C  1545  1  0.53917800  0.63514800  0.12148500  1
  C  1546  1  0.63479500  0.75529200  0.12376300  1
  C  1548  1  0.63546400  0.73175100  0.12156700  1
  C  1549  1  0.73169000  0.63556600  0.12152800  1
  C  1552  1  0.94470000  0.63517000  0.13367100  1
  C  1553  1  0.00443094  0.64525900  0.12680800  1
  C  1554  1  0.98141000  0.64748600  0.12375100  1
  C  1556  1  0.93202600  0.64127100  0.11455600  1
  C  1557  1  0.90843300  0.64093700  0.11512000  1
  C  1562  1  0.07586490  0.63971300  0.13212000  1
  C  1563  1  0.08815590  0.63943600  0.11161300  1
  C  1565  1  0.11613000  0.63942600  0.08602690  1
  C  1566  1  0.09566590  0.63994200  0.07456090  1
  C  1567  1  0.07856790  0.63982900  0.09019590  1
  C  1568  1  0.05201090  0.64148500  0.13081000  1
  C  1569  1  0.04190290  0.66247400  0.12640200  1
  C  1570  1  0.01845390  0.66428400  0.12429000  1
  C  1576  1  0.63359200  0.87318200  0.13182900  1
  C  1577  1  0.63565700  0.82536800  0.13225700  1
  C  1578  1  0.64949200  0.83789200  0.11772900  1
  C  1579  1  0.64860900  0.86149400  0.11762300  1
  C  1584  1  0.63377500  0.89710300  0.13190800  1
  C  1585  1  0.62663500  0.90988900  0.11309200  1
  C  1586  1  0.62724000  0.93366700  0.11423100  1
  C  1590  1  0.63507600  0.94494700  0.13351800  1
  C  1592  1  0.62417900  0.13182000  0.01449790  1
  C  1593  1  0.62231000  0.13380300  0.03799190  1
  C  1596  1  0.63962600  0.13252400  0.07570090  1
  C  1597  1  0.63933900  0.11202600  0.08800490  1
  C  1599  1  0.63930000  0.08645490  0.11599200  1
  C  1600  1  0.63986100  0.07497390  0.09553890  1
  C  1601  1  0.63974200  0.09059890  0.07843190  1
  C  1602  1  0.64138400  0.13120100  0.05184690  1
  C  1603  1  0.66236300  0.12675100  0.04173790  1
  C  1604  1  0.66416000  0.12458200  0.01829690  1
  N  7  1  0.50464800  0.02818100  0.02557300  1
  N  21  1  0.48653400  0.23881800  0.04058800  1
  N  25  1  0.50095400  0.16948200  0.00138200  1
  N  35  1  0.50403600  0.33348900  0.00309500  1
  N  44  1  0.26419400  0.46916500  0.02673800  1
  N  50  1  0.47521100  0.47661500  0.00559100  1
  N  62  1  0.52623800  0.47403600  0.00626300  1
  N  82  1  0.76347400  0.48649600  0.04043500  1
  N  91  1  0.02571900  0.50476200  0.02775900  1
  N  114  1  0.47651900  0.52771700  0.00518100  1
  N  127  1  0.52761700  0.52517200  0.00547600  1
  N  143  1  0.66875700  0.50399800  0.00297500  1
  N  146  1  0.97341600  0.50491300  0.02606000  1
  N  160  1  0.46903900  0.73794800  0.02663200  1
  N  180  1  0.50478700  0.97594500  0.02850400  1
  N  202  1  0.04073900  0.48645500  0.23837700  1
  N  206  1  0.00153900  0.50098700  0.16906600  1
  N  219  1  0.48445200  0.95981800  0.23774100  1
  N  223  1  0.50113700  0.99938500  0.16912300  1
  N  228  1  0.46931200  0.02706600  0.26405900  1
  N  241  1  0.97723600  0.46688000  0.26458500  1
  N  248  1  0.00335100  0.50381500  0.33306900  1
  N  257  1  0.50283300  0.99783900  0.33341300  1
  N  266  1  0.23916000  0.04100600  0.48622800  1
  N  276  1  0.47668200  0.00574800  0.47506600  1
  N  290  1  0.52777100  0.00538600  0.47638000  1
  N  303  1  0.73804700  0.02668500  0.46899700  1
  N  323  1  0.00180300  0.33367100  0.49602400  1
  N  329  1  0.00648600  0.47466400  0.47616100  1
  N  345  1  0.00609900  0.52571300  0.47356400  1
  N  366  1  0.99926000  0.66871000  0.49677300  1
  N  381  1  0.26510100  0.97737500  0.46681300  1
  N  396  1  0.76423000  0.95939300  0.48418500  1
  N  404  1  0.02806100  0.02623400  0.50464800  1
  N  416  1  0.16958800  0.00223400  0.50071900  1
  N  422  1  0.33358400  0.00323100  0.50393100  1
  N  424  1  0.47409300  0.00645900  0.52609900  1
  N  438  1  0.52521600  0.00567300  0.52748400  1
  N  461  1  0.97579900  0.02878300  0.50488400  1
  N  477  1  0.04059100  0.24065500  0.51210800  1
  N  480  1  0.99974300  0.16967200  0.50099100  1
  N  488  1  0.97690200  0.26476000  0.53291700  1
  N  493  1  0.00574900  0.47599500  0.52724200  1
  N  509  1  0.00502300  0.52705200  0.52470700  1
  N  527  1  0.02694500  0.73860600  0.53047900  1
  N  532  1  0.99955200  0.83299900  0.50080000  1
  N  540  1  0.95947000  0.76261300  0.51399300  1
  N  544  1  0.02672200  0.97391500  0.50488300  1
  N  574  1  0.66875900  0.99779700  0.50292500  1
  N  576  1  0.83302900  0.99874400  0.50070400  1
  N  580  1  0.97446700  0.97647000  0.50453900  1
  N  601  1  0.50401800  0.00311900  0.66861900  1
  N  605  1  0.02684600  0.46914100  0.73758900  1
  N  618  1  0.99765900  0.50280200  0.66829500  1
  N  622  1  0.46678700  0.97716500  0.73696300  1
  N  631  1  0.48659100  0.04065900  0.76329300  1
  N  633  1  0.50078600  0.00136500  0.83260600  1
  N  640  1  0.95957700  0.48440900  0.76391100  1
  N  650  1  0.99911700  0.50094400  0.83258100  1
  N  665  1  0.50482200  0.02645600  0.97326000  1
  N  689  1  0.46688300  0.26505700  0.97713300  1
  N  699  1  0.23790100  0.48443900  0.95952500  1
  N  713  1  0.73711500  0.46682900  0.97695200  1
  N  723  1  0.02863000  0.50489800  0.97551500  1
  N  734  1  0.16925900  0.50110600  0.99906200  1
  N  740  1  0.33355700  0.50276400  0.99761400  1
  N  756  1  0.83275200  0.50085600  0.99993500  1
  N  760  1  0.97633200  0.50458400  0.97382300  1
  N  778  1  0.50296700  0.66873400  0.99756600  1
  N  784  1  0.48427300  0.76435200  0.95943400  1
  N  787  1  0.50079800  0.83301100  0.99900800  1
  N  794  1  0.50448100  0.97423000  0.97620000  1
  N  811  1  0.63897000  0.16250300  0.15987500  1
  N  825  1  0.62085600  0.37314000  0.17489000  1
  N  829  1  0.63527600  0.30380400  0.13568400  1
  N  839  1  0.63835800  0.46781100  0.13739700  1
  N  848  1  0.39851600  0.60348700  0.16104000  1
  N  854  1  0.60953300  0.61093700  0.13989300  1
  N  866  1  0.66056000  0.60835800  0.14056500  1
  N  886  1  0.89779600  0.62081800  0.17473700  1
  N  895  1  0.16004100  0.63908400  0.16206100  1
  N  918  1  0.61084100  0.66203900  0.13948300  1
  N  931  1  0.66193900  0.65949400  0.13977800  1
  N  947  1  0.80307900  0.63832000  0.13727700  1
  N  950  1  0.10773800  0.63923500  0.16036200  1
  N  964  1  0.60336100  0.87227000  0.16093400  1
  N  984  1  0.63910900  0.11026700  0.16280600  1
  N  1006  1  0.17506100  0.62077700  0.37267900  1
  N  1010  1  0.13586100  0.63530900  0.30336800  1
  N  1023  1  0.61877400  0.09413990  0.37204300  1
  N  1027  1  0.63545900  0.13370700  0.30342500  1
  N  1032  1  0.60363400  0.16138800  0.39836100  1
  N  1045  1  0.11155800  0.60120200  0.39888700  1
  N  1052  1  0.13767300  0.63813700  0.46737100  1
  N  1061  1  0.63715500  0.13216100  0.46771500  1
  N  1070  1  0.37348200  0.17532800  0.62053000  1
  N  1080  1  0.61100400  0.14007000  0.60936800  1
  N  1094  1  0.66209300  0.13970800  0.61068200  1
  N  1107  1  0.87236900  0.16100700  0.60329900  1
  N  1127  1  0.13612500  0.46799300  0.63032600  1
  N  1133  1  0.14080800  0.60898600  0.61046300  1
  N  1149  1  0.14042100  0.66003500  0.60786600  1
  N  1170  1  0.13358200  0.80303200  0.63107500  1
  N  1185  1  0.39942300  0.11169700  0.60111500  1
  N  1200  1  0.89855200  0.09371490  0.61848700  1
  N  1208  1  0.16238300  0.16055600  0.63895000  1
  N  1220  1  0.30391000  0.13655600  0.63502100  1
  N  1226  1  0.46790600  0.13755300  0.63823300  1
  N  1228  1  0.60841500  0.14078100  0.66040100  1
  N  1242  1  0.65953800  0.13999500  0.66178600  1
  N  1265  1  0.11012100  0.16310500  0.63918600  1
  N  1281  1  0.17491300  0.37497700  0.64641000  1
  N  1284  1  0.13406500  0.30399400  0.63529300  1
  N  1292  1  0.11122400  0.39908200  0.66721900  1
  N  1297  1  0.14007100  0.61031700  0.66154400  1
  N  1313  1  0.13934500  0.66137400  0.65900900  1
  N  1331  1  0.16126700  0.87292800  0.66478100  1
  N  1336  1  0.13387400  0.96732100  0.63510200  1
  N  1344  1  0.09379190  0.89693500  0.64829500  1
  N  1348  1  0.16104400  0.10823700  0.63918500  1
  N  1378  1  0.80308100  0.13211900  0.63722700  1
  N  1380  1  0.96735100  0.13306600  0.63500600  1
  N  1384  1  0.10878900  0.11079200  0.63884100  1
  N  1405  1  0.63834000  0.13744100  0.80292100  1
  N  1409  1  0.16116800  0.60346300  0.87189100  1
  N  1422  1  0.13198100  0.63712400  0.80259700  1
  N  1426  1  0.60110900  0.11148700  0.87126500  1
  N  1435  1  0.62091300  0.17498100  0.89759500  1
  N  1437  1  0.63510800  0.13568700  0.96690800  1
  N  1444  1  0.09389890  0.61873100  0.89821300  1
  N  1454  1  0.13343900  0.63526600  0.96688300  1
  N  1469  1  0.63914400  0.16077800  0.10756200  1
  N  1493  1  0.60120500  0.39937900  0.11143500  1
  N  1503  1  0.37222300  0.61876100  0.09382690  1
  N  1517  1  0.87143700  0.60115100  0.11125400  1
  N  1527  1  0.16295200  0.63922000  0.10981700  1
  N  1538  1  0.30358100  0.63542800  0.13336400  1
  N  1544  1  0.46787900  0.63708600  0.13191600  1
  N  1560  1  0.96707400  0.63517800  0.13423700  1
  N  1564  1  0.11065400  0.63890600  0.10812500  1
  N  1582  1  0.63728900  0.80305600  0.13186800  1
  N  1588  1  0.61859500  0.89867400  0.09373590  1
  N  1591  1  0.63512000  0.96733300  0.13331000  1
  N  1598  1  0.63880300  0.10855200  0.11050200  1
  O  22  1  0.49878300  0.23420700  0.05713100  1
  O  23  1  0.46653500  0.23417700  0.04544800  1
  O  40  1  0.26928400  0.44930900  0.02173800  1
  O  45  1  0.26834300  0.47227100  0.04718800  1
  O  78  1  0.76812200  0.46650500  0.04532000  1
  O  83  1  0.76811500  0.49876900  0.05695000  1
  O  161  1  0.47214500  0.73382600  0.04708700  1
  O  163  1  0.44921300  0.73276500  0.02161500  1
  O  203  1  0.05730500  0.49867700  0.23377600  1
  O  204  1  0.04556100  0.46645300  0.23371900  1
  O  220  1  0.49604800  0.94281600  0.23309900  1
  O  221  1  0.46434300  0.95588200  0.23272000  1
  O  224  1  0.44944800  0.02210600  0.26914400  1
  O  229  1  0.47246200  0.04751100  0.26821300  1
  O  237  1  0.98478000  0.44780100  0.26949700  1
  O  242  1  0.95667600  0.46745000  0.26928400  1
  O  267  1  0.23463200  0.05761600  0.49841600  1
  O  268  1  0.23457000  0.04582900  0.46621200  1
  O  304  1  0.73399200  0.04715600  0.47210800  1
  O  305  1  0.73284000  0.02168700  0.44917600  1
  O  313  1  0.05700100  0.23604200  0.49968000  1
  O  377  1  0.27011100  0.98489000  0.44775200  1
  O  382  1  0.26970300  0.95679200  0.46740200  1
  O  391  1  0.76919600  0.95538800  0.46408000  1
  O  397  1  0.76883000  0.94240100  0.49581400  1
  O  479  1  0.04601100  0.23693400  0.53215300  1
  O  484  1  0.98497800  0.26963800  0.55178100  1
  O  489  1  0.95629300  0.26927900  0.53299000  1
  O  528  1  0.04753600  0.73470100  0.52804600  1
  O  529  1  0.02137000  0.73355600  0.55018800  1
  O  533  1  0.95489600  0.76666400  0.53418400  1
  O  541  1  0.94262400  0.76724700  0.50217000  1
  O  606  1  0.04729800  0.47225600  0.73344400  1
  O  608  1  0.02184500  0.44929500  0.73246700  1
  O  623  1  0.46732100  0.95660100  0.73227900  1
  O  624  1  0.44774900  0.98475600  0.73197200  1
  O  626  1  0.46661400  0.04560800  0.76792600  1
  O  632  1  0.49891400  0.05714400  0.76792600  1
  O  635  1  0.95556500  0.46431100  0.76891300  1
  O  641  1  0.94261300  0.49606400  0.76854400  1
  O  685  1  0.44782900  0.27001900  0.98470800  1
  O  690  1  0.46742400  0.26973900  0.95657000  1
  O  700  1  0.23327900  0.49607300  0.94254600  1
  O  701  1  0.23286700  0.46434100  0.95554600  1
  O  714  1  0.73242400  0.46739700  0.95639200  1
  O  715  1  0.73213700  0.44777400  0.98451000  1
  O  779  1  0.46417000  0.76934600  0.95543500  1
  O  785  1  0.49591500  0.76900800  0.94247000  1
  O  826  1  0.63310500  0.36852900  0.19143300  1
  O  827  1  0.60085700  0.36849900  0.17975000  1
  O  844  1  0.40360600  0.58363100  0.15604000  1
  O  849  1  0.40266500  0.60659300  0.18149000  1
  O  882  1  0.90244400  0.60082700  0.17962200  1
  O  887  1  0.90243700  0.63309100  0.19125200  1
  O  965  1  0.60646700  0.86814800  0.18138900  1
  O  967  1  0.58353500  0.86708700  0.15591700  1
  O  1007  1  0.19162700  0.63299900  0.36807800  1
  O  1008  1  0.17988300  0.60077500  0.36802100  1
  O  1024  1  0.63037000  0.07713790  0.36740100  1
  O  1025  1  0.59866500  0.09020390  0.36702200  1
  O  1028  1  0.58377000  0.15642800  0.40344600  1
  O  1033  1  0.60678400  0.18183300  0.40251500  1
  O  1041  1  0.11910200  0.58212300  0.40379900  1
  O  1046  1  0.09099790  0.60177200  0.40358600  1
  O  1071  1  0.36895400  0.19193800  0.63271800  1
  O  1072  1  0.36889200  0.18015100  0.60051400  1
  O  1108  1  0.86831400  0.18147800  0.60641000  1
  O  1109  1  0.86716200  0.15600900  0.58347800  1
  O  1117  1  0.19132300  0.37036400  0.63398200  1
  O  1181  1  0.40443300  0.11921200  0.58205400  1
  O  1186  1  0.40402500  0.09111390  0.60170400  1
  O  1195  1  0.90351800  0.08970990  0.59838200  1
  O  1201  1  0.90315200  0.07672290  0.63011600  1
  O  1283  1  0.18033300  0.37125600  0.66645500  1
  O  1288  1  0.11930000  0.40396000  0.68608300  1
  O  1293  1  0.09061490  0.40360100  0.66729200  1
  O  1332  1  0.18185800  0.86902300  0.66234800  1
  O  1333  1  0.15569200  0.86787800  0.68449000  1
  O  1337  1  0.08921790  0.90098600  0.66848600  1
  O  1345  1  0.07694590  0.90156900  0.63647200  1
  O  1410  1  0.18162000  0.60657800  0.86774600  1
  O  1412  1  0.15616700  0.58361700  0.86676900  1
  O  1427  1  0.60164300  0.09092290  0.86658100  1
  O  1428  1  0.58207100  0.11907800  0.86627400  1
  O  1430  1  0.60093600  0.17993000  0.90222800  1
  O  1436  1  0.63323600  0.19146600  0.90222800  1
  O  1439  1  0.08988690  0.59863300  0.90321500  1
  O  1445  1  0.07693490  0.63038600  0.90284600  1
  O  1489  1  0.58215100  0.40434100  0.11901000  1
  O  1494  1  0.60174600  0.40406100  0.09087190  1
  O  1504  1  0.36760100  0.63039500  0.07684790  1
  O  1505  1  0.36718900  0.59866300  0.08984790  1
  O  1518  1  0.86674600  0.60171900  0.09069390  1
  O  1519  1  0.86645900  0.58209600  0.11881200  1
  O  1583  1  0.59849200  0.90366800  0.08973690  1
  O  1589  1  0.63023700  0.90333000  0.07677190  1
