# generated using pymatgen
data_H27(C17N2)2
_symmetry_space_group_name_H-M   'P 1'
_cell_length_a   25.67660000
_cell_length_b   25.67660000
_cell_length_c   102.70600000
_cell_angle_alpha   90.00000000
_cell_angle_beta   90.00000000
_cell_angle_gamma   90.00000000
_symmetry_Int_Tables_number   1
_chemical_formula_structural   H27(C17N2)2
_chemical_formula_sum   'H648 C816 N96'
_cell_volume   67712.81150914
_cell_formula_units_Z   24
loop_
 _symmetry_equiv_pos_site_id
 _symmetry_equiv_pos_as_xyz
  1  'x, y, z'
loop_
 _atom_site_type_symbol
 _atom_site_label
 _atom_site_symmetry_multiplicity
 _atom_site_fract_x
 _atom_site_fract_y
 _atom_site_fract_z
 _atom_site_occupancy
  H  49  1  0.10310900  0.98796100  0.21083400  1
  H  50  1  0.10334900  0.99025100  0.18746700  1
  H  51  1  0.94430700  0.02969400  0.21099500  1
  H  52  1  0.94422900  0.03123000  0.18763800  1
  H  53  1  0.02100900  0.11612100  0.18081800  1
  H  54  1  0.01994600  0.18653500  0.16366800  1
  H  55  1  0.02574200  0.04590500  0.14518300  1
  H  56  1  0.02537700  0.98196400  0.12883700  1
  H  57  1  0.02540400  0.90600700  0.18056400  1
  H  58  1  0.02717600  0.83704600  0.16291500  1
  H  59  1  0.10414600  0.81316400  0.12998700  1
  H  60  1  0.10479500  0.71971300  0.12895400  1
  H  61  1  0.94768700  0.80972500  0.14251100  1
  H  62  1  0.94884800  0.71630900  0.14173200  1
  H  63  1  0.02263900  0.84125200  0.11035100  1
  H  64  1  0.02331900  0.91170100  0.09319400  1
  H  65  1  0.02588600  0.19084200  0.11110500  1
  H  66  1  0.02456300  0.12193000  0.09347000  1
  H  67  1  0.94513200  0.99468700  0.08640500  1
  H  68  1  0.94459100  0.99802900  0.06305600  1
  H  69  1  0.10297700  0.04040300  0.08653900  1
  H  70  1  0.10199200  0.04471000  0.06318200  1
  H  71  1  0.10194700  0.21524100  0.14455700  1
  H  72  1  0.10147300  0.30868300  0.14588900  1
  H  73  1  0.94700200  0.31124900  0.13205900  1
  H  74  1  0.94673300  0.21773100  0.13106500  1
  H  127  1  0.03624200  0.10326800  0.71086800  1
  H  128  1  0.03413900  0.10356100  0.68750100  1
  H  129  1  0.99453900  0.94446300  0.71098700  1
  H  130  1  0.99318800  0.94443900  0.68762800  1
  H  131  1  0.90830900  0.02082800  0.68075300  1
  H  132  1  0.83807400  0.01998700  0.66356000  1
  H  133  1  0.97884800  0.02658400  0.64516500  1
  H  134  1  0.04287900  0.02630000  0.62883900  1
  H  135  1  0.11842700  0.02545100  0.68062300  1
  H  136  1  0.18752500  0.02742400  0.66300700  1
  H  137  1  0.21179000  0.10501200  0.63021700  1
  H  138  1  0.30524000  0.10549200  0.62919500  1
  H  139  1  0.21487800  0.94824000  0.64249700  1
  H  140  1  0.30830400  0.94923300  0.64173500  1
  H  141  1  0.18378000  0.02440700  0.61044200  1
  H  142  1  0.11355900  0.02581600  0.59324200  1
  H  143  1  0.83421400  0.02763700  0.61100900  1
  H  144  1  0.90325000  0.02696900  0.59339400  1
  H  145  1  0.03153000  0.94826000  0.58610200  1
  H  146  1  0.02917900  0.94909700  0.56273700  1
  H  147  1  0.98432400  0.10562600  0.58670300  1
  H  148  1  0.98085800  0.10594300  0.56333700  1
  H  149  1  0.80949100  0.10247100  0.64461300  1
  H  150  1  0.71606400  0.10180200  0.64597300  1
  H  151  1  0.71368100  0.94776900  0.63184200  1
  H  152  1  0.80719800  0.94768700  0.63081800  1
  H  205  1  0.92026900  0.99869100  0.81324800  1
  H  206  1  0.92042100  0.99938000  0.83661300  1
  H  207  1  0.08276400  0.02286700  0.81317800  1
  H  208  1  0.08297200  0.02318200  0.83648700  1
  H  209  1  0.01201000  0.11580200  0.84334400  1
  H  210  1  0.01321100  0.18610200  0.86055300  1
  H  211  1  0.99640900  0.04585500  0.87882100  1
  H  212  1  0.99521300  0.98117300  0.89524300  1
  H  213  1  0.99268500  0.90652900  0.84343700  1
  H  214  1  0.99125200  0.83727900  0.86105600  1
  H  215  1  0.92488400  0.81317200  0.89568400  1
  H  216  1  0.92413700  0.71974800  0.89672500  1
  H  217  1  0.07629100  0.80900500  0.87975800  1
  H  218  1  0.07504800  0.71563600  0.88060800  1
  H  219  1  0.01773500  0.84117800  0.91326600  1
  H  220  1  0.02020300  0.91178300  0.93046700  1
  H  221  1  0.99209700  0.18960400  0.91295900  1
  H  222  1  0.99484700  0.12018800  0.93055200  1
  H  223  1  0.08904900  0.03527200  0.93640000  1
  H  224  1  0.09241600  0.03907300  0.95975200  1
  H  225  1  0.92905200  0.99852300  0.93822400  1
  H  226  1  0.93248300  0.00242600  0.96154500  1
  H  227  1  0.92580400  0.21441100  0.87836700  1
  H  228  1  0.92601800  0.30784800  0.87707400  1
  H  229  1  0.07676600  0.31126700  0.89326700  1
  H  230  1  0.07733800  0.21779100  0.89425400  1
  H  283  1  0.99625300  0.10344000  0.31318600  1
  H  284  1  0.99681400  0.10355800  0.33654800  1
  H  285  1  0.02460400  0.94162300  0.31323800  1
  H  286  1  0.02485100  0.94169300  0.33654700  1
  H  287  1  0.11553900  0.01588100  0.34334700  1
  H  288  1  0.18578000  0.01499800  0.36055900  1
  H  289  1  0.04519200  0.02706200  0.37888100  1
  H  290  1  0.98102900  0.02522700  0.39520800  1
  H  291  1  0.90584000  0.02699700  0.34339800  1
  H  292  1  0.83657400  0.02885100  0.36100500  1
  H  293  1  0.81215900  0.10374800  0.39405500  1
  H  294  1  0.71870500  0.10422400  0.39506500  1
  H  295  1  0.80900900  0.94767900  0.38122600  1
  H  296  1  0.71559700  0.94866900  0.38198400  1
  H  297  1  0.84006800  0.02248500  0.41356800  1
  H  298  1  0.91021000  0.02361100  0.43078400  1
  H  299  1  0.18964600  0.02634500  0.41306000  1
  H  300  1  0.12062600  0.02549900  0.43066100  1
  H  301  1  0.99123700  0.94648800  0.43787600  1
  H  302  1  0.99452800  0.94661600  0.46126500  1
  H  303  1  0.04075200  0.10318300  0.43745200  1
  H  304  1  0.04549200  0.10257900  0.46082000  1
  H  305  1  0.21416900  0.10015600  0.37910600  1
  H  306  1  0.30757500  0.09966300  0.37771500  1
  H  307  1  0.31048000  0.94657000  0.39246400  1
  H  308  1  0.21697100  0.94628900  0.39352500  1
  H  320  1  0.89753700  0.94852800  0.25260700  1
  H  321  1  0.94065800  0.94700200  0.23952200  1
  H  322  1  0.90330100  0.00370300  0.24273800  1
  H  324  1  0.93514700  0.95750600  0.28648200  1
  H  325  1  0.92860400  0.91875000  0.27258000  1
  H  326  1  0.89384800  0.97851700  0.27411200  1
  H  328  1  0.08752700  0.08023700  0.23779000  1
  H  329  1  0.13167500  0.05520100  0.24908200  1
  H  330  1  0.09686100  0.11355500  0.25237800  1
  H  332  1  0.10598900  0.04763900  0.28628800  1
  H  333  1  0.10635400  0.09804600  0.27493000  1
  H  334  1  0.14010500  0.03895400  0.27176800  1
  H  336  1  0.04144700  0.96090900  0.29094400  1
  H  338  1  0.97826400  0.06185400  0.23250700  1
  H  346  1  0.07547200  0.89763400  0.75264000  1
  H  347  1  0.07702300  0.94073200  0.73955100  1
  H  348  1  0.02031500  0.90337800  0.74276300  1
  H  350  1  0.06623500  0.93518600  0.78651500  1
  H  351  1  0.10511400  0.92863100  0.77263500  1
  H  352  1  0.04529700  0.89393000  0.77412900  1
  H  354  1  0.94375000  0.08758600  0.73779400  1
  H  355  1  0.96880800  0.13176700  0.74907600  1
  H  356  1  0.91045500  0.09696400  0.75238400  1
  H  358  1  0.97640600  0.10617800  0.78628700  1
  H  359  1  0.92597900  0.10652700  0.77493300  1
  H  360  1  0.98507900  0.14025000  0.77176100  1
  H  362  1  0.06317600  0.04142300  0.79095100  1
  H  364  1  0.96226100  0.97835700  0.73250500  1
  H  372  1  0.12421500  0.95227500  0.00120500  1
  H  373  1  0.10466700  0.99790000  0.98960900  1
  H  374  1  0.07571600  0.93513100  0.99012500  1
  H  376  1  0.09833800  0.97018200  0.03554300  1
  H  377  1  0.13238200  0.98964800  0.02172300  1
  H  378  1  0.10357700  0.92657500  0.02252200  1
  H  380  1  0.91693200  0.05764900  0.98854700  1
  H  381  1  0.91107400  0.09676500  0.00227600  1
  H  382  1  0.87935300  0.03528600  0.00165300  1
  H  384  1  0.92414100  0.05110300  0.03789900  1
  H  385  1  0.88321200  0.03190900  0.02515500  1
  H  386  1  0.91416600  0.09382000  0.02500300  1
  H  388  1  0.98489200  0.96376800  0.04176700  1
  H  390  1  0.96819200  0.97100800  0.98264700  1
  H  398  1  0.02360300  0.14823700  0.50301100  1
  H  399  1  0.98111100  0.11877600  0.49208700  1
  H  400  1  0.04946100  0.11097600  0.49030100  1
  H  402  1  0.05659900  0.10499500  0.53555200  1
  H  403  1  0.01425300  0.13944500  0.52536800  1
  H  404  1  0.07925700  0.12533300  0.52041800  1
  H  406  1  0.98722900  0.92039800  0.48766100  1
  H  407  1  0.94905800  0.90279400  0.50108300  1
  H  408  1  0.01687800  0.88903500  0.50068000  1
  H  410  1  0.99549300  0.92120800  0.53698000  1
  H  411  1  0.02297600  0.88847400  0.52370300  1
  H  412  1  0.95535600  0.90318400  0.52413600  1
  H  414  1  0.06452200  0.99288000  0.54149300  1
  H  416  1  0.95347100  0.01055400  0.48241900  1
  H  424  1  0.14835100  0.47777300  0.13998900  1
  H  425  1  0.11900600  0.43423900  0.12929900  1
  H  426  1  0.11096700  0.42687500  0.14637300  1
  H  428  1  0.10522600  0.60814100  0.14805900  1
  H  429  1  0.13961600  0.56713500  0.13753100  1
  H  430  1  0.12548500  0.54768900  0.15380800  1
  H  432  1  0.92059300  0.41645300  0.13073600  1
  H  433  1  0.90297700  0.47025700  0.12123700  1
  H  434  1  0.88918700  0.46841500  0.13818900  1
  H  436  1  0.92125900  0.61369900  0.13295600  1
  H  437  1  0.88858300  0.56047500  0.13978500  1
  H  438  1  0.90326900  0.56243400  0.12288000  1
  H  440  1  0.99332800  0.63154400  0.15025400  1
  H  442  1  0.01096700  0.39556600  0.12234400  1
  H  450  1  0.54691800  0.14858900  0.64001000  1
  H  451  1  0.59041700  0.11924400  0.62931400  1
  H  452  1  0.59788600  0.11127800  0.64638800  1
  H  454  1  0.41674100  0.10532200  0.64822900  1
  H  455  1  0.45750600  0.13978400  0.63765400  1
  H  456  1  0.47727100  0.12564100  0.65390700  1
  H  458  1  0.60832000  0.92085400  0.63075900  1
  H  459  1  0.55448100  0.90323800  0.62127200  1
  H  460  1  0.55640100  0.88941600  0.63822200  1
  H  462  1  0.41108200  0.92144900  0.63303900  1
  H  463  1  0.46435300  0.88877400  0.63984600  1
  H  464  1  0.46229600  0.90350300  0.62294400  1
  H  466  1  0.39322200  0.99341000  0.65032500  1
  H  468  1  0.62907400  0.01115400  0.62233900  1
  H  476  1  0.87672000  0.47710300  0.88402700  1
  H  477  1  0.90598800  0.43392400  0.89482500  1
  H  478  1  0.91429900  0.42613100  0.87777100  1
  H  480  1  0.91938900  0.60786400  0.87625300  1
  H  481  1  0.88532300  0.56632500  0.88670300  1
  H  482  1  0.89925000  0.54756100  0.87036600  1
  H  484  1  0.10445700  0.41617600  0.89350300  1
  H  485  1  0.12220300  0.47037700  0.90283700  1
  H  486  1  0.13583500  0.46776800  0.88588300  1
  H  488  1  0.10401300  0.61331700  0.89075500  1
  H  489  1  0.13647300  0.55971900  0.88405700  1
  H  490  1  0.12204700  0.56249200  0.90096800  1
  H  492  1  0.03046800  0.63065900  0.87348700  1
  H  494  1  0.01380700  0.39539100  0.90182300  1
  H  502  1  0.47663200  0.14754600  0.38390000  1
  H  503  1  0.43330100  0.11821900  0.39464300  1
  H  504  1  0.42573000  0.11000100  0.37758100  1
  H  506  1  0.60707800  0.10465800  0.37583700  1
  H  507  1  0.56601700  0.13899400  0.38636200  1
  H  508  1  0.54657500  0.12476700  0.37009000  1
  H  510  1  0.41581000  0.91975900  0.39330500  1
  H  511  1  0.46976200  0.90227600  0.40276600  1
  H  512  1  0.46771700  0.88838000  0.38582100  1
  H  514  1  0.61302500  0.92068600  0.39092600  1
  H  515  1  0.55975400  0.88791700  0.38414900  1
  H  516  1  0.56192000  0.90267700  0.40104900  1
  H  518  1  0.63063600  0.99276700  0.37363100  1
  H  520  1  0.39492700  0.01028900  0.40168200  1
  H  569  1  0.41467700  0.29952900  0.24004400  1
  H  570  1  0.41491700  0.30181900  0.21667700  1
  H  571  1  0.25587500  0.34126200  0.24020500  1
  H  572  1  0.25579700  0.34279800  0.21684800  1
  H  573  1  0.33257700  0.42768900  0.21002800  1
  H  574  1  0.33151400  0.49810300  0.19287800  1
  H  575  1  0.33731000  0.35747300  0.17439300  1
  H  576  1  0.33694500  0.29353200  0.15804700  1
  H  577  1  0.33697200  0.21757500  0.20977400  1
  H  578  1  0.33874400  0.14861400  0.19212500  1
  H  579  1  0.41571400  0.12473200  0.15919700  1
  H  580  1  0.41636300  0.03128070  0.15816400  1
  H  581  1  0.25925500  0.12129300  0.17172100  1
  H  582  1  0.26041600  0.02787670  0.17094200  1
  H  583  1  0.33420700  0.15282000  0.13956100  1
  H  584  1  0.33488700  0.22326900  0.12240400  1
  H  585  1  0.33745400  0.50241000  0.14031500  1
  H  586  1  0.33613100  0.43349800  0.12268000  1
  H  587  1  0.25670000  0.30625500  0.11561500  1
  H  588  1  0.25615900  0.30959700  0.09226550  1
  H  589  1  0.41454500  0.35197100  0.11574900  1
  H  590  1  0.41356000  0.35627800  0.09239150  1
  H  591  1  0.41351500  0.52680900  0.17376700  1
  H  592  1  0.41304100  0.62025100  0.17509900  1
  H  593  1  0.25857000  0.62281700  0.16126900  1
  H  594  1  0.25830100  0.52929900  0.16027500  1
  H  647  1  0.34781000  0.41483600  0.74007800  1
  H  648  1  0.34570700  0.41512900  0.71671100  1
  H  649  1  0.30610700  0.25603100  0.74019700  1
  H  650  1  0.30475600  0.25600700  0.71683800  1
  H  651  1  0.21987700  0.33239600  0.70996300  1
  H  652  1  0.14964200  0.33155500  0.69277000  1
  H  653  1  0.29041600  0.33815200  0.67437500  1
  H  654  1  0.35444700  0.33786800  0.65804900  1
  H  655  1  0.42999500  0.33701900  0.70983300  1
  H  656  1  0.49909300  0.33899200  0.69221700  1
  H  657  1  0.52335800  0.41658000  0.65942700  1
  H  658  1  0.61680800  0.41706000  0.65840500  1
  H  659  1  0.52644600  0.25980800  0.67170700  1
  H  660  1  0.61987200  0.26080100  0.67094500  1
  H  661  1  0.49534800  0.33597500  0.63965200  1
  H  662  1  0.42512700  0.33738400  0.62245200  1
  H  663  1  0.14578200  0.33920500  0.64021900  1
  H  664  1  0.21481800  0.33853700  0.62260400  1
  H  665  1  0.34309800  0.25982800  0.61531200  1
  H  666  1  0.34074700  0.26066500  0.59194700  1
  H  667  1  0.29589200  0.41719400  0.61591300  1
  H  668  1  0.29242600  0.41751100  0.59254700  1
  H  669  1  0.12105900  0.41403900  0.67382300  1
  H  670  1  0.02763170  0.41337000  0.67518300  1
  H  671  1  0.02524870  0.25933700  0.66105200  1
  H  672  1  0.11876600  0.25925500  0.66002800  1
  H  725  1  0.23183700  0.31025900  0.84245800  1
  H  726  1  0.23198900  0.31094800  0.86582300  1
  H  727  1  0.39433200  0.33443500  0.84238800  1
  H  728  1  0.39454000  0.33475000  0.86569700  1
  H  729  1  0.32357800  0.42737000  0.87255400  1
  H  730  1  0.32477900  0.49767000  0.88976300  1
  H  731  1  0.30797700  0.35742300  0.90803100  1
  H  732  1  0.30678100  0.29274100  0.92445300  1
  H  733  1  0.30425300  0.21809700  0.87264700  1
  H  734  1  0.30282000  0.14884700  0.89026600  1
  H  735  1  0.23645200  0.12474000  0.92489400  1
  H  736  1  0.23570500  0.03131570  0.92593500  1
  H  737  1  0.38785900  0.12057300  0.90896800  1
  H  738  1  0.38661600  0.02720370  0.90981800  1
  H  739  1  0.32930300  0.15274600  0.94247600  1
  H  740  1  0.33177100  0.22335100  0.95967700  1
  H  741  1  0.30366500  0.50117200  0.94216900  1
  H  742  1  0.30641500  0.43175600  0.95976200  1
  H  743  1  0.40061700  0.34684000  0.96561000  1
  H  744  1  0.40398400  0.35064100  0.98896200  1
  H  745  1  0.24062000  0.31009100  0.96743400  1
  H  746  1  0.24405100  0.31399400  0.99075500  1
  H  747  1  0.23737200  0.52597900  0.90757700  1
  H  748  1  0.23758600  0.61941600  0.90628400  1
  H  749  1  0.38833400  0.62283500  0.92247700  1
  H  750  1  0.38890600  0.52935900  0.92346400  1
  H  803  1  0.30782100  0.41500800  0.34239600  1
  H  804  1  0.30838200  0.41512600  0.36575800  1
  H  805  1  0.33617200  0.25319100  0.34244800  1
  H  806  1  0.33641900  0.25326100  0.36575700  1
  H  807  1  0.42710700  0.32744900  0.37255700  1
  H  808  1  0.49734800  0.32656600  0.38976900  1
  H  809  1  0.35676000  0.33863000  0.40809100  1
  H  810  1  0.29259700  0.33679500  0.42441800  1
  H  811  1  0.21740800  0.33856500  0.37260800  1
  H  812  1  0.14814200  0.34041900  0.39021500  1
  H  813  1  0.12372700  0.41531600  0.42326500  1
  H  814  1  0.03027270  0.41579200  0.42427500  1
  H  815  1  0.12057700  0.25924700  0.41043600  1
  H  816  1  0.02716470  0.26023700  0.41119400  1
  H  817  1  0.15163600  0.33405300  0.44277800  1
  H  818  1  0.22177800  0.33517900  0.45999400  1
  H  819  1  0.50121400  0.33791300  0.44227000  1
  H  820  1  0.43219400  0.33706700  0.45987100  1
  H  821  1  0.30280500  0.25805600  0.46708600  1
  H  822  1  0.30609600  0.25818400  0.49047500  1
  H  823  1  0.35232000  0.41475100  0.46666200  1
  H  824  1  0.35706000  0.41414700  0.49003000  1
  H  825  1  0.52573700  0.41172400  0.40831600  1
  H  826  1  0.61914300  0.41123100  0.40692500  1
  H  827  1  0.62204800  0.25813800  0.42167400  1
  H  828  1  0.52853900  0.25785700  0.42273500  1
  H  840  1  0.20910500  0.26009600  0.28181700  1
  H  841  1  0.25222600  0.25857000  0.26873200  1
  H  842  1  0.21486900  0.31527100  0.27194800  1
  H  844  1  0.24671500  0.26907400  0.31569200  1
  H  845  1  0.24017200  0.23031800  0.30179000  1
  H  846  1  0.20541600  0.29008500  0.30332200  1
  H  848  1  0.39909500  0.39180500  0.26700000  1
  H  849  1  0.44324300  0.36676900  0.27829200  1
  H  850  1  0.40842900  0.42512300  0.28158800  1
  H  852  1  0.41755700  0.35920700  0.31549800  1
  H  853  1  0.41792200  0.40961400  0.30414000  1
  H  854  1  0.45167300  0.35052200  0.30097800  1
  H  856  1  0.35301500  0.27247700  0.32015400  1
  H  858  1  0.28983200  0.37342200  0.26171700  1
  H  866  1  0.38704000  0.20920200  0.78185000  1
  H  867  1  0.38859100  0.25230000  0.76876100  1
  H  868  1  0.33188300  0.21494600  0.77197300  1
  H  870  1  0.37780300  0.24675400  0.81572500  1
  H  871  1  0.41668200  0.24019900  0.80184500  1
  H  872  1  0.35686500  0.20549800  0.80333900  1
  H  874  1  0.25531800  0.39915400  0.76700400  1
  H  875  1  0.28037600  0.44333500  0.77828600  1
  H  876  1  0.22202300  0.40853200  0.78159400  1
  H  878  1  0.28797400  0.41774600  0.81549700  1
  H  879  1  0.23754700  0.41809500  0.80414300  1
  H  880  1  0.29664700  0.45181800  0.80097100  1
  H  882  1  0.37474400  0.35299100  0.82016100  1
  H  884  1  0.27382900  0.28992500  0.76171500  1
  H  892  1  0.43578300  0.26384300  0.03041450  1
  H  893  1  0.41623500  0.30946800  0.01881850  1
  H  894  1  0.38728400  0.24669900  0.01933450  1
  H  896  1  0.40990600  0.28175000  0.06475250  1
  H  897  1  0.44395000  0.30121600  0.05093250  1
  H  898  1  0.41514500  0.23814300  0.05173150  1
  H  900  1  0.22850000  0.36921700  0.01775650  1
  H  901  1  0.22264200  0.40833300  0.03148550  1
  H  902  1  0.19092100  0.34685400  0.03086250  1
  H  904  1  0.23570900  0.36267100  0.06710850  1
  H  905  1  0.19478000  0.34347700  0.05436450  1
  H  906  1  0.22573400  0.40538800  0.05421250  1
  H  908  1  0.29646000  0.27533600  0.07097650  1
  H  910  1  0.27976000  0.28257600  0.01185650  1
  H  918  1  0.33517100  0.45980500  0.53222100  1
  H  919  1  0.29267900  0.43034400  0.52129700  1
  H  920  1  0.36102900  0.42254400  0.51951100  1
  H  922  1  0.36816700  0.41656300  0.56476200  1
  H  923  1  0.32582100  0.45101300  0.55457800  1
  H  924  1  0.39082500  0.43690100  0.54962800  1
  H  926  1  0.29879700  0.23196600  0.51687100  1
  H  927  1  0.26062600  0.21436200  0.53029300  1
  H  928  1  0.32844600  0.20060300  0.52989000  1
  H  930  1  0.30706100  0.23277600  0.56619000  1
  H  931  1  0.33454400  0.20004200  0.55291300  1
  H  932  1  0.26692400  0.21475200  0.55334600  1
  H  934  1  0.37609000  0.30444800  0.57070300  1
  H  936  1  0.26503900  0.32212200  0.51162900  1
  H  944  1  0.45991900  0.78934100  0.16919900  1
  H  945  1  0.43057400  0.74580700  0.15850900  1
  H  946  1  0.42253500  0.73844300  0.17558300  1
  H  948  1  0.41679400  0.91970900  0.17726900  1
  H  949  1  0.45118400  0.87870300  0.16674100  1
  H  950  1  0.43705300  0.85925700  0.18301800  1
  H  952  1  0.23216100  0.72802100  0.15994600  1
  H  953  1  0.21454500  0.78182500  0.15044700  1
  H  954  1  0.20075500  0.77998300  0.16739900  1
  H  956  1  0.23282700  0.92526700  0.16216600  1
  H  957  1  0.20015100  0.87204300  0.16899500  1
  H  958  1  0.21483700  0.87400200  0.15209000  1
  H  960  1  0.30489600  0.94311200  0.17946400  1
  H  962  1  0.32253500  0.70713400  0.15155400  1
  H  970  1  0.85848600  0.46015700  0.66922000  1
  H  971  1  0.90198500  0.43081200  0.65852400  1
  H  972  1  0.90945400  0.42284600  0.67559800  1
  H  974  1  0.72830900  0.41689000  0.67743900  1
  H  975  1  0.76907400  0.45135200  0.66686400  1
  H  976  1  0.78883900  0.43720900  0.68311700  1
  H  978  1  0.91988800  0.23242200  0.65996900  1
  H  979  1  0.86604900  0.21480600  0.65048200  1
  H  980  1  0.86796900  0.20098400  0.66743200  1
  H  982  1  0.72265000  0.23301700  0.66224900  1
  H  983  1  0.77592100  0.20034200  0.66905600  1
  H  984  1  0.77386400  0.21507100  0.65215400  1
  H  986  1  0.70479000  0.30497800  0.67953500  1
  H  988  1  0.94064200  0.32272200  0.65154900  1
  H  996  1  0.18828800  0.78867100  0.91323700  1
  H  997  1  0.21755600  0.74549200  0.92403500  1
  H  998  1  0.22586700  0.73769900  0.90698100  1
  H  1000  1  0.23095700  0.91943200  0.90546300  1
  H  1001  1  0.19689100  0.87789300  0.91591300  1
  H  1002  1  0.21081800  0.85912900  0.89957600  1
  H  1004  1  0.41602500  0.72774400  0.92271300  1
  H  1005  1  0.43377100  0.78194500  0.93204700  1
  H  1006  1  0.44740300  0.77933600  0.91509300  1
  H  1008  1  0.41558100  0.92488500  0.91996500  1
  H  1009  1  0.44804100  0.87128700  0.91326700  1
  H  1010  1  0.43361500  0.87406000  0.93017800  1
  H  1012  1  0.34203600  0.94222700  0.90269700  1
  H  1014  1  0.32537500  0.70695900  0.93103300  1
  H  1022  1  0.78820000  0.45911400  0.41311000  1
  H  1023  1  0.74486900  0.42978700  0.42385300  1
  H  1024  1  0.73729800  0.42156900  0.40679100  1
  H  1026  1  0.91864600  0.41622600  0.40504700  1
  H  1027  1  0.87758500  0.45056200  0.41557200  1
  H  1028  1  0.85814300  0.43633500  0.39930000  1
  H  1030  1  0.72737800  0.23132700  0.42251500  1
  H  1031  1  0.78133000  0.21384400  0.43197600  1
  H  1032  1  0.77928500  0.19994800  0.41503100  1
  H  1034  1  0.92459300  0.23225400  0.42013600  1
  H  1035  1  0.87132200  0.19948500  0.41335900  1
  H  1036  1  0.87348800  0.21424500  0.43025900  1
  H  1038  1  0.94220400  0.30433500  0.40284100  1
  H  1040  1  0.70649500  0.32185700  0.43089200  1
  H  1089  1  0.72624400  0.61109600  0.26925300  1
  H  1090  1  0.72648400  0.61338600  0.24588600  1
  H  1091  1  0.56744200  0.65282900  0.26941400  1
  H  1092  1  0.56736400  0.65436500  0.24605700  1
  H  1093  1  0.64414400  0.73925600  0.23923700  1
  H  1094  1  0.64308100  0.80967000  0.22208700  1
  H  1095  1  0.64887700  0.66904000  0.20360200  1
  H  1096  1  0.64851200  0.60509900  0.18725600  1
  H  1097  1  0.64853900  0.52914200  0.23898300  1
  H  1098  1  0.65031100  0.46018100  0.22133400  1
  H  1099  1  0.72728100  0.43629900  0.18840600  1
  H  1100  1  0.72793000  0.34284800  0.18737300  1
  H  1101  1  0.57082200  0.43286000  0.20093000  1
  H  1102  1  0.57198300  0.33944400  0.20015100  1
  H  1103  1  0.64577400  0.46438700  0.16877000  1
  H  1104  1  0.64645400  0.53483600  0.15161300  1
  H  1105  1  0.64902100  0.81397700  0.16952400  1
  H  1106  1  0.64769800  0.74506500  0.15188900  1
  H  1107  1  0.56826700  0.61782200  0.14482400  1
  H  1108  1  0.56772600  0.62116400  0.12147500  1
  H  1109  1  0.72611200  0.66353800  0.14495800  1
  H  1110  1  0.72512700  0.66784500  0.12160100  1
  H  1111  1  0.72508200  0.83837600  0.20297600  1
  H  1112  1  0.72460800  0.93181800  0.20430800  1
  H  1113  1  0.57013700  0.93438400  0.19047800  1
  H  1114  1  0.56986800  0.84086600  0.18948400  1
  H  1167  1  0.65937700  0.72640300  0.76928700  1
  H  1168  1  0.65727400  0.72669600  0.74592000  1
  H  1169  1  0.61767400  0.56759800  0.76940600  1
  H  1170  1  0.61632300  0.56757400  0.74604700  1
  H  1171  1  0.53144400  0.64396300  0.73917200  1
  H  1172  1  0.46120900  0.64312200  0.72197900  1
  H  1173  1  0.60198300  0.64971900  0.70358400  1
  H  1174  1  0.66601400  0.64943500  0.68725800  1
  H  1175  1  0.74156200  0.64858600  0.73904200  1
  H  1176  1  0.81066000  0.65055900  0.72142600  1
  H  1177  1  0.83492500  0.72814700  0.68863600  1
  H  1178  1  0.92837500  0.72862700  0.68761400  1
  H  1179  1  0.83801300  0.57137500  0.70091600  1
  H  1180  1  0.93143900  0.57236800  0.70015400  1
  H  1181  1  0.80691500  0.64754200  0.66886100  1
  H  1182  1  0.73669400  0.64895100  0.65166100  1
  H  1183  1  0.45734900  0.65077200  0.66942800  1
  H  1184  1  0.52638500  0.65010400  0.65181300  1
  H  1185  1  0.65466500  0.57139500  0.64452100  1
  H  1186  1  0.65231400  0.57223200  0.62115600  1
  H  1187  1  0.60745900  0.72876100  0.64512200  1
  H  1188  1  0.60399300  0.72907800  0.62175600  1
  H  1189  1  0.43262600  0.72560600  0.70303200  1
  H  1190  1  0.33919900  0.72493700  0.70439200  1
  H  1191  1  0.33681600  0.57090400  0.69026100  1
  H  1192  1  0.43033300  0.57082200  0.68923700  1
  H  1245  1  0.54340400  0.62182600  0.87166700  1
  H  1246  1  0.54355600  0.62251500  0.89503200  1
  H  1247  1  0.70589900  0.64600200  0.87159700  1
  H  1248  1  0.70610700  0.64631700  0.89490600  1
  H  1249  1  0.63514500  0.73893700  0.90176300  1
  H  1250  1  0.63634600  0.80923700  0.91897200  1
  H  1251  1  0.61954400  0.66899000  0.93724000  1
  H  1252  1  0.61834800  0.60430800  0.95366200  1
  H  1253  1  0.61582000  0.52966400  0.90185600  1
  H  1254  1  0.61438700  0.46041400  0.91947500  1
  H  1255  1  0.54801900  0.43630700  0.95410300  1
  H  1256  1  0.54727200  0.34288300  0.95514400  1
  H  1257  1  0.69942600  0.43214000  0.93817700  1
  H  1258  1  0.69818300  0.33877100  0.93902700  1
  H  1259  1  0.64087000  0.46431300  0.97168500  1
  H  1260  1  0.64333800  0.53491800  0.98888600  1
  H  1261  1  0.61523200  0.81273900  0.97137800  1
  H  1262  1  0.61798200  0.74332300  0.98897100  1
  H  1263  1  0.71218400  0.65840700  0.99481900  1
  H  1264  1  0.71555100  0.66220800  0.01817100  1
  H  1265  1  0.55218700  0.62165800  0.99664300  1
  H  1266  1  0.55561800  0.62556100  0.01996400  1
  H  1267  1  0.54893900  0.83754600  0.93678600  1
  H  1268  1  0.54915300  0.93098300  0.93549300  1
  H  1269  1  0.69990100  0.93440200  0.95168600  1
  H  1270  1  0.70047300  0.84092600  0.95267300  1
  H  1323  1  0.61938800  0.72657500  0.37160500  1
  H  1324  1  0.61994900  0.72669300  0.39496700  1
  H  1325  1  0.64773900  0.56475800  0.37165700  1
  H  1326  1  0.64798600  0.56482800  0.39496600  1
  H  1327  1  0.73867400  0.63901600  0.40176600  1
  H  1328  1  0.80891500  0.63813300  0.41897800  1
  H  1329  1  0.66832700  0.65019700  0.43730000  1
  H  1330  1  0.60416400  0.64836200  0.45362700  1
  H  1331  1  0.52897500  0.65013200  0.40181700  1
  H  1332  1  0.45970900  0.65198600  0.41942400  1
  H  1333  1  0.43529400  0.72688300  0.45247400  1
  H  1334  1  0.34184000  0.72735900  0.45348400  1
  H  1335  1  0.43214400  0.57081400  0.43964500  1
  H  1336  1  0.33873200  0.57180400  0.44040300  1
  H  1337  1  0.46320300  0.64562000  0.47198700  1
  H  1338  1  0.53334500  0.64674600  0.48920300  1
  H  1339  1  0.81278100  0.64948000  0.47147900  1
  H  1340  1  0.74376100  0.64863400  0.48908000  1
  H  1341  1  0.61437200  0.56962300  0.49629500  1
  H  1342  1  0.61766300  0.56975100  0.51968400  1
  H  1343  1  0.66388700  0.72631800  0.49587100  1
  H  1344  1  0.66862700  0.72571400  0.51923900  1
  H  1345  1  0.83730400  0.72329100  0.43752500  1
  H  1346  1  0.93071000  0.72279800  0.43613400  1
  H  1347  1  0.93361500  0.56970500  0.45088300  1
  H  1348  1  0.84010600  0.56942400  0.45194400  1
  H  1360  1  0.52067200  0.57166300  0.31102600  1
  H  1361  1  0.56379300  0.57013700  0.29794100  1
  H  1362  1  0.52643600  0.62683800  0.30115700  1
  H  1364  1  0.55828200  0.58064100  0.34490100  1
  H  1365  1  0.55173900  0.54188500  0.33099900  1
  H  1366  1  0.51698300  0.60165200  0.33253100  1
  H  1368  1  0.71066200  0.70337200  0.29620900  1
  H  1369  1  0.75481000  0.67833600  0.30750100  1
  H  1370  1  0.71999600  0.73669000  0.31079700  1
  H  1372  1  0.72912400  0.67077400  0.34470700  1
  H  1373  1  0.72948900  0.72118100  0.33333333  1
  H  1374  1  0.76324000  0.66208900  0.33018700  1
  H  1376  1  0.66458200  0.58404400  0.34936300  1
  H  1378  1  0.60139900  0.68498900  0.29092600  1
  H  1386  1  0.69860700  0.52076900  0.81105900  1
  H  1387  1  0.70015800  0.56386700  0.79797000  1
  H  1388  1  0.64345000  0.52651300  0.80118200  1
  H  1390  1  0.68937000  0.55832100  0.84493400  1
  H  1391  1  0.72824900  0.55176600  0.83105400  1
  H  1392  1  0.66843200  0.51706500  0.83254800  1
  H  1394  1  0.56688500  0.71072100  0.79621300  1
  H  1395  1  0.59194300  0.75490200  0.80749500  1
  H  1396  1  0.53359000  0.72009900  0.81080300  1
  H  1398  1  0.59954100  0.72931300  0.84470600  1
  H  1399  1  0.54911400  0.72966200  0.83335200  1
  H  1400  1  0.60821400  0.76338500  0.83018000  1
  H  1402  1  0.68631100  0.66455800  0.84937000  1
  H  1404  1  0.58539600  0.60149200  0.79092400  1
  H  1412  1  0.74735000  0.57541000  0.05962400  1
  H  1413  1  0.72780200  0.62103500  0.04802800  1
  H  1414  1  0.69885100  0.55826600  0.04854400  1
  H  1416  1  0.72147300  0.59331700  0.09396200  1
  H  1417  1  0.75551700  0.61278300  0.08014200  1
  H  1418  1  0.72671200  0.54971000  0.08094100  1
  H  1420  1  0.54006700  0.68078400  0.04696600  1
  H  1421  1  0.53420900  0.71990000  0.06069500  1
  H  1422  1  0.50248800  0.65842100  0.06007200  1
  H  1424  1  0.54727600  0.67423800  0.09631800  1
  H  1425  1  0.50634700  0.65504400  0.08357400  1
  H  1426  1  0.53730100  0.71695500  0.08342200  1
  H  1428  1  0.60802700  0.58690300  0.10018600  1
  H  1430  1  0.59132700  0.59414300  0.04106600  1
  H  1438  1  0.64673800  0.77137200  0.56143000  1
  H  1439  1  0.60424600  0.74191100  0.55050600  1
  H  1440  1  0.67259600  0.73411100  0.54872000  1
  H  1442  1  0.67973400  0.72813000  0.59397100  1
  H  1443  1  0.63738800  0.76258000  0.58378700  1
  H  1444  1  0.70239200  0.74846800  0.57883700  1
  H  1446  1  0.61036400  0.54353300  0.54608000  1
  H  1447  1  0.57219300  0.52592900  0.55950200  1
  H  1448  1  0.64001300  0.51217000  0.55909900  1
  H  1450  1  0.61862800  0.54434300  0.59539900  1
  H  1451  1  0.64611100  0.51160900  0.58212200  1
  H  1452  1  0.57849100  0.52631900  0.58255500  1
  H  1454  1  0.68765700  0.61601500  0.59991200  1
  H  1456  1  0.57660600  0.63368900  0.54083800  1
  H  1464  1  0.77148600  0.10090800  0.19840800  1
  H  1465  1  0.74214100  0.05737450  0.18771800  1
  H  1466  1  0.73410200  0.05001050  0.20479200  1
  H  1468  1  0.72836100  0.23127600  0.20647800  1
  H  1469  1  0.76275100  0.19027000  0.19595000  1
  H  1470  1  0.74862000  0.17082400  0.21222700  1
  H  1472  1  0.54372800  0.03958850  0.18915500  1
  H  1473  1  0.52611200  0.09339250  0.17965600  1
  H  1474  1  0.51232200  0.09155050  0.19660800  1
  H  1476  1  0.54439400  0.23683400  0.19137500  1
  H  1477  1  0.51171800  0.18361000  0.19820400  1
  H  1478  1  0.52640400  0.18556900  0.18129900  1
  H  1480  1  0.61646300  0.25467900  0.20867300  1
  H  1482  1  0.63410200  0.01870150  0.18076300  1
  H  1490  1  0.17005300  0.77172400  0.69842900  1
  H  1491  1  0.21355200  0.74237900  0.68773300  1
  H  1492  1  0.22102100  0.73441300  0.70480700  1
  H  1494  1  0.03987650  0.72845700  0.70664800  1
  H  1495  1  0.08064150  0.76291900  0.69607300  1
  H  1496  1  0.10040600  0.74877600  0.71232600  1
  H  1498  1  0.23145500  0.54398900  0.68917800  1
  H  1499  1  0.17761600  0.52637300  0.67969100  1
  H  1500  1  0.17953600  0.51255100  0.69664100  1
  H  1502  1  0.03421750  0.54458400  0.69145800  1
  H  1503  1  0.08748850  0.51190900  0.69826500  1
  H  1504  1  0.08543150  0.52663800  0.68136300  1
  H  1506  1  0.01635750  0.61654500  0.70874400  1
  H  1508  1  0.25220900  0.63428900  0.68075800  1
  H  1516  1  0.49985500  0.10023800  0.94244600  1
  H  1517  1  0.52912300  0.05705950  0.95324400  1
  H  1518  1  0.53743400  0.04926650  0.93619000  1
  H  1520  1  0.54252400  0.23099900  0.93467200  1
  H  1521  1  0.50845800  0.18946000  0.94512200  1
  H  1522  1  0.52238500  0.17069600  0.92878500  1
  H  1524  1  0.72759200  0.03931150  0.95192200  1
  H  1525  1  0.74533800  0.09351250  0.96125600  1
  H  1526  1  0.75897000  0.09090350  0.94430200  1
  H  1528  1  0.72714800  0.23645200  0.94917400  1
  H  1529  1  0.75960800  0.18285400  0.94247600  1
  H  1530  1  0.74518200  0.18562700  0.95938700  1
  H  1532  1  0.65360300  0.25379400  0.93190600  1
  H  1534  1  0.63694200  0.01852650  0.96024200  1
  H  1542  1  0.09976750  0.77068100  0.44231900  1
  H  1543  1  0.05643650  0.74135400  0.45306200  1
  H  1544  1  0.04886550  0.73313600  0.43600000  1
  H  1546  1  0.23021300  0.72779300  0.43425600  1
  H  1547  1  0.18915200  0.76212900  0.44478100  1
  H  1548  1  0.16971000  0.74790200  0.42850900  1
  H  1550  1  0.03894550  0.54289400  0.45172400  1
  H  1551  1  0.09289750  0.52541100  0.46118500  1
  H  1552  1  0.09085250  0.51151500  0.44424000  1
  H  1554  1  0.23616000  0.54382100  0.44934500  1
  H  1555  1  0.18288900  0.51105200  0.44256800  1
  H  1556  1  0.18505500  0.52581200  0.45946800  1
  H  1558  1  0.25377100  0.61590200  0.43205000  1
  H  1560  1  0.01806250  0.63342400  0.46010100  1
  C  1  1  0.02174900  0.10909200  0.17102900  1
  C  2  1  0.02136700  0.14760200  0.16164600  1
  C  3  1  0.02335600  0.12401200  0.14939100  1
  C  5  1  0.02305900  0.06072500  0.16479700  1
  C  6  1  0.02379600  0.01162100  0.17130700  1
  C  7  1  0.02456900  0.96261900  0.16481000  1
  C  9  1  0.02504600  0.90133000  0.14913200  1
  C  10  1  0.02613200  0.87622100  0.16119500  1
  C  11  1  0.02526900  0.91379600  0.17080900  1
  C  12  1  0.02511000  0.87650200  0.13673100  1
  C  13  1  0.02441100  0.90383400  0.12462600  1
  C  15  1  0.02383100  0.96711300  0.10921700  1
  C  16  1  0.02347000  0.91873100  0.10298500  1
  C  17  1  0.02328300  0.88021000  0.11236800  1
  C  18  1  0.02418600  0.01624200  0.10271400  1
  C  19  1  0.02441600  0.06524500  0.10921700  1
  C  21  1  0.02433400  0.12654900  0.12489300  1
  C  22  1  0.02524200  0.15166400  0.11283200  1
  C  23  1  0.02458200  0.11408900  0.10322200  1
  C  24  1  0.02407300  0.15139500  0.13729100  1
  C  25  1  0.02449400  0.20739000  0.13759300  1
  C  26  1  0.97990300  0.23645800  0.13399900  1
  C  27  1  0.98008200  0.29135300  0.13451900  1
  C  28  1  0.02469500  0.31874100  0.13878000  1
  C  29  1  0.06894700  0.28986800  0.14256700  1
  C  30  1  0.06916600  0.23502600  0.14178500  1
  C  31  1  0.02428600  0.01663300  0.08872800  1
  C  32  1  0.97868800  0.00448600  0.08161500  1
  C  33  1  0.97842000  0.00625000  0.06789300  1
  C  34  1  0.02363700  0.02059900  0.06087000  1
  C  35  1  0.06888800  0.03350900  0.06797600  1
  C  36  1  0.06948300  0.03086600  0.08168900  1
  C  37  1  0.02596100  0.82052900  0.13644100  1
  C  38  1  0.07125800  0.79316900  0.13258200  1
  C  39  1  0.07164800  0.73829000  0.13196600  1
  C  40  1  0.02738100  0.70902300  0.13556100  1
  C  41  1  0.98203400  0.73629600  0.13941900  1
  C  42  1  0.98128600  0.79119900  0.13980800  1
  C  43  1  0.02390200  0.01134400  0.18529300  1
  C  44  1  0.06964600  0.99896700  0.19232300  1
  C  45  1  0.97812400  0.02263400  0.19242300  1
  C  46  1  0.97825600  0.02204200  0.20615500  1
  C  47  1  0.02408000  0.00975900  0.21318100  1
  C  48  1  0.06948400  0.99756900  0.20604900  1
  C  79  1  0.91543200  0.02179400  0.67096900  1
  C  80  1  0.87702000  0.02151300  0.66156200  1
  C  81  1  0.90071800  0.02386500  0.64932300  1
  C  83  1  0.96385800  0.02334600  0.66477000  1
  C  84  1  0.01289100  0.02408100  0.67131400  1
  C  85  1  0.06193800  0.02495500  0.66484100  1
  C  87  1  0.12334500  0.02561000  0.64919100  1
  C  88  1  0.14836000  0.02646400  0.66126700  1
  C  89  1  0.11071400  0.02552800  0.67086400  1
  C  90  1  0.14826900  0.02590500  0.63680200  1
  C  91  1  0.12104200  0.02560800  0.62468000  1
  C  93  1  0.05792700  0.02561100  0.60922000  1
  C  94  1  0.10639300  0.02553400  0.60302700  1
  C  95  1  0.14480200  0.02492400  0.61243600  1
  C  96  1  0.00888300  0.02624400  0.60267300  1
  C  97  1  0.95983100  0.02624500  0.60916100  1
  C  99  1  0.89840500  0.02558700  0.62481900  1
  C  100  1  0.87338200  0.02688400  0.61274800  1
  C  101  1  0.91102400  0.02663100  0.60314900  1
  C  102  1  0.87345200  0.02490400  0.63720700  1
  C  103  1  0.81744800  0.02526500  0.63748800  1
  C  104  1  0.78843000  0.98074500  0.63381400  1
  C  105  1  0.73353500  0.98079900  0.63436300  1
  C  106  1  0.70608600  0.02523400  0.63871900  1
  C  107  1  0.73491400  0.06941700  0.64257600  1
  C  108  1  0.78975000  0.06976000  0.64177200  1
  C  109  1  0.00869600  0.02703100  0.58867600  1
  C  110  1  0.02158800  0.98200300  0.58141300  1
  C  111  1  0.02047400  0.98255200  0.56768300  1
  C  112  1  0.00598200  0.02803000  0.56079100  1
  C  113  1  0.99226100  0.07269200  0.56803500  1
  C  114  1  0.99434100  0.07249800  0.58175900  1
  C  115  1  0.20424700  0.02668100  0.63654400  1
  C  116  1  0.23170900  0.07202600  0.63276800  1
  C  117  1  0.28658900  0.07231400  0.63215700  1
  C  118  1  0.31576200  0.02789500  0.63568300  1
  C  119  1  0.28838800  0.98252400  0.63947700  1
  C  120  1  0.23348100  0.98187400  0.63985500  1
  C  121  1  0.01304500  0.02412400  0.68530300  1
  C  122  1  0.02536100  0.06985100  0.69234600  1
  C  123  1  0.00172500  0.97832600  0.69242100  1
  C  124  1  0.00220800  0.97842700  0.70615500  1
  C  125  1  0.01438800  0.02424600  0.71319400  1
  C  126  1  0.02664800  0.06966000  0.70607400  1
  C  157  1  0.00949800  0.10880700  0.85311700  1
  C  158  1  0.01000100  0.14723000  0.86252100  1
  C  159  1  0.00473100  0.12367800  0.87471900  1
  C  161  1  0.00473500  0.06055700  0.85929900  1
  C  162  1  0.00184500  0.01162900  0.85276200  1
  C  163  1  0.99932600  0.96262700  0.85921300  1
  C  165  1  0.99902600  0.90115100  0.87482600  1
  C  166  1  0.99429000  0.87635000  0.86277900  1
  C  167  1  0.99505700  0.91404200  0.85318900  1
  C  168  1  0.00135500  0.87614000  0.88718600  1
  C  169  1  0.00533900  0.90345200  0.89924600  1
  C  171  1  0.00790900  0.96658800  0.91462800  1
  C  172  1  0.01472900  0.91848900  0.92075500  1
  C  173  1  0.01320300  0.87998000  0.91137000  1
  C  174  1  0.00641000  0.01554400  0.92116100  1
  C  175  1  0.00302900  0.06450000  0.91473500  1
  C  177  1  0.00103900  0.12596400  0.89916300  1
  C  178  1  0.99625300  0.15064200  0.91122600  1
  C  179  1  0.99781100  0.11291200  0.92079700  1
  C  180  1  0.00218400  0.15101400  0.88680300  1
  C  181  1  0.00139800  0.20699600  0.88653200  1
  C  182  1  0.04481500  0.23632000  0.89082700  1
  C  183  1  0.04445900  0.29120400  0.89030100  1
  C  184  1  0.00082100  0.31835000  0.88536000  1
  C  185  1  0.95777800  0.28922000  0.88089100  1
  C  186  1  0.95770400  0.23437800  0.88165100  1
  C  187  1  0.00887100  0.01588200  0.93510100  1
  C  188  1  0.05592400  0.02773900  0.94161400  1
  C  189  1  0.05785100  0.03008900  0.95532200  1
  C  190  1  0.01311700  0.02005400  0.96291600  1
  C  191  1  0.96595700  0.00849400  0.95637200  1
  C  192  1  0.96386900  0.00635200  0.94266400  1
  C  193  1  0.00045900  0.82018200  0.88749300  1
  C  194  1  0.95666000  0.79303700  0.89238800  1
  C  195  1  0.95620100  0.73815800  0.89300000  1
  C  196  1  0.99888900  0.70866800  0.88845000  1
  C  197  1  0.04283700  0.73574300  0.88361200  1
  C  198  1  0.04367200  0.79063800  0.88318300  1
  C  199  1  0.00168600  0.01159000  0.83879200  1
  C  200  1  0.95485700  0.00457900  0.83176200  1
  C  201  1  0.04837700  0.01831000  0.83168700  1
  C  202  1  0.04815100  0.01839200  0.81795700  1
  C  203  1  0.00125700  0.01155100  0.81089000  1
  C  204  1  0.95481400  0.00417400  0.81803200  1
  C  235  1  0.10847700  0.01788600  0.35312600  1
  C  236  1  0.14686900  0.01756600  0.36253700  1
  C  237  1  0.12320400  0.02147400  0.37475600  1
  C  239  1  0.06012200  0.02113800  0.35931500  1
  C  240  1  0.01114600  0.02273300  0.35276700  1
  C  241  1  0.96208900  0.02431500  0.35921200  1
  C  243  1  0.90061700  0.02502000  0.37483400  1
  C  244  1  0.87570300  0.02703500  0.36275100  1
  C  245  1  0.91340700  0.02617200  0.35316300  1
  C  246  1  0.87565700  0.02491600  0.38721800  1
  C  247  1  0.90284900  0.02409200  0.39934600  1
  C  249  1  0.96591800  0.02381400  0.41482200  1
  C  250  1  0.91742600  0.02347500  0.42100200  1
  C  251  1  0.87905300  0.02299100  0.41158300  1
  C  252  1  0.01493900  0.02446400  0.42138300  1
  C  253  1  0.06401300  0.02459000  0.41489800  1
  C  255  1  0.12548100  0.02400100  0.39924600  1
  C  256  1  0.15048400  0.02554700  0.41131500  1
  C  257  1  0.11282900  0.02517400  0.42090900  1
  C  258  1  0.15046900  0.02300500  0.38686500  1
  C  259  1  0.20647100  0.02343300  0.38657000  1
  C  260  1  0.23563100  0.97921400  0.39039600  1
  C  261  1  0.29052200  0.97940100  0.38983100  1
  C  262  1  0.31782600  0.02363200  0.38529200  1
  C  263  1  0.28884500  0.06745200  0.38125300  1
  C  264  1  0.23401800  0.06770000  0.38208200  1
  C  265  1  0.01512300  0.02501000  0.43538700  1
  C  266  1  0.00179100  0.97995800  0.44260000  1
  C  267  1  0.00351600  0.98002800  0.45632900  1
  C  268  1  0.01914700  0.02500900  0.46323500  1
  C  269  1  0.03314500  0.06978300  0.45607200  1
  C  270  1  0.03033700  0.07008600  0.44235800  1
  C  271  1  0.81967600  0.02576900  0.38746000  1
  C  272  1  0.79222700  0.07091400  0.39139000  1
  C  273  1  0.73734400  0.07120600  0.39198800  1
  C  274  1  0.70815800  0.02698800  0.38831400  1
  C  275  1  0.73551400  0.98183500  0.38435200  1
  C  276  1  0.79042000  0.98118100  0.38398000  1
  C  277  1  0.01111900  0.02266700  0.33879300  1
  C  278  1  0.00289700  0.06920900  0.33172600  1
  C  279  1  0.01908100  0.97609100  0.33172100  1
  C  280  1  0.01919500  0.97616100  0.31798800  1
  C  281  1  0.01114200  0.02277700  0.31088400  1
  C  282  1  0.00257400  0.06909000  0.31799400  1
  C  313  1  0.01803200  0.00682700  0.27563900  1
  C  314  1  0.97379700  0.98688600  0.26881200  1
  C  315  1  0.96979300  0.99419700  0.25502400  1
  C  316  1  0.00910900  0.02290300  0.24826900  1
  C  317  1  0.05278500  0.04372500  0.25513100  1
  C  318  1  0.05771600  0.03488100  0.26885100  1
  C  319  1  0.92531700  0.97204800  0.24720800  1
  C  323  1  0.93089800  0.95900100  0.27594200  1
  C  327  1  0.09409500  0.07466900  0.24816400  1
  C  331  1  0.10476000  0.05577600  0.27589400  1
  C  335  1  0.02469600  0.99468300  0.28877900  1
  C  337  1  0.00241000  0.03326400  0.23500100  1
  C  339  1  0.01714300  0.01816700  0.77565100  1
  C  340  1  0.03705200  0.97389400  0.76883300  1
  C  341  1  0.02979400  0.96989000  0.75504500  1
  C  342  1  0.00112500  0.00921400  0.74828100  1
  C  343  1  0.98028500  0.05289400  0.75513800  1
  C  344  1  0.98912200  0.05785100  0.76885700  1
  C  345  1  0.05196100  0.92540200  0.74723500  1
  C  349  1  0.06483500  0.93096000  0.77597400  1
  C  353  1  0.94933500  0.09418500  0.74816700  1
  C  357  1  0.96825100  0.10492100  0.77589400  1
  C  361  1  0.02931100  0.02484300  0.78878800  1
  C  363  1  0.99082400  0.00251900  0.73501000  1
  C  365  1  0.00732100  0.00687700  0.02588200  1
  C  366  1  0.05043000  0.98833900  0.01839500  1
  C  367  1  0.04738800  0.98848300  0.00446700  1
  C  368  1  0.00182600  0.00837700  0.99820600  1
  C  369  1  0.96102200  0.03145300  0.00568400  1
  C  370  1  0.96349500  0.03019400  0.01960200  1
  C  371  1  0.09044300  0.96721500  0.99604400  1
  C  375  1  0.09843000  0.96762000  0.02496800  1
  C  379  1  0.91484400  0.05637800  0.99913100  1
  C  383  1  0.91916300  0.05273400  0.02738300  1
  C  387  1  0.00437700  0.99560200  0.03915700  1
  C  389  1  0.99364000  0.99873000  0.98495500  1
  C  391  1  0.01959400  0.01406100  0.52573800  1
  C  392  1  0.02624600  0.06165800  0.51870300  1
  C  393  1  0.01536700  0.06316100  0.50501900  1
  C  394  1  0.00267900  0.01611600  0.49827100  1
  C  395  1  0.99803700  0.96817300  0.50523900  1
  C  396  1  0.00427600  0.96761600  0.51909200  1
  C  397  1  0.01765400  0.11306500  0.49733200  1
  C  401  1  0.04502700  0.11011800  0.52544100  1
  C  405  1  0.98714700  0.91776100  0.49823800  1
  C  409  1  0.99419700  0.91776100  0.52642200  1
  C  413  1  0.03190200  0.01123500  0.53897700  1
  C  415  1  0.99024000  0.01739400  0.48498200  1
  C  417  1  0.01418200  0.56873900  0.13891800  1
  C  418  1  0.06180100  0.54062400  0.14056600  1
  C  419  1  0.06330200  0.48588200  0.13785500  1
  C  420  1  0.01626700  0.45889600  0.13466900  1
  C  421  1  0.96832100  0.48676200  0.13350300  1
  C  422  1  0.96773300  0.54215900  0.13508900  1
  C  423  1  0.11318500  0.45510700  0.13844600  1
  C  427  1  0.11029300  0.56762200  0.14522500  1
  C  431  1  0.91793300  0.45876000  0.13075200  1
  C  435  1  0.91785500  0.57146900  0.13259600  1
  C  439  1  0.01131700  0.62164000  0.14203500  1
  C  441  1  0.01756300  0.40577000  0.13155200  1
  C  443  1  0.45604100  0.01436900  0.63900400  1
  C  444  1  0.48415700  0.06199000  0.64064800  1
  C  445  1  0.53887200  0.06352800  0.63790300  1
  C  446  1  0.56586100  0.01651200  0.63470100  1
  C  447  1  0.53800700  0.96855400  0.63355000  1
  C  448  1  0.48261800  0.96794700  0.63515500  1
  C  449  1  0.56960800  0.11343900  0.63847100  1
  C  453  1  0.45719400  0.11044300  0.64534500  1
  C  457  1  0.56601300  0.91817800  0.63078500  1
  C  461  1  0.45331100  0.91806100  0.63266500  1
  C  465  1  0.40313700  0.01150400  0.64212200  1
  C  467  1  0.61896400  0.01784300  0.63154900  1
  C  469  1  0.01084200  0.56826400  0.88508100  1
  C  470  1  0.96316400  0.54016900  0.88352600  1
  C  471  1  0.96173500  0.48543400  0.88624000  1
  C  472  1  0.00880900  0.45854600  0.88944100  1
  C  473  1  0.05676200  0.48641500  0.89056400  1
  C  474  1  0.05736300  0.54176100  0.88888300  1
  C  475  1  0.91190800  0.45456100  0.88564900  1
  C  479  1  0.91451700  0.56720900  0.87898100  1
  C  483  1  0.10714800  0.45847600  0.89336200  1
  C  487  1  0.10733200  0.57109900  0.89124100  1
  C  491  1  0.01363900  0.62105900  0.88187700  1
  C  493  1  0.00754300  0.40547000  0.89259400  1
  C  495  1  0.56787100  0.01354500  0.38498800  1
  C  496  1  0.53966600  0.06111400  0.38334700  1
  C  497  1  0.48493900  0.06253200  0.38608000  1
  C  498  1  0.45807100  0.01546600  0.38929800  1
  C  499  1  0.48601400  0.96757300  0.39046300  1
  C  500  1  0.54139900  0.96706300  0.38884000  1
  C  501  1  0.45405900  0.11235100  0.38548300  1
  C  505  1  0.56655400  0.10964600  0.37867400  1
  C  509  1  0.45812100  0.91715800  0.39325500  1
  C  513  1  0.57080300  0.91723200  0.39132200  1
  C  517  1  0.62075600  0.01076800  0.38184800  1
  C  519  1  0.40497900  0.01670200  0.39245700  1
  C  521  1  0.33333333  0.42066000  0.20023900  1
  C  522  1  0.33293500  0.45917000  0.19085600  1
  C  523  1  0.33492400  0.43558000  0.17860100  1
  C  525  1  0.33462700  0.37229300  0.19400700  1
  C  526  1  0.33536400  0.32318900  0.20051700  1
  C  527  1  0.33613700  0.27418700  0.19402000  1
  C  529  1  0.33661400  0.21289800  0.17834200  1
  C  530  1  0.33770000  0.18778900  0.19040500  1
  C  531  1  0.33683700  0.22536400  0.20001900  1
  C  532  1  0.33667800  0.18807000  0.16594100  1
  C  533  1  0.33597900  0.21540200  0.15383600  1
  C  535  1  0.33539900  0.27868100  0.13842700  1
  C  536  1  0.33503800  0.23029900  0.13219500  1
  C  537  1  0.33485100  0.19177800  0.14157800  1
  C  538  1  0.33575400  0.32781000  0.13192400  1
  C  539  1  0.33598400  0.37681300  0.13842700  1
  C  541  1  0.33590200  0.43811700  0.15410300  1
  C  542  1  0.33681000  0.46323200  0.14204200  1
  C  543  1  0.33615000  0.42565700  0.13243200  1
  C  544  1  0.33564100  0.46296300  0.16650100  1
  C  545  1  0.33606200  0.51895800  0.16680300  1
  C  546  1  0.29147100  0.54802600  0.16320900  1
  C  547  1  0.29165000  0.60292100  0.16372900  1
  C  548  1  0.33626300  0.63030900  0.16799000  1
  C  549  1  0.38051500  0.60143600  0.17177700  1
  C  550  1  0.38073400  0.54659400  0.17099500  1
  C  551  1  0.33585400  0.32820100  0.11793800  1
  C  552  1  0.29025600  0.31605400  0.11082500  1
  C  553  1  0.28998800  0.31781800  0.09710250  1
  C  554  1  0.33520500  0.33216700  0.09007950  1
  C  555  1  0.38045600  0.34507700  0.09718550  1
  C  556  1  0.38105100  0.34243400  0.11089900  1
  C  557  1  0.33752900  0.13209700  0.16565100  1
  C  558  1  0.38282600  0.10473700  0.16179200  1
  C  559  1  0.38321600  0.04985770  0.16117600  1
  C  560  1  0.33894900  0.02059070  0.16477100  1
  C  561  1  0.29360200  0.04786370  0.16862900  1
  C  562  1  0.29285400  0.10276700  0.16901800  1
  C  563  1  0.33547000  0.32291200  0.21450300  1
  C  564  1  0.38121400  0.31053500  0.22153300  1
  C  565  1  0.28969200  0.33420200  0.22163300  1
  C  566  1  0.28982400  0.33361000  0.23536500  1
  C  567  1  0.33564800  0.32132700  0.24239100  1
  C  568  1  0.38105200  0.30913700  0.23525900  1
  C  599  1  0.22700000  0.33333333  0.70017900  1
  C  600  1  0.18858800  0.33308100  0.69077200  1
  C  601  1  0.21228600  0.33543300  0.67853300  1
  C  603  1  0.27542600  0.33491400  0.69398000  1
  C  604  1  0.32445900  0.33564900  0.70052400  1
  C  605  1  0.37350600  0.33652300  0.69405100  1
  C  607  1  0.43491300  0.33717800  0.67840100  1
  C  608  1  0.45992800  0.33803200  0.69047700  1
  C  609  1  0.42228200  0.33709600  0.70007400  1
  C  610  1  0.45983700  0.33747300  0.66601200  1
  C  611  1  0.43261000  0.33717600  0.65389000  1
  C  613  1  0.36949500  0.33717900  0.63843000  1
  C  614  1  0.41796100  0.33710200  0.63223700  1
  C  615  1  0.45637000  0.33649200  0.64164600  1
  C  616  1  0.32045100  0.33781200  0.63188300  1
  C  617  1  0.27139900  0.33781300  0.63837100  1
  C  619  1  0.20997300  0.33715500  0.65402900  1
  C  620  1  0.18495000  0.33845200  0.64195800  1
  C  621  1  0.22259200  0.33819900  0.63235900  1
  C  622  1  0.18502000  0.33647200  0.66641700  1
  C  623  1  0.12901600  0.33683300  0.66666667  1
  C  624  1  0.09999770  0.29231300  0.66302400  1
  C  625  1  0.04510270  0.29236700  0.66357300  1
  C  626  1  0.01765370  0.33680200  0.66792900  1
  C  627  1  0.04648170  0.38098500  0.67178600  1
  C  628  1  0.10131800  0.38132800  0.67098200  1
  C  629  1  0.32026400  0.33859900  0.61788600  1
  C  630  1  0.33315600  0.29357100  0.61062300  1
  C  631  1  0.33204200  0.29412000  0.59689300  1
  C  632  1  0.31755000  0.33959800  0.59000100  1
  C  633  1  0.30382900  0.38426000  0.59724500  1
  C  634  1  0.30590900  0.38406600  0.61096900  1
  C  635  1  0.51581500  0.33824900  0.66575400  1
  C  636  1  0.54327700  0.38359400  0.66197800  1
  C  637  1  0.59815700  0.38388200  0.66136700  1
  C  638  1  0.62733000  0.33946300  0.66489300  1
  C  639  1  0.59995600  0.29409200  0.66868700  1
  C  640  1  0.54504900  0.29344200  0.66906500  1
  C  641  1  0.32461300  0.33569200  0.71451300  1
  C  642  1  0.33692900  0.38141900  0.72155600  1
  C  643  1  0.31329300  0.28989400  0.72163100  1
  C  644  1  0.31377600  0.28999500  0.73536500  1
  C  645  1  0.32595600  0.33581400  0.74240400  1
  C  646  1  0.33821600  0.38122800  0.73528400  1
  C  677  1  0.32106600  0.42037500  0.88232700  1
  C  678  1  0.32156900  0.45879800  0.89173100  1
  C  679  1  0.31629900  0.43524600  0.90392900  1
  C  681  1  0.31630300  0.37212500  0.88850900  1
  C  682  1  0.31341300  0.32319700  0.88197200  1
  C  683  1  0.31089400  0.27419500  0.88842300  1
  C  685  1  0.31059400  0.21271900  0.90403600  1
  C  686  1  0.30585800  0.18791800  0.89198900  1
  C  687  1  0.30662500  0.22561000  0.88239900  1
  C  688  1  0.31292300  0.18770800  0.91639600  1
  C  689  1  0.31690700  0.21502000  0.92845600  1
  C  691  1  0.31947700  0.27815600  0.94383800  1
  C  692  1  0.32629700  0.23005700  0.94996500  1
  C  693  1  0.32477100  0.19154800  0.94058000  1
  C  694  1  0.31797800  0.32711200  0.95037100  1
  C  695  1  0.31459700  0.37606800  0.94394500  1
  C  697  1  0.31260700  0.43753200  0.92837300  1
  C  698  1  0.30782100  0.46221000  0.94043600  1
  C  699  1  0.30937900  0.42448000  0.95000700  1
  C  700  1  0.31375200  0.46258200  0.91601300  1
  C  701  1  0.31296600  0.51856400  0.91574200  1
  C  702  1  0.35638300  0.54788800  0.92003700  1
  C  703  1  0.35602700  0.60277200  0.91951100  1
  C  704  1  0.31238900  0.62991800  0.91457000  1
  C  705  1  0.26934600  0.60078800  0.91010100  1
  C  706  1  0.26927200  0.54594600  0.91086100  1
  C  707  1  0.32043900  0.32745000  0.96431100  1
  C  708  1  0.36749200  0.33930700  0.97082400  1
  C  709  1  0.36941900  0.34165700  0.98453200  1
  C  710  1  0.32468500  0.33162200  0.99212600  1
  C  711  1  0.27752500  0.32006200  0.98558200  1
  C  712  1  0.27543700  0.31792000  0.97187400  1
  C  713  1  0.31202700  0.13175000  0.91670300  1
  C  714  1  0.26822800  0.10460500  0.92159800  1
  C  715  1  0.26776900  0.04972570  0.92221000  1
  C  716  1  0.31045700  0.02023570  0.91766000  1
  C  717  1  0.35440500  0.04731070  0.91282200  1
  C  718  1  0.35524000  0.10220600  0.91239300  1
  C  719  1  0.31325400  0.32315800  0.86800200  1
  C  720  1  0.26642500  0.31614700  0.86097200  1
  C  721  1  0.35994500  0.32987800  0.86089700  1
  C  722  1  0.35971900  0.32996000  0.84716700  1
  C  723  1  0.31282500  0.32311900  0.84010000  1
  C  724  1  0.26638200  0.31574200  0.84724200  1
  C  755  1  0.42004500  0.32945400  0.38233600  1
  C  756  1  0.45843700  0.32913400  0.39174700  1
  C  757  1  0.43477200  0.33304200  0.40396600  1
  C  759  1  0.37169000  0.33270600  0.38852500  1
  C  760  1  0.32271400  0.33430100  0.38197700  1
  C  761  1  0.27365700  0.33588300  0.38842200  1
  C  763  1  0.21218500  0.33658800  0.40404400  1
  C  764  1  0.18727100  0.33860300  0.39196100  1
  C  765  1  0.22497500  0.33774000  0.38237300  1
  C  766  1  0.18722500  0.33648400  0.41642800  1
  C  767  1  0.21441700  0.33566000  0.42855600  1
  C  769  1  0.27748600  0.33538200  0.44403200  1
  C  770  1  0.22899400  0.33504300  0.45021200  1
  C  771  1  0.19062100  0.33455900  0.44079300  1
  C  772  1  0.32650700  0.33603200  0.45059300  1
  C  773  1  0.37558100  0.33615800  0.44410800  1
  C  775  1  0.43704900  0.33556900  0.42845600  1
  C  776  1  0.46205200  0.33711500  0.44052500  1
  C  777  1  0.42439700  0.33674200  0.45011900  1
  C  778  1  0.46203700  0.33457300  0.41607500  1
  C  779  1  0.51803900  0.33500100  0.41578000  1
  C  780  1  0.54719900  0.29078200  0.41960600  1
  C  781  1  0.60209000  0.29096900  0.41904100  1
  C  782  1  0.62939400  0.33520000  0.41450200  1
  C  783  1  0.60041300  0.37902000  0.41046300  1
  C  784  1  0.54558600  0.37926800  0.41129200  1
  C  785  1  0.32669100  0.33657800  0.46459700  1
  C  786  1  0.31335900  0.29152600  0.47181000  1
  C  787  1  0.31508400  0.29159600  0.48553900  1
  C  788  1  0.33071500  0.33657700  0.49244500  1
  C  789  1  0.34471300  0.38135100  0.48528200  1
  C  790  1  0.34190500  0.38165400  0.47156800  1
  C  791  1  0.13124400  0.33733700  0.41667000  1
  C  792  1  0.10379500  0.38248200  0.42060000  1
  C  793  1  0.04891170  0.38277400  0.42119800  1
  C  794  1  0.01972570  0.33855600  0.41752400  1
  C  795  1  0.04708170  0.29340300  0.41356200  1
  C  796  1  0.10198800  0.29274900  0.41319000  1
  C  797  1  0.32268700  0.33423500  0.36800300  1
  C  798  1  0.31446500  0.38077700  0.36093600  1
  C  799  1  0.33064900  0.28765900  0.36093100  1
  C  800  1  0.33076300  0.28772900  0.34719800  1
  C  801  1  0.32271000  0.33434500  0.34009400  1
  C  802  1  0.31414200  0.38065800  0.34720400  1
  C  833  1  0.32960000  0.31839500  0.30484900  1
  C  834  1  0.28536500  0.29845400  0.29802200  1
  C  835  1  0.28136100  0.30576500  0.28423400  1
  C  836  1  0.32067700  0.33447100  0.27747900  1
  C  837  1  0.36435300  0.35529300  0.28434100  1
  C  838  1  0.36928400  0.34644900  0.29806100  1
  C  839  1  0.23688500  0.28361600  0.27641800  1
  C  843  1  0.24246600  0.27056900  0.30515200  1
  C  847  1  0.40566300  0.38623700  0.27737400  1
  C  851  1  0.41632800  0.36734400  0.30510400  1
  C  855  1  0.33626400  0.30625100  0.31798900  1
  C  857  1  0.31397800  0.34483200  0.26421100  1
  C  859  1  0.32871100  0.32973500  0.80486100  1
  C  860  1  0.34862000  0.28546200  0.79804300  1
  C  861  1  0.34136200  0.28145800  0.78425500  1
  C  862  1  0.31269300  0.32078200  0.77749100  1
  C  863  1  0.29185300  0.36446200  0.78434800  1
  C  864  1  0.30069000  0.36941900  0.79806700  1
  C  865  1  0.36352900  0.23697000  0.77644500  1
  C  869  1  0.37640300  0.24252800  0.80518400  1
  C  873  1  0.26090300  0.40575300  0.77737700  1
  C  877  1  0.27981900  0.41648900  0.80510400  1
  C  881  1  0.34087900  0.33641100  0.81799800  1
  C  883  1  0.30239200  0.31408700  0.76422000  1
  C  885  1  0.31888900  0.31844500  0.05509150  1
  C  886  1  0.36199800  0.29990700  0.04760450  1
  C  887  1  0.35895600  0.30005100  0.03367650  1
  C  888  1  0.31339400  0.31994500  0.02741550  1
  C  889  1  0.27259000  0.34302100  0.03489350  1
  C  890  1  0.27506300  0.34176200  0.04881150  1
  C  891  1  0.40201100  0.27878300  0.02525350  1
  C  895  1  0.40999800  0.27918800  0.05417750  1
  C  899  1  0.22641200  0.36794600  0.02834050  1
  C  903  1  0.23073100  0.36430200  0.05659250  1
  C  907  1  0.31594500  0.30717000  0.06836650  1
  C  909  1  0.30520800  0.31029800  0.01416450  1
  C  911  1  0.33116200  0.32562900  0.55494800  1
  C  912  1  0.33781400  0.37322600  0.54791300  1
  C  913  1  0.32693500  0.37472900  0.53422900  1
  C  914  1  0.31424700  0.32768400  0.52748100  1
  C  915  1  0.30960500  0.27974100  0.53444900  1
  C  916  1  0.31584400  0.27918400  0.54830200  1
  C  917  1  0.32922200  0.42463300  0.52654200  1
  C  921  1  0.35659500  0.42168600  0.55465100  1
  C  925  1  0.29871500  0.22932900  0.52744800  1
  C  929  1  0.30576500  0.22932900  0.55563200  1
  C  933  1  0.34347000  0.32280300  0.56818700  1
  C  935  1  0.30180800  0.32896200  0.51419200  1
  C  937  1  0.32575000  0.88030700  0.16812800  1
  C  938  1  0.37336900  0.85219200  0.16977600  1
  C  939  1  0.37487000  0.79745000  0.16706500  1
  C  940  1  0.32783500  0.77046400  0.16387900  1
  C  941  1  0.27988900  0.79833000  0.16271300  1
  C  942  1  0.27930100  0.85372700  0.16429900  1
  C  943  1  0.42475300  0.76667500  0.16765600  1
  C  947  1  0.42186100  0.87919000  0.17443500  1
  C  951  1  0.22950100  0.77032800  0.15996200  1
  C  955  1  0.22942300  0.88303700  0.16180600  1
  C  959  1  0.32288500  0.93320800  0.17124500  1
  C  961  1  0.32913100  0.71733800  0.16076200  1
  C  963  1  0.76760900  0.32593700  0.66821400  1
  C  964  1  0.79572500  0.37355800  0.66985800  1
  C  965  1  0.85044000  0.37509600  0.66711300  1
  C  966  1  0.87742900  0.32808000  0.66391100  1
  C  967  1  0.84957500  0.28012200  0.66276000  1
  C  968  1  0.79418600  0.27951500  0.66436500  1
  C  969  1  0.88117600  0.42500700  0.66768100  1
  C  973  1  0.76876200  0.42201100  0.67455500  1
  C  977  1  0.87758100  0.22974600  0.65999500  1
  C  981  1  0.76487900  0.22962900  0.66187500  1
  C  985  1  0.71470500  0.32307200  0.67133200  1
  C  987  1  0.93053200  0.32941100  0.66075900  1
  C  989  1  0.32241000  0.87983200  0.91429100  1
  C  990  1  0.27473200  0.85173700  0.91273600  1
  C  991  1  0.27330300  0.79700200  0.91545000  1
  C  992  1  0.32037700  0.77011400  0.91865100  1
  C  993  1  0.36833000  0.79798300  0.91977400  1
  C  994  1  0.36893100  0.85332900  0.91809300  1
  C  995  1  0.22347600  0.76612900  0.91485900  1
  C  999  1  0.22608500  0.87877700  0.90819100  1
  C  1003  1  0.41871600  0.77004400  0.92257200  1
  C  1007  1  0.41890000  0.88266700  0.92045100  1
  C  1011  1  0.32520700  0.93262700  0.91108700  1
  C  1013  1  0.31911100  0.71703800  0.92180400  1
  C  1015  1  0.87943900  0.32511300  0.41419800  1
  C  1016  1  0.85123400  0.37268200  0.41255700  1
  C  1017  1  0.79650700  0.37410000  0.41529000  1
  C  1018  1  0.76963900  0.32703400  0.41850800  1
  C  1019  1  0.79758200  0.27914100  0.41967300  1
  C  1020  1  0.85296700  0.27863100  0.41805000  1
  C  1021  1  0.76562700  0.42391900  0.41469300  1
  C  1025  1  0.87812200  0.42121400  0.40788400  1
  C  1029  1  0.76968900  0.22872600  0.42246500  1
  C  1033  1  0.88237100  0.22880000  0.42053200  1
  C  1037  1  0.93232400  0.32233600  0.41105800  1
  C  1039  1  0.71654700  0.32827000  0.42166700  1
  C  1041  1  0.64488400  0.73222700  0.22944800  1
  C  1042  1  0.64450200  0.77073700  0.22006500  1
  C  1043  1  0.64649100  0.74714700  0.20781000  1
  C  1045  1  0.64619400  0.68386000  0.22321600  1
  C  1046  1  0.64693100  0.63475600  0.22972600  1
  C  1047  1  0.64770400  0.58575400  0.22322900  1
  C  1049  1  0.64818100  0.52446500  0.20755100  1
  C  1050  1  0.64926700  0.49935600  0.21961400  1
  C  1051  1  0.64840400  0.53693100  0.22922800  1
  C  1052  1  0.64824500  0.49963700  0.19515000  1
  C  1053  1  0.64754600  0.52696900  0.18304500  1
  C  1055  1  0.64696600  0.59024800  0.16763600  1
  C  1056  1  0.64660500  0.54186600  0.16140400  1
  C  1057  1  0.64641800  0.50334500  0.17078700  1
  C  1058  1  0.64732100  0.63937700  0.16113300  1
  C  1059  1  0.64755100  0.68838000  0.16763600  1
  C  1061  1  0.64746900  0.74968400  0.18331200  1
  C  1062  1  0.64837700  0.77479900  0.17125100  1
  C  1063  1  0.64771700  0.73722400  0.16164100  1
  C  1064  1  0.64720800  0.77453000  0.19571000  1
  C  1065  1  0.64762900  0.83052500  0.19601200  1
  C  1066  1  0.60303800  0.85959300  0.19241800  1
  C  1067  1  0.60321700  0.91448800  0.19293800  1
  C  1068  1  0.64783000  0.94187600  0.19719900  1
  C  1069  1  0.69208200  0.91300300  0.20098600  1
  C  1070  1  0.69230100  0.85816100  0.20020400  1
  C  1071  1  0.64742100  0.63976800  0.14714700  1
  C  1072  1  0.60182300  0.62762100  0.14003400  1
  C  1073  1  0.60155500  0.62938500  0.12631200  1
  C  1074  1  0.64677200  0.64373400  0.11928900  1
  C  1075  1  0.69202300  0.65664400  0.12639500  1
  C  1076  1  0.69261800  0.65400100  0.14010800  1
  C  1077  1  0.64909600  0.44366400  0.19486000  1
  C  1078  1  0.69439300  0.41630400  0.19100100  1
  C  1079  1  0.69478300  0.36142500  0.19038500  1
  C  1080  1  0.65051600  0.33215800  0.19398000  1
  C  1081  1  0.60516900  0.35943100  0.19783800  1
  C  1082  1  0.60442100  0.41433400  0.19822700  1
  C  1083  1  0.64703700  0.63447900  0.24371200  1
  C  1084  1  0.69278100  0.62210200  0.25074200  1
  C  1085  1  0.60125900  0.64576900  0.25084200  1
  C  1086  1  0.60139100  0.64517700  0.26457400  1
  C  1087  1  0.64721500  0.63289400  0.27160000  1
  C  1088  1  0.69261900  0.62070400  0.26446800  1
  C  1119  1  0.53856700  0.64492900  0.72938800  1
  C  1120  1  0.50015500  0.64464800  0.71998100  1
  C  1121  1  0.52385300  0.64700000  0.70774200  1
  C  1123  1  0.58699300  0.64648100  0.72318900  1
  C  1124  1  0.63602600  0.64721600  0.72973300  1
  C  1125  1  0.68507300  0.64809000  0.72326000  1
  C  1127  1  0.74648000  0.64874500  0.70761000  1
  C  1128  1  0.77149500  0.64959900  0.71968600  1
  C  1129  1  0.73384900  0.64866300  0.72928300  1
  C  1130  1  0.77140400  0.64904000  0.69522100  1
  C  1131  1  0.74417700  0.64874300  0.68309900  1
  C  1133  1  0.68106200  0.64874600  0.66763900  1
  C  1134  1  0.72952800  0.64866900  0.66144600  1
  C  1135  1  0.76793700  0.64805900  0.67085500  1
  C  1136  1  0.63201800  0.64937900  0.66109200  1
  C  1137  1  0.58296600  0.64938000  0.66758000  1
  C  1139  1  0.52154000  0.64872200  0.68323800  1
  C  1140  1  0.49651700  0.65001900  0.67116700  1
  C  1141  1  0.53415900  0.64976600  0.66156800  1
  C  1142  1  0.49658700  0.64803900  0.69562600  1
  C  1143  1  0.44058300  0.64840000  0.69590700  1
  C  1144  1  0.41156500  0.60388000  0.69223300  1
  C  1145  1  0.35667000  0.60393400  0.69278200  1
  C  1146  1  0.32922100  0.64836900  0.69713800  1
  C  1147  1  0.35804900  0.69255200  0.70099500  1
  C  1148  1  0.41288500  0.69289500  0.70019100  1
  C  1149  1  0.63183100  0.65016600  0.64709500  1
  C  1150  1  0.64472300  0.60513800  0.63983200  1
  C  1151  1  0.64360900  0.60568700  0.62610200  1
  C  1152  1  0.62911700  0.65116500  0.61921000  1
  C  1153  1  0.61539600  0.69582700  0.62645400  1
  C  1154  1  0.61747600  0.69563300  0.64017800  1
  C  1155  1  0.82738200  0.64981600  0.69496300  1
  C  1156  1  0.85484400  0.69516100  0.69118700  1
  C  1157  1  0.90972400  0.69544900  0.69057600  1
  C  1158  1  0.93889700  0.65103000  0.69410200  1
  C  1159  1  0.91152300  0.60565900  0.69789600  1
  C  1160  1  0.85661600  0.60500900  0.69827400  1
  C  1161  1  0.63618000  0.64725900  0.74372200  1
  C  1162  1  0.64849600  0.69298600  0.75076500  1
  C  1163  1  0.62486000  0.60146100  0.75084000  1
  C  1164  1  0.62534300  0.60156200  0.76457400  1
  C  1165  1  0.63752300  0.64738100  0.77161300  1
  C  1166  1  0.64978300  0.69279500  0.76449300  1
  C  1197  1  0.63263300  0.73194200  0.91153600  1
  C  1198  1  0.63313600  0.77036500  0.92094000  1
  C  1199  1  0.62786600  0.74681300  0.93313800  1
  C  1201  1  0.62787000  0.68369200  0.91771800  1
  C  1202  1  0.62498000  0.63476400  0.91118100  1
  C  1203  1  0.62246100  0.58576200  0.91763200  1
  C  1205  1  0.62216100  0.52428600  0.93324500  1
  C  1206  1  0.61742500  0.49948500  0.92119800  1
  C  1207  1  0.61819200  0.53717700  0.91160800  1
  C  1208  1  0.62449000  0.49927500  0.94560500  1
  C  1209  1  0.62847400  0.52658700  0.95766500  1
  C  1211  1  0.63104400  0.58972300  0.97304700  1
  C  1212  1  0.63786400  0.54162400  0.97917400  1
  C  1213  1  0.63633800  0.50311500  0.96978900  1
  C  1214  1  0.62954500  0.63867900  0.97958000  1
  C  1215  1  0.62616400  0.68763500  0.97315400  1
  C  1217  1  0.62417400  0.74909900  0.95758200  1
  C  1218  1  0.61938800  0.77377700  0.96964500  1
  C  1219  1  0.62094600  0.73604700  0.97921600  1
  C  1220  1  0.62531900  0.77414900  0.94522200  1
  C  1221  1  0.62453300  0.83013100  0.94495100  1
  C  1222  1  0.66795000  0.85945500  0.94924600  1
  C  1223  1  0.66759400  0.91433900  0.94872000  1
  C  1224  1  0.62395600  0.94148500  0.94377900  1
  C  1225  1  0.58091300  0.91235500  0.93931000  1
  C  1226  1  0.58083900  0.85751300  0.94007000  1
  C  1227  1  0.63200600  0.63901700  0.99352000  1
  C  1228  1  0.67905900  0.65087400  0.00003301  1
  C  1229  1  0.68098600  0.65322400  0.01374100  1
  C  1230  1  0.63625200  0.64318900  0.02133500  1
  C  1231  1  0.58909200  0.63162900  0.01479100  1
  C  1232  1  0.58700400  0.62948700  0.00108301  1
  C  1233  1  0.62359400  0.44331700  0.94591200  1
  C  1234  1  0.57979500  0.41617200  0.95080700  1
  C  1235  1  0.57933600  0.36129300  0.95141900  1
  C  1236  1  0.62202400  0.33180300  0.94686900  1
  C  1237  1  0.66597200  0.35887800  0.94203100  1
  C  1238  1  0.66680700  0.41377300  0.94160200  1
  C  1239  1  0.62482100  0.63472500  0.89721100  1
  C  1240  1  0.57799200  0.62771400  0.89018100  1
  C  1241  1  0.67151200  0.64144500  0.89010600  1
  C  1242  1  0.67128600  0.64152700  0.87637600  1
  C  1243  1  0.62439200  0.63468600  0.86930900  1
  C  1244  1  0.57794900  0.62730900  0.87645100  1
  C  1275  1  0.73161200  0.64102100  0.41154500  1
  C  1276  1  0.77000400  0.64070100  0.42095600  1
  C  1277  1  0.74633900  0.64460900  0.43317500  1
  C  1279  1  0.68325700  0.64427300  0.41773400  1
  C  1280  1  0.63428100  0.64586800  0.41118600  1
  C  1281  1  0.58522400  0.64745000  0.41763100  1
  C  1283  1  0.52375200  0.64815500  0.43325300  1
  C  1284  1  0.49883800  0.65017000  0.42117000  1
  C  1285  1  0.53654200  0.64930700  0.41158200  1
  C  1286  1  0.49879200  0.64805100  0.44563700  1
  C  1287  1  0.52598400  0.64722700  0.45776500  1
  C  1289  1  0.58905300  0.64694900  0.47324100  1
  C  1290  1  0.54056100  0.64661000  0.47942100  1
  C  1291  1  0.50218800  0.64612600  0.47000200  1
  C  1292  1  0.63807400  0.64759900  0.47980200  1
  C  1293  1  0.68714800  0.64772500  0.47331700  1
  C  1295  1  0.74861600  0.64713600  0.45766500  1
  C  1296  1  0.77361900  0.64868200  0.46973400  1
  C  1297  1  0.73596400  0.64830900  0.47932800  1
  C  1298  1  0.77360400  0.64614000  0.44528400  1
  C  1299  1  0.82960600  0.64656800  0.44498900  1
  C  1300  1  0.85876600  0.60234900  0.44881500  1
  C  1301  1  0.91365700  0.60253600  0.44825000  1
  C  1302  1  0.94096100  0.64676700  0.44371100  1
  C  1303  1  0.91198000  0.69058700  0.43967200  1
  C  1304  1  0.85715300  0.69083500  0.44050100  1
  C  1305  1  0.63825800  0.64814500  0.49380600  1
  C  1306  1  0.62492600  0.60309300  0.50101900  1
  C  1307  1  0.62665100  0.60316300  0.51474800  1
  C  1308  1  0.64228200  0.64814400  0.52165400  1
  C  1309  1  0.65628000  0.69291800  0.51449100  1
  C  1310  1  0.65347200  0.69322100  0.50077700  1
  C  1311  1  0.44281100  0.64890400  0.44587900  1
  C  1312  1  0.41536200  0.69404900  0.44980900  1
  C  1313  1  0.36047900  0.69434100  0.45040700  1
  C  1314  1  0.33129300  0.65012300  0.44673300  1
  C  1315  1  0.35864900  0.60497000  0.44277100  1
  C  1316  1  0.41355500  0.60431600  0.44239900  1
  C  1317  1  0.63425400  0.64580200  0.39721200  1
  C  1318  1  0.62603200  0.69234400  0.39014500  1
  C  1319  1  0.64221600  0.59922600  0.39014000  1
  C  1320  1  0.64233000  0.59929600  0.37640700  1
  C  1321  1  0.63427700  0.64591200  0.36930300  1
  C  1322  1  0.62570900  0.69222500  0.37641300  1
  C  1353  1  0.64116700  0.62996200  0.33405800  1
  C  1354  1  0.59693200  0.61002100  0.32723100  1
  C  1355  1  0.59292800  0.61733200  0.31344300  1
  C  1356  1  0.63224400  0.64603800  0.30668800  1
  C  1357  1  0.67592000  0.66686000  0.31355000  1
  C  1358  1  0.68085100  0.65801600  0.32727000  1
  C  1359  1  0.54845200  0.59518300  0.30562700  1
  C  1363  1  0.55403300  0.58213600  0.33436100  1
  C  1367  1  0.71723000  0.69780400  0.30658300  1
  C  1371  1  0.72789500  0.67891100  0.33431300  1
  C  1375  1  0.64783100  0.61781800  0.34719800  1
  C  1377  1  0.62554500  0.65639900  0.29342000  1
  C  1379  1  0.64027800  0.64130200  0.83407000  1
  C  1380  1  0.66018700  0.59702900  0.82725200  1
  C  1381  1  0.65292900  0.59302500  0.81346400  1
  C  1382  1  0.62426000  0.63234900  0.80670000  1
  C  1383  1  0.60342000  0.67602900  0.81355700  1
  C  1384  1  0.61225700  0.68098600  0.82727600  1
  C  1385  1  0.67509600  0.54853700  0.80565400  1
  C  1389  1  0.68797000  0.55409500  0.83439300  1
  C  1393  1  0.57247000  0.71732000  0.80658600  1
  C  1397  1  0.59138600  0.72805600  0.83431300  1
  C  1401  1  0.65244600  0.64797800  0.84720700  1
  C  1403  1  0.61395900  0.62565400  0.79342900  1
  C  1405  1  0.63045600  0.63001200  0.08430100  1
  C  1406  1  0.67356500  0.61147400  0.07681400  1
  C  1407  1  0.67052300  0.61161800  0.06288600  1
  C  1408  1  0.62496100  0.63151200  0.05662500  1
  C  1409  1  0.58415700  0.65458800  0.06410300  1
  C  1410  1  0.58663000  0.65332900  0.07802100  1
  C  1411  1  0.71357800  0.59035000  0.05446300  1
  C  1415  1  0.72156500  0.59075500  0.08338700  1
  C  1419  1  0.53797900  0.67951300  0.05755000  1
  C  1423  1  0.54229800  0.67586900  0.08580200  1
  C  1427  1  0.62751200  0.61873700  0.09757600  1
  C  1429  1  0.61677500  0.62186500  0.04337400  1
  C  1431  1  0.64272900  0.63719600  0.58415700  1
  C  1432  1  0.64938100  0.68479300  0.57712200  1
  C  1433  1  0.63850200  0.68629600  0.56343800  1
  C  1434  1  0.62581400  0.63925100  0.55669000  1
  C  1435  1  0.62117200  0.59130800  0.56365800  1
  C  1436  1  0.62741100  0.59075100  0.57751100  1
  C  1437  1  0.64078900  0.73620000  0.55575100  1
  C  1441  1  0.66816200  0.73325300  0.58386000  1
  C  1445  1  0.61028200  0.54089600  0.55665700  1
  C  1449  1  0.61733200  0.54089600  0.58484100  1
  C  1453  1  0.65503700  0.63437000  0.59739600  1
  C  1455  1  0.61337500  0.64052900  0.54340100  1
  C  1457  1  0.63731700  0.19187400  0.19733700  1
  C  1458  1  0.68493600  0.16375900  0.19898500  1
  C  1459  1  0.68643700  0.10901700  0.19627400  1
  C  1460  1  0.63940200  0.08203150  0.19308800  1
  C  1461  1  0.59145600  0.10989700  0.19192200  1
  C  1462  1  0.59086800  0.16529400  0.19350800  1
  C  1463  1  0.73632000  0.07824250  0.19686500  1
  C  1467  1  0.73342800  0.19075700  0.20364400  1
  C  1471  1  0.54106800  0.08189550  0.18917100  1
  C  1475  1  0.54099000  0.19460400  0.19101500  1
  C  1479  1  0.63445200  0.24477500  0.20045400  1
  C  1481  1  0.64069800  0.02890550  0.18997100  1
  C  1483  1  0.07917650  0.63750400  0.69742300  1
  C  1484  1  0.10729200  0.68512500  0.69906700  1
  C  1485  1  0.16200700  0.68666300  0.69632200  1
  C  1486  1  0.18899600  0.63964700  0.69312000  1
  C  1487  1  0.16114200  0.59168900  0.69196900  1
  C  1488  1  0.10575300  0.59108200  0.69357400  1
  C  1489  1  0.19274300  0.73657400  0.69689000  1
  C  1493  1  0.08032950  0.73357800  0.70376400  1
  C  1497  1  0.18914800  0.54131300  0.68920400  1
  C  1501  1  0.07644650  0.54119600  0.69108400  1
  C  1505  1  0.02627250  0.63463900  0.70054100  1
  C  1507  1  0.24209900  0.64097800  0.68996800  1
  C  1509  1  0.63397700  0.19139900  0.94350000  1
  C  1510  1  0.58629900  0.16330400  0.94194500  1
  C  1511  1  0.58487000  0.10856900  0.94465900  1
  C  1512  1  0.63194400  0.08168150  0.94786000  1
  C  1513  1  0.67989700  0.10955000  0.94898300  1
  C  1514  1  0.68049800  0.16489600  0.94730200  1
  C  1515  1  0.53504300  0.07769650  0.94406800  1
  C  1519  1  0.53765200  0.19034400  0.93740000  1
  C  1523  1  0.73028300  0.08161150  0.95178100  1
  C  1527  1  0.73046700  0.19423400  0.94966000  1
  C  1531  1  0.63677400  0.24419400  0.94029600  1
  C  1533  1  0.63067800  0.02860550  0.95101300  1
  C  1535  1  0.19100600  0.63668000  0.44340700  1
  C  1536  1  0.16280100  0.68424900  0.44176600  1
  C  1537  1  0.10807400  0.68566700  0.44449900  1
  C  1538  1  0.08120650  0.63860100  0.44771700  1
  C  1539  1  0.10914900  0.59070800  0.44888200  1
  C  1540  1  0.16453400  0.59019800  0.44725900  1
  C  1541  1  0.07719450  0.73548600  0.44390200  1
  C  1545  1  0.18968900  0.73278100  0.43709300  1
  C  1549  1  0.08125650  0.54029300  0.45167400  1
  C  1553  1  0.19393800  0.54036700  0.44974100  1
  C  1557  1  0.24389100  0.63390300  0.44026700  1
  C  1559  1  0.02811450  0.63983700  0.45087600  1
  N  4  1  0.02400400  0.07199400  0.15186600  1
  N  8  1  0.02423900  0.95297200  0.15184200  1
  N  14  1  0.02438800  0.95585400  0.12215000  1
  N  20  1  0.02399800  0.07489600  0.12218500  1
  N  75  1  0.02460800  0.02528900  0.04790700  1
  N  76  1  0.02901300  0.65718900  0.13436900  1
  N  77  1  0.02608800  0.00665100  0.22617100  1
  N  78  1  0.02464200  0.37036900  0.14025500  1
  N  82  1  0.95271100  0.02456600  0.65183200  1
  N  86  1  0.07168200  0.02481400  0.65187600  1
  N  92  1  0.06905000  0.02568500  0.62216500  1
  N  98  1  0.95007900  0.02535200  0.62212600  1
  N  153  1  0.00138600  0.02946700  0.54782800  1
  N  154  1  0.36759500  0.02942800  0.63448600  1
  N  155  1  0.01744800  0.02622700  0.72618700  1
  N  156  1  0.65445900  0.02508700  0.64021900  1
  N  160  1  0.00225800  0.07173700  0.87221800  1
  N  164  1  0.00187700  0.95275000  0.87215400  1
  N  170  1  0.00267900  0.95535200  0.90176600  1
  N  176  1  0.00480900  0.07440700  0.90179500  1
  N  231  1  0.01713300  0.02407500  0.97586100  1
  N  232  1  0.99725000  0.65683500  0.88965800  1
  N  233  1  0.99809500  0.01000900  0.79788000  1
  N  234  1  0.00080600  0.36998200  0.88389600  1
  N  238  1  0.07124400  0.02305500  0.37224600  1
  N  242  1  0.95227500  0.02350700  0.37217000  1
  N  248  1  0.95483800  0.02416800  0.40187400  1
  N  254  1  0.07380100  0.02357700  0.40193500  1
  N  309  1  0.02501600  0.02483700  0.47614100  1
  N  310  1  0.65631700  0.02851500  0.38950400  1
  N  311  1  0.00966200  0.02581600  0.29787000  1
  N  312  1  0.36944000  0.02358100  0.38377800  1
  N  524  1  0.33557200  0.38356200  0.18107600  1
  N  528  1  0.33580700  0.26454000  0.18105200  1
  N  534  1  0.33595600  0.26742200  0.15136000  1
  N  540  1  0.33556600  0.38646400  0.15139500  1
  N  595  1  0.33617600  0.33685700  0.07711650  1
  N  596  1  0.34058100  0.96875700  0.16357900  1
  N  597  1  0.33765600  0.31821900  0.25538100  1
  N  598  1  0.33621000  0.68193700  0.16946500  1
  N  602  1  0.26427900  0.33613400  0.68104200  1
  N  606  1  0.38325000  0.33638200  0.68108600  1
  N  612  1  0.38061800  0.33725300  0.65137500  1
  N  618  1  0.26164700  0.33692000  0.65133600  1
  N  673  1  0.31295400  0.34103500  0.57703800  1
  N  674  1  0.67916300  0.34099600  0.66369600  1
  N  675  1  0.32901600  0.33779500  0.75539700  1
  N  676  1  0.96602700  0.33665500  0.66942900  1
  N  680  1  0.31382600  0.38330500  0.90142800  1
  N  684  1  0.31344500  0.26431800  0.90136400  1
  N  690  1  0.31424700  0.26692000  0.93097600  1
  N  696  1  0.31637700  0.38597500  0.93100500  1
  N  751  1  0.32870100  0.33564300  0.00507050  1
  N  752  1  0.30881800  0.96840300  0.91886800  1
  N  753  1  0.30966300  0.32157700  0.82709000  1
  N  754  1  0.31237400  0.68155000  0.91310600  1
  N  758  1  0.38281200  0.33462300  0.40145600  1
  N  762  1  0.26384300  0.33507500  0.40138000  1
  N  768  1  0.26640600  0.33573600  0.43108400  1
  N  774  1  0.38536900  0.33514500  0.43114500  1
  N  829  1  0.33658400  0.33640500  0.50535100  1
  N  830  1  0.96788500  0.34008300  0.41871400  1
  N  831  1  0.32123000  0.33738400  0.32708000  1
  N  832  1  0.68100800  0.33514900  0.41298800  1
  N  1044  1  0.64713900  0.69512900  0.21028500  1
  N  1048  1  0.64737400  0.57610700  0.21026100  1
  N  1054  1  0.64752300  0.57898900  0.18056900  1
  N  1060  1  0.64713300  0.69803100  0.18060400  1
  N  1115  1  0.64774300  0.64842400  0.10632600  1
  N  1116  1  0.65214800  0.28032400  0.19278800  1
  N  1117  1  0.64922300  0.62978600  0.28459000  1
  N  1118  1  0.64777700  0.99350400  0.19867400  1
  N  1122  1  0.57584600  0.64770100  0.71025100  1
  N  1126  1  0.69481700  0.64794900  0.71029500  1
  N  1132  1  0.69218500  0.64882000  0.68058400  1
  N  1138  1  0.57321400  0.64848700  0.68054500  1
  N  1193  1  0.62452100  0.65260200  0.60624700  1
  N  1194  1  0.99073000  0.65256300  0.69290500  1
  N  1195  1  0.64058300  0.64936200  0.78460600  1
  N  1196  1  0.27759400  0.64822200  0.69863800  1
  N  1200  1  0.62539300  0.69487200  0.93063700  1
  N  1204  1  0.62501200  0.57588500  0.93057300  1
  N  1210  1  0.62581400  0.57848700  0.96018500  1
  N  1216  1  0.62794400  0.69754200  0.96021400  1
  N  1271  1  0.64026800  0.64721000  0.03428000  1
  N  1272  1  0.62038500  0.27997000  0.94807700  1
  N  1273  1  0.62123000  0.63314400  0.85629900  1
  N  1274  1  0.62394100  0.99311700  0.94231500  1
  N  1278  1  0.69437900  0.64619000  0.43066500  1
  N  1282  1  0.57541000  0.64664200  0.43058900  1
  N  1288  1  0.57797300  0.64730300  0.46029300  1
  N  1294  1  0.69693600  0.64671200  0.46035400  1
  N  1349  1  0.64815100  0.64797200  0.53456000  1
  N  1350  1  0.27945200  0.65165000  0.44792300  1
  N  1351  1  0.63279700  0.64895100  0.35628900  1
  N  1352  1  0.99257500  0.64671600  0.44219700  1
