# generated using pymatgen
data_H10C13N5O
_symmetry_space_group_name_H-M   'P 1'
_cell_length_a   29.86920000
_cell_length_b   58.11866231
_cell_length_c   58.20998096
_cell_angle_alpha   86.31116437
_cell_angle_beta   75.13370578
_cell_angle_gamma   75.47682241
_symmetry_Int_Tables_number   1
_chemical_formula_structural   H10C13N5O
_chemical_formula_sum   'H320 C416 N160 O32'
_cell_volume   94546.80269818
_cell_formula_units_Z   32
loop_
 _symmetry_equiv_pos_site_id
 _symmetry_equiv_pos_as_xyz
  1  'x, y, z'
loop_
 _atom_site_type_symbol
 _atom_site_label
 _atom_site_symmetry_multiplicity
 _atom_site_fract_x
 _atom_site_fract_y
 _atom_site_fract_z
 _atom_site_occupancy
  C  1  1  0.25105300  0.87174850  0.99146750  1
  C  2  1  0.20627700  0.87751250  0.98534650  1
  C  3  1  0.19201650  0.86146950  0.97288850  1
  C  4  1  0.22391700  0.83870950  0.96644550  1
  C  5  1  0.26271233  0.83092500  0.97737600  1
  C  6  1  0.27739300  0.84774850  0.98828950  1
  C  9  1  0.26880550  0.88883400  0.00083100  1
  C  10  1  0.23752650  0.90732200  0.01609600  1
  C  11  1  0.25410950  0.92513350  0.02442450  1
  C  12  1  0.30242200  0.92639650  0.01489150  1
  C  13  1  0.33610200  0.90605700  0.00307600  1
  C  14  1  0.31853450  0.88787050  0.99590850  1
  C  23  1  0.38559500  0.90412900  0.99985700  1
  C  24  1  0.28419500  0.80692100  0.97887900  1
  C  25  1  0.14642650  0.86695000  0.96786900  1
  C  26  1  0.22415750  0.94032300  0.04261600  1
  C  31  1  0.54361900  0.62032250  0.66000650  1
  C  32  1  0.49854800  0.61434000  0.66623600  1
  C  33  1  0.45609950  0.63021800  0.67885100  1
  C  34  1  0.45904700  0.65303850  0.68527350  1
  C  35  1  0.50076400  0.66107100  0.67411700  1
  C  36  1  0.54296750  0.64439050  0.66314550  1
  C  39  1  0.58756900  0.60335350  0.65062450  1
  C  40  1  0.58982350  0.58477250  0.63541050  1
  C  41  1  0.63225400  0.56702700  0.62713800  1
  C  42  1  0.67213550  0.56592100  0.63672100  1
  C  43  1  0.67394700  0.58635600  0.64845000  1
  C  44  1  0.63133700  0.60447650  0.65556050  1
  C  53  1  0.71828450  0.58838350  0.65165250  1
  C  54  1  0.49960800  0.68516050  0.67245750  1
  C  55  1  0.41099900  0.62455500  0.68400400  1
  C  56  1  0.63560600  0.55172500  0.60898200  1
  C  61  1  0.16765450  0.08000700  0.45188700  1
  C  62  1  0.11675300  0.08618350  0.45774750  1
  C  63  1  0.09029700  0.09874600  0.44177700  1
  C  64  1  0.11603750  0.10513750  0.41898150  1
  C  65  1  0.16562400  0.09406200  0.41108500  1
  C  66  1  0.19101550  0.08311450  0.42784750  1
  C  69  1  0.19457500  0.07066100  0.46892600  1
  C  70  1  0.17825500  0.05539850  0.48744550  1
  C  71  1  0.20301900  0.04707550  0.50519550  1
  C  72  1  0.24182350  0.05668250  0.50641150  1
  C  73  1  0.26396350  0.06850950  0.48605550  1
  C  74  1  0.23944100  0.07563400  0.46789800  1
  C  83  1  0.31028750  0.07175900  0.48409800  1
  C  84  1  0.18857650  0.09245750  0.38704050  1
  C  85  1  0.03965700  0.10390600  0.44734900  1
  C  86  1  0.19119000  0.02878450  0.52033750  1
  C  91  1  0.12756300  0.41142500  0.20044500  1
  C  92  1  0.08858200  0.40526550  0.19453550  1
  C  93  1  0.05845200  0.39264100  0.21043000  1
  C  94  1  0.06763450  0.38614450  0.23320750  1
  C  95  1  0.09842800  0.39721900  0.24118500  1
  C  96  1  0.12992800  0.40820400  0.22447800  1
  C  99  1  0.16234000  0.42085500  0.18344900  1
  C  100  1  0.14962200  0.43605700  0.16489700  1
  C  101  1  0.18394500  0.44441800  0.14714700  1
  C  102  1  0.23336300  0.43496450  0.14599250  1
  C  103  1  0.24666900  0.42318750  0.16637850  1
  C  104  1  0.21099250  0.41599750  0.18451650  1
  C  113  1  0.29415300  0.42003500  0.16838200  1
  C  114  1  0.09560550  0.39878950  0.26525450  1
  C  115  1  0.01839150  0.38757550  0.20480650  1
  C  116  1  0.16923600  0.46250900  0.13186000  1
  C  121  1  0.89364250  0.41064150  0.45271850  1
  C  122  1  0.93841750  0.40390250  0.45882350  1
  C  123  1  0.98043500  0.39066400  0.44311500  1
  C  124  1  0.97723000  0.38417850  0.42041750  1
  C  125  1  0.93669700  0.39623350  0.41201650  1
  C  126  1  0.89468700  0.40774600  0.42859000  1
  C  129  1  0.84967900  0.42032800  0.46959700  1
  C  130  1  0.84772700  0.43545000  0.48817500  1
  C  131  1  0.80528650  0.44388550  0.50595450  1
  C  132  1  0.76507650  0.43445600  0.50706900  1
  C  133  1  0.76301300  0.42291000  0.48659600  1
  C  134  1  0.80564450  0.41570050  0.46842550  1
  C  143  1  0.71849850  0.41985500  0.48465600  1
  C  144  1  0.93900550  0.39863850  0.38780450  1
  C  145  1  0.02549550  0.38501350  0.44870550  1
  C  146  1  0.80259900  0.46198350  0.52122450  1
  C  151  1  0.18547600  0.08096150  0.19959250  1
  C  152  1  0.22984450  0.08764400  0.19349000  1
  C  153  1  0.24331200  0.10083650  0.20920450  1
  C  154  1  0.21111650  0.10732600  0.23190500  1
  C  155  1  0.17389250  0.09530800  0.24030200  1
  C  156  1  0.15957550  0.08386300  0.22372400  1
  C  159  1  0.16780700  0.07129400  0.18271500  1
  C  160  1  0.19919600  0.05621200  0.16410900  1
  C  161  1  0.18276150  0.04774650  0.14635350  1
  C  162  1  0.13439000  0.05705350  0.14530650  1
  C  163  1  0.10061550  0.06864100  0.16577000  1
  C  164  1  0.11808200  0.07591900  0.18389000  1
  C  173  1  0.05116450  0.07170500  0.16774300  1
  C  174  1  0.15440100  0.09286450  0.26451550  1
  C  175  1  0.28851650  0.10641200  0.20361500  1
  C  176  1  0.21317450  0.02976800  0.13100500  1
  C  181  1  0.30915900  0.87224100  0.66081800  1
  C  182  1  0.34737750  0.87839150  0.66749350  1
  C  183  1  0.37612600  0.86273550  0.68077050  1
  C  184  1  0.36630750  0.84003300  0.68728100  1
  C  185  1  0.33770300  0.83156100  0.67521000  1
  C  186  1  0.30716400  0.84809700  0.66371700  1
  C  189  1  0.27488400  0.88909700  0.65116100  1
  C  190  1  0.28802900  0.90768900  0.63603800  1
  C  191  1  0.25408950  0.92543700  0.62760400  1
  C  192  1  0.20460300  0.92652100  0.63704600  1
  C  193  1  0.19092050  0.90606050  0.64863950  1
  C  194  1  0.22625450  0.88791500  0.65584900  1
  C  203  1  0.14334950  0.90412800  0.65172500  1
  C  204  1  0.34238950  0.80732500  0.67275000  1
  C  205  1  0.41562950  0.86838400  0.68641500  1
  C  206  1  0.26941200  0.94069550  0.60948550  1
  C  211  1  0.27179300  0.61888000  0.99062900  1
  C  212  1  0.32268550  0.61291150  0.98401450  1
  C  213  1  0.34921500  0.62870050  0.97083350  1
  C  214  1  0.32354750  0.65135900  0.96432300  1
  C  215  1  0.27445450  0.65962350  0.97625250  1
  C  216  1  0.24883200  0.64296400  0.98768000  1
  C  219  1  0.24455400  0.60192200  0.00027000  1
  C  220  1  0.26089600  0.58335550  0.01537050  1
  C  221  1  0.23598900  0.56556050  0.02384050  1
  C  222  1  0.19693900  0.56438900  0.01447900  1
  C  223  1  0.17479050  0.58480300  0.00285300  1
  C  224  1  0.19947650  0.60300200  0.99562300  1
  C  233  1  0.12843000  0.58671350  0.99976550  1
  C  234  1  0.25245450  0.68379550  0.97856850  1
  C  235  1  0.39986000  0.62319400  0.96528800  1
  C  236  1  0.24830550  0.55034500  0.04193800  1
  C  241  1  0.68565050  0.12002050  0.16047750  1
  C  242  1  0.73039550  0.11422450  0.16663150  1
  C  243  1  0.74466500  0.13024900  0.17910700  1
  C  244  1  0.71281100  0.15302400  0.18552600  1
  C  245  1  0.67409050  0.16084200  0.17455000  1
  C  246  1  0.65937800  0.14403450  0.16362850  1
  C  249  1  0.66786900  0.10295350  0.15110250  1
  C  250  1  0.69913500  0.08445400  0.13584900  1
  C  251  1  0.68252350  0.06666050  0.12750950  1
  C  252  1  0.63419050  0.06542450  0.13702350  1
  C  253  1  0.60053100  0.08577700  0.14882700  1
  C  254  1  0.61812950  0.10394800  0.15600300  1
  C  263  1  0.55103400  0.08772650  0.15203050  1
  C  264  1  0.65273650  0.18485650  0.17300150  1
  C  265  1  0.79022700  0.12474150  0.18415850  1
  C  266  1  0.71247450  0.05145750  0.10932850  1
  C  271  1  0.39314200  0.37134550  0.49188550  1
  C  272  1  0.43821550  0.37732600  0.48562700  1
  C  273  1  0.48066300  0.36142500  0.47304300  1
  C  274  1  0.47769900  0.33859150  0.46667050  1
  C  275  1  0.43599100  0.33056800  0.47786600  1
  C  276  1  0.39378600  0.34726650  0.48880950  1
  C  279  1  0.34919550  0.38833300  0.50123300  1
  C  280  1  0.34695800  0.40695900  0.51638900  1
  C  281  1  0.30454950  0.42473350  0.52460750  1
  C  282  1  0.26468900  0.42581600  0.51501600  1
  C  283  1  0.26283550  0.40533850  0.50337050  1
  C  284  1  0.30542050  0.38718900  0.49631800  1
  C  293  1  0.21847800  0.40330700  0.50019500  1
  C  294  1  0.43717000  0.30647700  0.47958400  1
  C  295  1  0.52577650  0.36707400  0.46787400  1
  C  296  1  0.30117750  0.44007550  0.54273250  1
  C  301  1  0.76991850  0.91173300  0.69998100  1
  C  302  1  0.82081950  0.90557450  0.69413550  1
  C  303  1  0.84726200  0.89301250  0.71011050  1
  C  304  1  0.82150750  0.88660400  0.73289600  1
  C  305  1  0.77190850  0.89766250  0.74078150  1
  C  306  1  0.74653750  0.90860900  0.72401200  1
  C  309  1  0.74301850  0.92107800  0.68293100  1
  C  310  1  0.75933800  0.93635000  0.66442300  1
  C  311  1  0.73459650  0.94467050  0.64666550  1
  C  312  1  0.69581400  0.93505450  0.64543050  1
  C  313  1  0.67366900  0.92321600  0.66577500  1
  C  314  1  0.69817350  0.91609100  0.68394100  1
  C  323  1  0.62736400  0.91995200  0.66771800  1
  C  324  1  0.74891850  0.89924750  0.76482050  1
  C  325  1  0.89789800  0.88786800  0.70455200  1
  C  326  1  0.74641450  0.96297200  0.63153600  1
  C  331  1  0.81012200  0.58030600  0.95154900  1
  C  332  1  0.84912600  0.58645600  0.95744400  1
  C  333  1  0.87925150  0.59907700  0.94153800  1
  C  334  1  0.87004400  0.60557600  0.91876600  1
  C  335  1  0.83921600  0.59451000  0.91080500  1
  C  336  1  0.80772550  0.58353000  0.92752000  1
  C  339  1  0.77535500  0.57087800  0.96855400  1
  C  340  1  0.78809250  0.55567050  0.98709850  1
  C  341  1  0.75377900  0.54730650  0.00485250  1
  C  342  1  0.70435600  0.55676300  0.00601900  1
  C  343  1  0.69102900  0.56855050  0.98564150  1
  C  344  1  0.72669800  0.57574250  0.96749950  1
  C  353  1  0.64353900  0.57170800  0.98364600  1
  C  354  1  0.84199250  0.59293950  0.88674050  1
  C  355  1  0.91932450  0.60413800  0.94715200  1
  C  356  1  0.76850350  0.52920500  0.02012300  1
  C  361  1  0.04315200  0.58103450  0.69913750  1
  C  362  1  0.99831600  0.58774650  0.69309250  1
  C  363  1  0.95631600  0.60093500  0.70885200  1
  C  364  1  0.95960900  0.60741450  0.73153250  1
  C  365  1  0.00024400  0.59539750  0.73987150  1
  C  366  1  0.04221450  0.58392000  0.72325400  1
  C  369  1  0.08707650  0.57139150  0.68221050  1
  C  370  1  0.08897950  0.55630250  0.66361550  1
  C  371  1  0.13136400  0.54792200  0.64578600  1
  C  372  1  0.17155400  0.55737700  0.64464500  1
  C  373  1  0.17369550  0.56887700  0.66512800  1
  C  374  1  0.13112000  0.57603200  0.68334700  1
  C  383  1  0.21822900  0.57193250  0.66703550  1
  C  384  1  0.99808750  0.59300800  0.76406900  1
  C  385  1  0.91119850  0.60654200  0.70332600  1
  C  386  1  0.13403900  0.52983800  0.63050400  1
  C  391  1  0.75122750  0.91078500  0.95237500  1
  C  392  1  0.70682850  0.90413450  0.95844750  1
  C  393  1  0.69336600  0.89095500  0.94272000  1
  C  394  1  0.72560350  0.88444350  0.92003250  1
  C  395  1  0.76290100  0.89642050  0.91166250  1
  C  396  1  0.77720500  0.90784950  0.92825750  1
  C  399  1  0.76886650  0.92044650  0.96926850  1
  C  400  1  0.73746400  0.93554600  0.98785600  1
  C  401  1  0.75387000  0.94400750  0.00562550  1
  C  402  1  0.80221850  0.93468350  0.00670250  1
  C  403  1  0.83601700  0.92307350  0.98625850  1
  C  404  1  0.81858250  0.91579750  0.96812450  1
  C  413  1  0.88546550  0.91999000  0.98430800  1
  C  414  1  0.78251050  0.89882700  0.88745700  1
  C  415  1  0.64813550  0.88540850  0.94828850  1
  C  416  1  0.72345900  0.96200400  0.02095300  1
  C  421  1  0.62837950  0.11951650  0.49108550  1
  C  422  1  0.59020700  0.11334600  0.48438300  1
  C  423  1  0.56144750  0.12900000  0.47111000  1
  C  424  1  0.57119850  0.15172250  0.46463850  1
  C  425  1  0.59973050  0.16020500  0.47674600  1
  C  426  1  0.63029750  0.14367250  0.48822650  1
  C  429  1  0.66267300  0.10267000  0.50073700  1
  C  430  1  0.64955100  0.08406450  0.51584950  1
  C  431  1  0.68350550  0.06632900  0.52428600  1
  C  432  1  0.73298650  0.06526950  0.51485750  1
  C  433  1  0.74663750  0.08574050  0.50327350  1
  C  434  1  0.71128450  0.10387550  0.49606350  1
  C  443  1  0.79419100  0.08769150  0.50020050  1
  C  444  1  0.59491950  0.18444450  0.47925950  1
  C  445  1  0.52198300  0.12333650  0.46543850  1
  C  446  1  0.66820000  0.05105900  0.54239600  1
  C  451  1  0.66596150  0.37278150  0.16128050  1
  C  452  1  0.61506900  0.37876950  0.16791050  1
  C  453  1  0.58852200  0.36298800  0.18109100  1
  C  454  1  0.61417550  0.34031600  0.18757700  1
  C  455  1  0.66325250  0.33203650  0.17563050  1
  C  456  1  0.68889750  0.34868950  0.16420850  1
  C  459  1  0.69322250  0.38973100  0.15164000  1
  C  460  1  0.67688900  0.40830350  0.13654350  1
  C  461  1  0.70181550  0.42609300  0.12807300  1
  C  462  1  0.74087600  0.42724950  0.13743150  1
  C  463  1  0.76301350  0.40682950  0.14905350  1
  C  464  1  0.73831100  0.38863750  0.15628250  1
  C  473  1  0.80938000  0.40491100  0.15213900  1
  C  474  1  0.68520050  0.30786000  0.17329400  1
  C  475  1  0.53787600  0.36850950  0.18665350  1
  C  476  1  0.68949700  0.44131650  0.10998250  1
  C  961  1  0.22592800  0.73715000  0.99464900  1
  C  962  1  0.27007500  0.72105350  0.98502850  1
  C  963  1  0.31064000  0.73050950  0.97761450  1
  C  965  1  0.26340750  0.76950450  0.98743550  1
  C  969  1  0.17409800  0.72478700  0.02764300  1
  C  975  1  0.38619150  0.75390250  0.65689350  1
  C  976  1  0.40412400  0.77041050  0.66645850  1
  C  977  1  0.44671800  0.76149050  0.67382650  1
  C  979  1  0.44932850  0.72220450  0.66399950  1
  C  983  1  0.35472500  0.76568950  0.62398050  1
  C  989  1  0.14465350  0.07672600  0.31784700  1
  C  990  1  0.17904250  0.08644100  0.30153100  1
  C  991  1  0.21249900  0.09390950  0.31068750  1
  C  993  1  0.17567350  0.08392500  0.34983200  1
  C  997  1  0.12533500  0.04369200  0.30572800  1
  C  1003  1  0.96687200  0.41442800  0.33437200  1
  C  1004  1  0.99443100  0.40494400  0.35074700  1
  C  1005  1  0.04436800  0.39761950  0.34163650  1
  C  1007  1  0.03696650  0.40722550  0.30243250  1
  C  1011  1  0.90282950  0.44735250  0.34627850  1
  C  1017  1  0.71151250  0.25448250  0.15728050  1
  C  1018  1  0.66740250  0.27064100  0.16682200  1
  C  1019  1  0.62673300  0.26125850  0.17417050  1
  C  1021  1  0.67378550  0.22221550  0.16444150  1
  C  1025  1  0.76368200  0.26672850  0.12435550  1
  C  1031  1  0.55086300  0.23785200  0.49514000  1
  C  1032  1  0.53299550  0.22129900  0.48560000  1
  C  1033  1  0.49034650  0.23015650  0.47826750  1
  C  1035  1  0.48755500  0.26947400  0.48807400  1
  C  1039  1  0.58251200  0.22612650  0.52800450  1
  C  1045  1  0.79264150  0.91489900  0.83410000  1
  C  1046  1  0.75808000  0.90527050  0.85039050  1
  C  1047  1  0.72459550  0.89787400  0.84119300  1
  C  1049  1  0.76170450  0.90775850  0.80206350  1
  C  1053  1  0.81220000  0.94786250  0.84621650  1
  C  1059  1  0.97052650  0.57730550  0.81754450  1
  C  1060  1  0.94285500  0.58669600  0.80119400  1
  C  1061  1  0.89292400  0.59396750  0.81034850  1
  C  1063  1  0.90052950  0.58448350  0.84953950  1
  C  1067  1  0.03470300  0.54443750  0.80565250  1
  C  1185  1  0.25523450  0.98165000  0.10192100  1
  C  1186  1  0.20831350  0.99572650  0.11014250  1
  C  1187  1  0.17243300  0.99078900  0.10085300  1
  C  1189  1  0.22848050  0.96000200  0.07683100  1
  C  1193  1  0.32789050  0.99317200  0.09315600  1
  C  1199  1  0.76744100  0.51024900  0.55028100  1
  C  1200  1  0.74294950  0.49594250  0.54203950  1
  C  1201  1  0.69292150  0.50075550  0.55113350  1
  C  1203  1  0.69396800  0.53189000  0.57498800  1
  C  1207  1  0.84218150  0.49889100  0.55945100  1
  C  1213  1  0.28197450  0.96989800  0.56134300  1
  C  1214  1  0.24341250  0.96148350  0.57558150  1
  C  1215  1  0.19816450  0.97057100  0.57086000  1
  C  1217  1  0.22990400  0.99468750  0.53988950  1
  C  1221  1  0.34568450  0.97908050  0.57262550  1
  C  1227  1  0.24197650  0.52166600  0.09029900  1
  C  1228  1  0.20934100  0.52964700  0.07603700  1
  C  1229  1  0.16861500  0.52024950  0.08090350  1
  C  1231  1  0.19357900  0.49657350  0.11197150  1
  C  1235  1  0.32590700  0.51313050  0.07916050  1
  C  1241  1  0.68143800  0.01014750  0.04999650  1
  C  1242  1  0.72834150  0.99604400  0.04180900  1
  C  1243  1  0.76421000  0.00096100  0.05112400  1
  C  1245  1  0.70817750  0.03178150  0.07510750  1
  C  1249  1  0.60872300  0.99868400  0.05871800  1
  C  1255  1  0.16926400  0.48160450  0.60138050  1
  C  1256  1  0.19373400  0.49591950  0.60962650  1
  C  1257  1  0.24376500  0.49111500  0.60053500  1
  C  1259  1  0.24275650  0.45996950  0.57668350  1
  C  1263  1  0.09453000  0.49297300  0.59220600  1
  C  1269  1  0.65562350  0.02185350  0.59053350  1
  C  1270  1  0.69417850  0.03028200  0.57630700  1
  C  1271  1  0.73942450  0.02120350  0.58103650  1
  C  1273  1  0.70768950  0.99707100  0.61199300  1
  C  1277  1  0.59194750  0.01265550  0.57923250  1
  C  1283  1  0.69580850  0.47001350  0.06163550  1
  C  1284  1  0.72845150  0.46202150  0.07589150  1
  C  1285  1  0.76917450  0.47142200  0.07103100  1
  C  1287  1  0.74418400  0.49512300  0.03998200  1
  C  1291  1  0.61187700  0.47854350  0.07277250  1
  C  1409  1  0.04930200  0.88003250  0.95462650  1
  C  1410  1  0.06559850  0.89172150  0.97052450  1
  C  1411  1  0.03098250  0.91022650  0.98415250  1
  C  1413  1  0.96923050  0.90256900  0.96877900  1
  C  1417  1  0.09763900  0.87158350  0.91612250  1
  C  1423  1  0.31372850  0.61120750  0.69727050  1
  C  1424  1  0.35720900  0.59976800  0.68113200  1
  C  1425  1  0.35416450  0.58153250  0.66719850  1
  C  1427  1  0.26965050  0.58901500  0.68277800  1
  C  1431  1  0.31598800  0.61885250  0.73587850  1
  C  1437  1  0.92934750  0.11736500  0.46051400  1
  C  1438  1  0.96115200  0.10135700  0.47215300  1
  C  1439  1  0.93969400  0.08765600  0.49055400  1
  C  1441  1  0.86287550  0.10321250  0.48291250  1
  C  1445  1  0.94000900  0.15585700  0.45235800  1
  C  1451  1  0.93406400  0.37453250  0.19153550  1
  C  1452  1  0.96193900  0.39057200  0.18005300  1
  C  1453  1  0.94546800  0.40451600  0.16179200  1
  C  1455  1  0.87601200  0.38912800  0.16932300  1
  C  1459  1  0.97401850  0.33587900  0.19926300  1
  C  1465  1  0.12298650  0.37217350  0.46173350  1
  C  1466  1  0.07962750  0.38845350  0.47300450  1
  C  1467  1  0.08274900  0.40275750  0.49090450  1
  C  1469  1  0.16718200  0.38719000  0.48341300  1
  C  1473  1  0.12048500  0.33337950  0.45475850  1
  C  1479  1  0.38676400  0.11897900  0.19060500  1
  C  1480  1  0.37040300  0.10275750  0.17934650  1
  C  1481  1  0.40530800  0.08839050  0.16146550  1
  C  1483  1  0.46722700  0.10384900  0.16889200  1
  C  1487  1  0.33973050  0.15783600  0.19757600  1
  C  1493  1  0.50070750  0.88147150  0.69904050  1
  C  1494  1  0.47347800  0.89269650  0.68277950  1
  C  1495  1  0.49098500  0.91051900  0.66835500  1
  C  1497  1  0.55999400  0.90312250  0.68386450  1
  C  1501  1  0.45993300  0.87465550  0.73791050  1
  C  1507  1  0.51037400  0.61035050  0.95260250  1
  C  1508  1  0.47799800  0.59895700  0.96875500  1
  C  1509  1  0.49864350  0.58100050  0.98300650  1
  C  1511  1  0.57579250  0.58860750  0.96759550  1
  C  1515  1  0.50163050  0.61753800  0.91379400  1
  C  1521  1  0.88730900  0.11162400  0.19744200  1
  C  1522  1  0.87103150  0.09995150  0.18152450  1
  C  1523  1  0.90566100  0.08145550  0.16788650  1
  C  1525  1  0.96739300  0.08910550  0.18328250  1
  C  1529  1  0.83892000  0.12002600  0.23594200  1
  C  1535  1  0.62312550  0.38036000  0.45459000  1
  C  1536  1  0.57960200  0.39187950  0.47065250  1
  C  1537  1  0.58261000  0.41020150  0.48448750  1
  C  1539  1  0.66714700  0.40266800  0.46897100  1
  C  1543  1  0.62108550  0.37244400  0.41601600  1
  C  1549  1  0.00820900  0.87443500  0.69139700  1
  C  1550  1  0.97640050  0.89044400  0.67976200  1
  C  1551  1  0.99784750  0.90415850  0.66136950  1
  C  1553  1  0.07466750  0.88860350  0.66900950  1
  C  1557  1  0.99758650  0.83593400  0.69953300  1
  C  1563  1  0.00369400  0.61714800  0.96041300  1
  C  1564  1  0.97581650  0.60110850  0.97189050  1
  C  1565  1  0.99230400  0.58714350  0.99013650  1
  C  1567  1  0.06177500  0.60252050  0.98260250  1
  C  1571  1  0.96375400  0.65581750  0.95272150  1
  C  1577  1  0.81355550  0.61931650  0.69042850  1
  C  1578  1  0.85698850  0.60315550  0.67904250  1
  C  1579  1  0.85394200  0.58896850  0.66102750  1
  C  1581  1  0.76947600  0.60442250  0.66858750  1
  C  1585  1  0.81558450  0.65809250  0.69779450  1
  C  1591  1  0.54986150  0.87287250  0.96127350  1
  C  1592  1  0.56623000  0.88908550  0.97254050  1
  C  1593  1  0.53133350  0.90345250  0.99042250  1
  C  1595  1  0.46940200  0.88800850  0.98298950  1
  C  1599  1  0.59685250  0.83400800  0.95428700  1
  C  1605  1  0.43695350  0.11023150  0.45278150  1
  C  1606  1  0.46417700  0.09900700  0.46904400  1
  C  1607  1  0.44667150  0.08117850  0.48346150  1
  C  1609  1  0.37766350  0.08858100  0.46794800  1
  C  1613  1  0.47774900  0.11705700  0.41391800  1
  C  1619  1  0.42736250  0.38137250  0.19938150  1
  C  1620  1  0.45973000  0.39276700  0.18322500  1
  C  1621  1  0.43906800  0.41073300  0.16898900  1
  C  1623  1  0.36191750  0.40312950  0.18441550  1
  C  1627  1  0.43618200  0.37416700  0.23817700  1
  H  7  1  0.18509650  0.89438250  0.98831150  1
  H  16  1  0.34261800  0.87425900  0.98582100  1
  H  17  1  0.29064600  0.96192300  0.02125800  1
  H  18  1  0.34494000  0.94995100  0.00635600  1
  H  19  1  0.24364550  0.81011650  0.94411050  1
  H  20  1  0.19874500  0.83061400  0.93915000  1
  H  21  1  0.30639050  0.84200600  0.99533600  1
  H  22  1  0.20235600  0.90704850  0.02245450  1
  H  27  1  0.39489200  0.91589950  0.00895850  1
  H  28  1  0.31918450  0.80086100  0.97246700  1
  H  29  1  0.13711200  0.85357400  0.96135500  1
  H  30  1  0.19132850  0.94882400  0.04173600  1
  H  37  1  0.49708700  0.59740950  0.66330950  1
  H  46  1  0.63189550  0.61817950  0.66557550  1
  H  47  1  0.70157500  0.53037300  0.63059000  1
  H  48  1  0.72936050  0.54246100  0.64531600  1
  H  49  1  0.42819150  0.68164750  0.70766950  1
  H  50  1  0.39903150  0.66088250  0.71279250  1
  H  51  1  0.57316900  0.65028500  0.65594400  1
  H  52  1  0.56081100  0.58494350  0.62903650  1
  H  57  1  0.74820450  0.57666550  0.64250450  1
  H  58  1  0.52204300  0.69151550  0.67875750  1
  H  59  1  0.38202600  0.63781900  0.69070000  1
  H  60  1  0.61031950  0.54314450  0.60984950  1
  H  67  1  0.09839500  0.08330950  0.47466450  1
  H  76  1  0.25366100  0.08569600  0.45424400  1
  H  77  1  0.23624750  0.05022600  0.54196900  1
  H  78  1  0.27585500  0.06513500  0.52999500  1
  H  79  1  0.11391850  0.12744850  0.39029850  1
  H  80  1  0.06401150  0.13252650  0.41081950  1
  H  81  1  0.22700900  0.07600250  0.42204750  1
  H  82  1  0.14945600  0.04896650  0.48717750  1
  H  87  1  0.32844950  0.06267400  0.49586800  1
  H  88  1  0.21724250  0.09888300  0.38081400  1
  H  89  1  0.02404200  0.11052300  0.43401300  1
  H  90  1  0.15753900  0.02976100  0.52916400  1
  H  97  1  0.08433100  0.40819900  0.17762500  1
  H  106  1  0.22141850  0.40595100  0.19817000  1
  H  107  1  0.25699500  0.44129050  0.11047050  1
  H  108  1  0.29917750  0.42645400  0.12254200  1
  H  109  1  0.05894100  0.36367100  0.26168400  1
  H  110  1  0.03464650  0.35865400  0.24103500  1
  H  111  1  0.15303700  0.41536050  0.23034550  1
  H  112  1  0.11428350  0.44239100  0.16510900  1
  H  117  1  0.31512700  0.42920650  0.15666550  1
  H  118  1  0.12437250  0.39257600  0.27148600  1
  H  119  1  0.99592800  0.38086800  0.21809100  1
  H  120  1  0.14577850  0.46122100  0.12289600  1
  H  127  1  0.93981950  0.40681050  0.47574050  1
  H  136  1  0.80492300  0.40575450  0.45471450  1
  H  137  1  0.73626250  0.43984250  0.54275450  1
  H  138  1  0.70798750  0.42553150  0.53047050  1
  H  139  1  0.00559950  0.36078300  0.39267600  1
  H  140  1  0.03461550  0.35542700  0.41342400  1
  H  141  1  0.86497800  0.41547800  0.42260000  1
  H  142  1  0.87710400  0.44157950  0.48800950  1
  H  147  1  0.68864900  0.42907750  0.49639250  1
  H  148  1  0.91191300  0.39712400  0.38154700  1
  H  149  1  0.05425150  0.37765050  0.43556250  1
  H  150  1  0.82979400  0.46192500  0.52809100  1
  H  157  1  0.25094700  0.08475500  0.17656200  1
  H  166  1  0.09395600  0.08584450  0.19762050  1
  H  167  1  0.14635350  0.05150950  0.10965550  1
  H  168  1  0.09174050  0.06562850  0.12189850  1
  H  169  1  0.18924700  0.13067850  0.25977050  1
  H  170  1  0.23368650  0.13598350  0.23895850  1
  H  171  1  0.13142400  0.07612950  0.22971150  1
  H  172  1  0.23440450  0.05010650  0.16425550  1
  H  177  1  0.04200350  0.06239300  0.15610000  1
  H  178  1  0.11957800  0.09437650  0.27080050  1
  H  179  1  0.29699150  0.11375500  0.21675300  1
  H  180  1  0.24691400  0.03016500  0.12385100  1
  H  187  1  0.35168950  0.89533900  0.66464000  1
  H  196  1  0.21560850  0.87418250  0.66578250  1
  H  197  1  0.18132200  0.96224000  0.63150400  1
  H  198  1  0.13881150  0.94998350  0.64580050  1
  H  199  1  0.37155950  0.81222050  0.71069050  1
  H  200  1  0.39552550  0.83294050  0.71601050  1
  H  201  1  0.28504650  0.84207450  0.65599450  1
  H  202  1  0.32345400  0.90751050  0.62984250  1
  H  207  1  0.12280350  0.91582200  0.64245000  1
  H  208  1  0.31387650  0.80097500  0.67414400  1
  H  209  1  0.43687500  0.85528050  0.69385050  1
  H  210  1  0.29605950  0.94790950  0.60976850  1
  H  217  1  0.34087300  0.59600950  0.98688150  1
  H  226  1  0.18528950  0.61668150  0.98565650  1
  H  227  1  0.20321300  0.52873650  0.02011350  1
  H  228  1  0.16299950  0.54091650  0.00575550  1
  H  229  1  0.32475250  0.67914000  0.94097100  1
  H  230  1  0.37449250  0.65850500  0.93571200  1
  H  231  1  0.21306500  0.64887300  0.99535100  1
  H  232  1  0.28994850  0.58360000  0.02154100  1
  H  237  1  0.11005600  0.57496800  0.00895700  1
  H  238  1  0.21927650  0.68991100  0.97688900  1
  H  239  1  0.41558750  0.63640200  0.95799100  1
  H  240  1  0.28232350  0.54311750  0.04154550  1
  H  247  1  0.75153400  0.09734350  0.16368350  1
  H  256  1  0.59406000  0.11757050  0.16608150  1
  H  257  1  0.64590350  0.02990050  0.13066250  1
  H  258  1  0.59161100  0.04189750  0.14554750  1
  H  259  1  0.69308850  0.18162200  0.20785300  1
  H  260  1  0.73790100  0.16109550  0.21285950  1
  H  261  1  0.63042500  0.14979650  0.15655250  1
  H  262  1  0.73431900  0.08470550  0.12950650  1
  H  267  1  0.54173300  0.07596500  0.14292100  1
  H  268  1  0.61774600  0.19096100  0.17936800  1
  H  269  1  0.79954650  0.13810750  0.19068950  1
  H  270  1  0.74528300  0.04293700  0.11022700  1
  H  277  1  0.43968700  0.39426400  0.48851200  1
  H  286  1  0.30484050  0.37345250  0.48635350  1
  H  287  1  0.23534150  0.46138750  0.52102150  1
  H  288  1  0.20754700  0.44926000  0.50633200  1
  H  289  1  0.50852900  0.30994900  0.44431600  1
  H  290  1  0.53769050  0.33071400  0.43914200  1
  H  291  1  0.36358650  0.34137850  0.49603450  1
  H  292  1  0.37596400  0.40680400  0.52276100  1
  H  297  1  0.18858950  0.41508050  0.50928950  1
  H  298  1  0.41469900  0.30010100  0.47333400  1
  H  299  1  0.55473600  0.35378700  0.46122200  1
  H  300  1  0.32649650  0.44863300  0.54187200  1
  H  307  1  0.83918750  0.90846050  0.67722450  1
  H  316  1  0.68395050  0.90602200  0.69758800  1
  H  317  1  0.70141600  0.94152650  0.60987350  1
  H  318  1  0.66182250  0.92660200  0.62182800  1
  H  319  1  0.82362200  0.86427600  0.76156600  1
  H  320  1  0.87355050  0.85922600  0.74106200  1
  H  321  1  0.71053900  0.91570850  0.72980250  1
  H  322  1  0.78811850  0.94279200  0.66470500  1
  H  327  1  0.60920600  0.92903200  0.65594300  1
  H  328  1  0.72020200  0.89285400  0.77102000  1
  H  329  1  0.91350800  0.88124750  0.71788850  1
  H  330  1  0.78006550  0.96200200  0.62271400  1
  H  337  1  0.85339900  0.58352050  0.97435050  1
  H  346  1  0.71625900  0.58579400  0.95385100  1
  H  347  1  0.68075500  0.55041350  0.04153850  1
  H  348  1  0.63855400  0.56525900  0.02948300  1
  H  349  1  0.87872700  0.62804200  0.89028400  1
  H  350  1  0.90306500  0.63305400  0.91091700  1
  H  351  1  0.78459450  0.57637800  0.92166500  1
  H  352  1  0.82343450  0.54933150  0.98687550  1
  H  357  1  0.62256150  0.56254100  0.99536500  1
  H  358  1  0.81319200  0.59912300  0.88052900  1
  H  359  1  0.94177800  0.61085050  0.93386650  1
  H  360  1  0.79196200  0.53048650  0.02908850  1
  H  367  1  0.99683900  0.58484650  0.67618750  1
  H  376  1  0.13188900  0.58595150  0.69706450  1
  H  377  1  0.20021700  0.55206850  0.60893950  1
  H  378  1  0.22852200  0.56637400  0.62121200  1
  H  379  1  0.93128100  0.63079900  0.75928800  1
  H  380  1  0.90213750  0.63612100  0.73859000  1
  H  381  1  0.07198550  0.57621100  0.72920200  1
  H  382  1  0.05961500  0.55015250  0.66380250  1
  H  387  1  0.24804900  0.56276400  0.65524400  1
  H  388  1  0.02520500  0.59457600  0.77027600  1
  H  389  1  0.88247250  0.61383950  0.71651450  1
  H  390  1  0.10679400  0.52987050  0.62368650  1
  H  397  1  0.68568650  0.90704100  0.97536600  1
  H  406  1  0.84272200  0.90585750  0.95440850  1
  H  407  1  0.79018950  0.94024700  0.04235400  1
  H  408  1  0.84480150  0.92610500  0.03014200  1
  H  409  1  0.74746500  0.86108700  0.89217100  1
  H  410  1  0.70294900  0.85582200  0.91295400  1
  H  411  1  0.80538500  0.91556650  0.92228350  1
  H  412  1  0.70227000  0.94166750  0.98768550  1
  H  417  1  0.89462250  0.92929900  0.99595400  1
  H  418  1  0.81736250  0.89725450  0.88120750  1
  H  419  1  0.63966500  0.87807700  0.93514100  1
  H  420  1  0.68970350  0.96162550  0.02809150  1
  H  427  1  0.58594550  0.09638850  0.48721150  1
  H  436  1  0.72190550  0.11761900  0.48614000  1
  H  437  1  0.75631850  0.02955200  0.52039500  1
  H  438  1  0.79880350  0.04183050  0.50611050  1
  H  439  1  0.56589500  0.17956750  0.44126750  1
  H  440  1  0.54202900  0.15882700  0.43589300  1
  H  441  1  0.65236950  0.14970350  0.49597250  1
  H  442  1  0.61413300  0.08422650  0.52203450  1
  H  447  1  0.81473550  0.07600500  0.50948300  1
  H  448  1  0.62338050  0.19083150  0.47787950  1
  H  449  1  0.50073250  0.13643650  0.45800350  1
  H  450  1  0.64158550  0.04382500  0.54209900  1
  H  457  1  0.59689750  0.39568100  0.16505700  1
  H  466  1  0.75248950  0.37495150  0.16624550  1
  H  467  1  0.73462550  0.46290250  0.13180550  1
  H  468  1  0.77483950  0.45071000  0.14615900  1
  H  469  1  0.61287050  0.31247300  0.21091200  1
  H  470  1  0.56323400  0.33315850  0.21618850  1
  H  471  1  0.72465600  0.34277050  0.15652750  1
  H  472  1  0.64782600  0.40807000  0.13037600  1
  H  477  1  0.82776300  0.41664950  0.14294050  1
  H  478  1  0.71836950  0.30171850  0.17497850  1
  H  479  1  0.52214050  0.35530150  0.19394350  1
  H  480  1  0.65547750  0.44855900  0.11038800  1
  H  968  1  0.34356650  0.71978050  0.97045850  1
  H  970  1  0.20203900  0.71035300  0.03202800  1
  H  971  1  0.14073450  0.71915900  0.03249300  1
  H  972  1  0.16955700  0.74050600  0.03816500  1
  H  982  1  0.46145450  0.77253900  0.68091500  1
  H  984  1  0.37215600  0.78041200  0.61953200  1
  H  985  1  0.32061750  0.77087750  0.61919650  1
  H  986  1  0.37663400  0.75007450  0.61345350  1
  H  996  1  0.23822100  0.10111400  0.29978200  1
  H  998  1  0.15747800  0.03937450  0.29111350  1
  H  999  1  0.09661300  0.03879650  0.30034350  1
  H  1000  1  0.13153050  0.03315150  0.32136050  1
  H  1010  1  0.06622050  0.39056450  0.35257850  1
  H  1012  1  0.91598700  0.45186200  0.36086900  1
  H  1013  1  0.86394150  0.45212850  0.35162950  1
  H  1014  1  0.91427050  0.45783550  0.33058250  1
  H  1024  1  0.59382550  0.27203500  0.18127400  1
  H  1026  1  0.73587550  0.28119100  0.11989900  1
  H  1027  1  0.79710900  0.27229750  0.11956850  1
  H  1028  1  0.76821300  0.25100750  0.11383950  1
  H  1038  1  0.47566100  0.21907350  0.47119150  1
  H  1040  1  0.56518700  0.21136700  0.53247600  1
  H  1041  1  0.61665950  0.22099150  0.53275150  1
  H  1042  1  0.56055800  0.24172600  0.53854500  1
  H  1052  1  0.69875300  0.89073350  0.85207850  1
  H  1054  1  0.78000750  0.95225200  0.86079700  1
  H  1055  1  0.84095000  0.95269250  0.85163450  1
  H  1056  1  0.80616750  0.95839950  0.83055750  1
  H  1066  1  0.87099350  0.60095700  0.79942600  1
  H  1068  1  0.02151850  0.53984950  0.79110550  1
  H  1069  1  0.07359100  0.53971450  0.80026350  1
  H  1070  1  0.02338950  0.53397350  0.82138550  1
  H  1192  1  0.13803550  0.00078550  0.10568550  1
  H  1194  1  0.34620350  0.98023500  0.07890200  1
  H  1195  1  0.35422250  0.99589000  0.10198100  1
  H  1196  1  0.31274450  0.01013500  0.08555600  1
  H  1206  1  0.67341750  0.49062500  0.54624500  1
  H  1208  1  0.83315900  0.51181250  0.57375850  1
  H  1209  1  0.88006150  0.49627800  0.55081700  1
  H  1210  1  0.83606700  0.48188150  0.56695050  1
  H  1220  1  0.16869100  0.96558500  0.58097700  1
  H  1222  1  0.34952200  0.99340800  0.55972100  1
  H  1223  1  0.38091350  0.97045050  0.57519250  1
  H  1224  1  0.32291200  0.98655400  0.58965600  1
  H  1234  1  0.14432950  0.52493500  0.07079800  1
  H  1236  1  0.33115700  0.49901500  0.09224700  1
  H  1237  1  0.35484550  0.52207300  0.07649400  1
  H  1238  1  0.32788150  0.50533050  0.06222450  1
  H  1248  1  0.79859350  0.99094500  0.04631500  1
  H  1250  1  0.59040500  0.01163700  0.07295800  1
  H  1251  1  0.58241100  0.99598050  0.04987150  1
  H  1252  1  0.62379750  0.98172000  0.06634000  1
  H  1262  1  0.26325250  0.50125100  0.60543000  1
  H  1264  1  0.10357650  0.48007150  0.57787750  1
  H  1265  1  0.05665300  0.49556850  0.60083250  1
  H  1266  1  0.10062800  0.50999400  0.58473500  1
  H  1276  1  0.76888950  0.02620100  0.57092900  1
  H  1278  1  0.58811050  0.99832650  0.59213550  1
  H  1279  1  0.55671850  0.02127850  0.57665850  1
  H  1280  1  0.61473600  0.00518500  0.56220500  1
  H  1290  1  0.79346600  0.46672950  0.08113150  1
  H  1292  1  0.60662200  0.49266100  0.05969000  1
  H  1293  1  0.58294350  0.46959650  0.07543550  1
  H  1294  1  0.60989850  0.48633800  0.08971200  1
  H  1416  1  0.03954650  0.91941850  0.99612750  1
  H  1418  1  0.06946750  0.88054150  0.90749250  1
  H  1419  1  0.12034100  0.85655900  0.90507100  1
  H  1420  1  0.11954350  0.88376550  0.91728450  1
  H  1430  1  0.38361650  0.57247900  0.65509400  1
  H  1432  1  0.28813550  0.60972400  0.74438500  1
  H  1433  1  0.31305100  0.63364100  0.74721600  1
  H  1434  1  0.35107050  0.60669100  0.73440000  1
  H  1444  1  0.95993000  0.07562750  0.49972450  1
  H  1446  1  0.90325200  0.16449950  0.46138050  1
  H  1447  1  0.95200300  0.16699550  0.43741850  1
  H  1448  1  0.96299150  0.15452300  0.46453100  1
  H  1458  1  0.96311750  0.41661800  0.15277200  1
  H  1460  1  0.95455050  0.32741950  0.19016750  1
  H  1461  1  0.98201000  0.32455000  0.21407700  1
  H  1462  1  0.00784100  0.33725450  0.18708650  1
  H  1472  1  0.05343250  0.41505250  0.49974850  1
  H  1474  1  0.14833850  0.32509900  0.46383500  1
  H  1475  1  0.12331250  0.32180450  0.44018650  1
  H  1476  1  0.08540400  0.33492200  0.46706600  1
  H  1486  1  0.39668050  0.07619150  0.15256750  1
  H  1488  1  0.36868250  0.16604900  0.18850000  1
  H  1489  1  0.31677350  0.16943650  0.21214850  1
  H  1490  1  0.31842000  0.15635950  0.18526850  1
  H  1500  1  0.47380700  0.91934800  0.65609200  1
  H  1502  1  0.47980450  0.88376200  0.74610200  1
  H  1503  1  0.45115850  0.86012950  0.74956350  1
  H  1504  1  0.42652000  0.88695900  0.73637100  1
  H  1514  1  0.47793800  0.57207300  0.99521500  1
  H  1516  1  0.53860800  0.60854350  0.90551850  1
  H  1517  1  0.49016800  0.63217200  0.90228700  1
  H  1518  1  0.47881350  0.60519100  0.91519800  1
  H  1528  1  0.89711050  0.07227700  0.15589800  1
  H  1530  1  0.86707100  0.11104700  0.24457700  1
  H  1531  1  0.81620700  0.13503650  0.24701050  1
  H  1532  1  0.81701650  0.10785400  0.23474600  1
  H  1542  1  0.55312800  0.41931600  0.49653400  1
  H  1544  1  0.64899500  0.38152300  0.40746600  1
  H  1545  1  0.62405800  0.35757550  0.40477150  1
  H  1546  1  0.58603850  0.38460700  0.41739100  1
  H  1556  1  0.97760550  0.91618750  0.65220250  1
  H  1558  1  0.03435000  0.82730000  0.69051400  1
  H  1559  1  0.98559550  0.82478800  0.71446700  1
  H  1560  1  0.97461500  0.83726750  0.68735550  1
  H  1570  1  0.97465500  0.57504000  0.99915000  1
  H  1572  1  0.98325350  0.66425950  0.96181250  1
  H  1573  1  0.95574500  0.66715950  0.93792050  1
  H  1574  1  0.92994050  0.65444150  0.96490750  1
  H  1584  1  0.88332000  0.57676300  0.65209300  1
  H  1586  1  0.78759150  0.66640900  0.68881500  1
  H  1587  1  0.81269800  0.66953750  0.71248350  1
  H  1588  1  0.85057850  0.65673550  0.68546150  1
  H  1598  1  0.53996950  0.91564550  0.99932550  1
  H  1600  1  0.56788350  0.82580150  0.96335150  1
  H  1601  1  0.61980850  0.82241200  0.93971100  1
  H  1602  1  0.61815850  0.83546550  0.96660450  1
  H  1612  1  0.46384250  0.07234950  0.49572650  1
  H  1614  1  0.45789600  0.10794700  0.40571800  1
  H  1615  1  0.48652300  0.13158600  0.40226900  1
  H  1616  1  0.51116350  0.10475750  0.41546150  1
  H  1626  1  0.45976350  0.41966400  0.15677800  1
  H  1628  1  0.39921800  0.38317000  0.24646700  1
  H  1629  1  0.44765250  0.35952700  0.24967500  1
  H  1630  1  0.45902150  0.38650450  0.23676050  1
  N  8  1  0.21909750  0.82442950  0.94979850  1
  N  15  1  0.31489850  0.94740300  0.01601500  1
  N  38  1  0.42375700  0.66718850  0.70206350  1
  N  45  1  0.70627950  0.54495900  0.63578800  1
  N  68  1  0.09502700  0.12187850  0.40476150  1
  N  75  1  0.25509750  0.05564800  0.52741600  1
  N  98  1  0.04868800  0.36936450  0.24734950  1
  N  105  1  0.26672200  0.43608350  0.12502550  1
  N  128  1  0.01117200  0.36654200  0.40675400  1
  N  135  1  0.73104000  0.43515150  0.52812850  1
  N  158  1  0.21421250  0.12493300  0.24558700  1
  N  165  1  0.12196750  0.05626300  0.12430100  1
  N  188  1  0.38254350  0.82643150  0.70496950  1
  N  195  1  0.17152200  0.94758000  0.63638800  1
  N  218  1  0.34419600  0.66509600  0.94676300  1
  N  225  1  0.18365000  0.54332800  0.01532600  1
  N  248  1  0.71761250  0.16729550  0.20218650  1
  N  255  1  0.62167100  0.04442950  0.13589650  1
  N  278  1  0.51297550  0.32441850  0.44989350  1
  N  285  1  0.23060000  0.44678750  0.51587350  1
  N  308  1  0.84251900  0.86986150  0.74711450  1
  N  315  1  0.68256400  0.93609350  0.62441850  1
  N  338  1  0.88899500  0.62234750  0.90461450  1
  N  345  1  0.67101250  0.55563100  0.02698900  1
  N  368  1  0.92566100  0.62502800  0.74522800  1
  N  375  1  0.20549950  0.55673750  0.62356150  1
  N  398  1  0.72248250  0.86685050  0.90634050  1
  N  405  1  0.81459550  0.93547900  0.02772100  1
  N  428  1  0.55495950  0.16533550  0.44695650  1
  N  435  1  0.76609200  0.04421850  0.51551750  1
  N  458  1  0.59356300  0.32657750  0.20514350  1
  N  465  1  0.75418000  0.44830550  0.13658850  1
  N  964  1  0.30627450  0.75425400  0.97852700  1
  N  966  1  0.22401900  0.76073850  0.99504850  1
  N  973  1  0.25654950  0.79276800  0.98614400  1
  N  974  1  0.27669450  0.69792000  0.98245000  1
  N  978  1  0.46754150  0.73785600  0.67287200  1
  N  980  1  0.40875600  0.73044850  0.65647050  1
  N  987  1  0.46488150  0.69899450  0.66532550  1
  N  988  1  0.38453950  0.79345600  0.66909100  1
  N  992  1  0.20949450  0.09293450  0.33436450  1
  N  994  1  0.14357900  0.07628050  0.34135650  1
  N  1001  1  0.16785950  0.08522000  0.37306700  1
  N  1002  1  0.18267400  0.08908650  0.27845450  1
  N  1006  1  0.06413400  0.39847650  0.31795050  1
  N  1008  1  0.98891200  0.41477750  0.31086150  1
  N  1015  1  0.05378500  0.40589900  0.27920500  1
  N  1016  1  0.97754750  0.40236250  0.37383350  1
  N  1020  1  0.63095550  0.23752700  0.17327300  1
  N  1022  1  0.71327700  0.23090900  0.15689200  1
  N  1029  1  0.68049400  0.19896050  0.16576150  1
  N  1030  1  0.66090700  0.29376550  0.16940650  1
  N  1034  1  0.46941150  0.25377750  0.47922350  1
  N  1036  1  0.52818400  0.26129000  0.49556600  1
  N  1043  1  0.47194200  0.29267600  0.48671000  1
  N  1044  1  0.55272500  0.19826500  0.48293200  1
  N  1048  1  0.72772150  0.89883500  0.81750500  1
  N  1050  1  0.79382950  0.91533600  0.81057800  1
  N  1057  1  0.76960150  0.90646300  0.77882400  1
  N  1058  1  0.75431500  0.90264300  0.87347900  1
  N  1062  1  0.87325700  0.59314450  0.83404650  1
  N  1064  1  0.94858400  0.57698450  0.84107050  1
  N  1071  1  0.88378800  0.58583250  0.87276950  1
  N  1072  1  0.95962650  0.58925800  0.77809600  1
  N  1188  1  0.18337350  0.97364200  0.08418800  1
  N  1190  1  0.26344650  0.96426500  0.08572200  1
  N  1197  1  0.24250400  0.94512300  0.05890100  1
  N  1198  1  0.19514300  0.01397050  0.12479950  1
  N  1202  1  0.66997050  0.51802850  0.56761550  1
  N  1204  1  0.74202750  0.52772850  0.56630350  1
  N  1211  1  0.67509150  0.54687600  0.59281400  1
  N  1212  1  0.76270650  0.47759400  0.52754300  1
  N  1216  1  0.19226300  0.98717250  0.55371050  1
  N  1218  1  0.27381800  0.98602600  0.54397200  1
  N  1225  1  0.22585050  0.01256950  0.52497450  1
  N  1226  1  0.24505750  0.94688350  0.59384150  1
  N  1230  1  0.16226700  0.50372150  0.09818050  1
  N  1232  1  0.23268500  0.50559400  0.10780400  1
  N  1239  1  0.19233750  0.47887000  0.12712600  1
  N  1240  1  0.21447750  0.54422600  0.05773100  1
  N  1244  1  0.75326900  0.01811500  0.06778100  1
  N  1246  1  0.67322500  0.02754000  0.06619100  1
  N  1253  1  0.69414700  0.04667000  0.09303100  1
  N  1254  1  0.74150700  0.97779250  0.02716150  1
  N  1258  1  0.26673550  0.47383950  0.58405850  1
  N  1260  1  0.19469700  0.46412350  0.58536150  1
  N  1267  1  0.26166000  0.44496450  0.55887650  1
  N  1268  1  0.17396000  0.51425800  0.62413200  1
  N  1272  1  0.74532500  0.00459950  0.59818350  1
  N  1274  1  0.66378150  0.00572400  0.60790000  1
  N  1281  1  0.71174850  0.97918450  0.62690050  1
  N  1282  1  0.69253350  0.04488650  0.55804950  1
  N  1286  1  0.77550700  0.48796400  0.05376600  1
  N  1288  1  0.70508350  0.48609950  0.04414450  1
  N  1295  1  0.74541000  0.51283950  0.02484350  1
  N  1296  1  0.72332700  0.44743150  0.09418850  1
  N  1412  1  0.98457500  0.91458650  0.98337950  1
  N  1414  1  0.00231700  0.88563800  0.95449700  1
  N  1421  1  0.92244400  0.90562400  0.96906800  1
  N  1422  1  0.11004350  0.88637650  0.97468750  1
  N  1426  1  0.31122600  0.57719900  0.66795700  1
  N  1428  1  0.27205400  0.60566500  0.69734300  1
  N  1435  1  0.22609150  0.58602850  0.68248050  1
  N  1436  1  0.40053700  0.60518600  0.67696300  1
  N  1440  1  0.89244600  0.08850250  0.49488350  1
  N  1442  1  0.88214000  0.11755000  0.46607400  1
  N  1449  1  0.81631550  0.10297650  0.48591950  1
  N  1450  1  0.00979800  0.09708450  0.46678150  1
  N  1454  1  0.90324800  0.40387050  0.15748250  1
  N  1456  1  0.89248950  0.37454550  0.18599150  1
  N  1463  1  0.83220000  0.38948500  0.16629600  1
  N  1464  1  0.00115150  0.39465950  0.18546450  1
  N  1468  1  0.12569250  0.40216700  0.49505900  1
  N  1470  1  0.16467450  0.37229350  0.46709650  1
  N  1477  1  0.21071250  0.38762250  0.48631450  1
  N  1478  1  0.03636350  0.39254050  0.46767450  1
  N  1482  1  0.45187200  0.08892150  0.15725350  1
  N  1484  1  0.43397100  0.11877400  0.18522300  1
  N  1491  1  0.51409850  0.10338400  0.16595100  1
  N  1492  1  0.32569900  0.09879100  0.18466800  1
  N  1496  1  0.53339900  0.91471100  0.66888400  1
  N  1498  1  0.54260600  0.88684750  0.69883750  1
  N  1505  1  0.60396000  0.90606700  0.68341000  1
  N  1506  1  0.43415750  0.88733150  0.67876550  1
  N  1510  1  0.54567500  0.57686200  0.98246300  1
  N  1512  1  0.55733900  0.60500150  0.95276150  1
  N  1519  1  0.62217300  0.58569050  0.96804450  1
  N  1520  1  0.42943250  0.60422950  0.97278250  1
  N  1524  1  0.95206400  0.07709950  0.16866650  1
  N  1526  1  0.93429100  0.10602200  0.19757800  1
  N  1533  1  0.01417950  0.08605900  0.18299300  1
  N  1534  1  0.82659950  0.10531000  0.17734200  1
  N  1538  1  0.62553900  0.41455450  0.48371750  1
  N  1540  1  0.66478700  0.38592500  0.45449900  1
  N  1547  1  0.71069450  0.40567200  0.46927200  1
  N  1548  1  0.53626300  0.38647150  0.47483450  1
  N  1552  1  0.04509250  0.90331750  0.65704150  1
  N  1554  1  0.05541400  0.87425650  0.68583950  1
  N  1561  1  0.12122850  0.88884000  0.66600000  1
  N  1562  1  0.92775550  0.89470400  0.68512800  1
  N  1566  1  0.03454100  0.58777550  0.99443650  1
  N  1568  1  0.04528350  0.61711950  0.96594950  1
  N  1575  1  0.10559400  0.60215250  0.98562350  1
  N  1576  1  0.93659000  0.59703500  0.96648400  1
  N  1580  1  0.81102400  0.58955500  0.65684600  1
  N  1582  1  0.77189250  0.61920050  0.68503750  1
  N  1589  1  0.72597350  0.60398500  0.66565300  1
  N  1590  1  0.90028550  0.59908850  0.68433550  1
  N  1594  1  0.48476400  0.90292900  0.99463300  1
  N  1596  1  0.50265150  0.87308400  0.96665600  1
  N  1603  1  0.42253400  0.88847200  0.98593700  1
  N  1604  1  0.61094650  0.89303450  0.96722850  1
  N  1608  1  0.40425950  0.07698750  0.48292850  1
  N  1610  1  0.39505600  0.10485850  0.45297850  1
  N  1617  1  0.33369050  0.08564300  0.46840400  1
  N  1618  1  0.50348100  0.10437850  0.47307050  1
  N  1622  1  0.39202700  0.41487700  0.16954500  1
  N  1624  1  0.38039050  0.38672650  0.19923750  1
  N  1631  1  0.31553100  0.40604700  0.18397500  1
  N  1632  1  0.50830000  0.38748650  0.17917950  1
  O  967  1  0.18443700  0.72994950  0.00261050  1
  O  981  1  0.34548000  0.76055850  0.64901450  1
  O  995  1  0.11085250  0.06871250  0.31093950  1
  O  1009  1  0.91831150  0.42230250  0.34122250  1
  O  1023  1  0.75310250  0.26160700  0.14939400  1
  O  1037  1  0.59163250  0.23125950  0.50297250  1
  O  1051  1  0.82649450  0.92283550  0.84104350  1
  O  1065  1  0.01909550  0.56949800  0.81065200  1
  O  1191  1  0.29191400  0.98464750  0.11054350  1
  O  1205  1  0.81568600  0.50735950  0.54188750  1
  O  1219  1  0.32732050  0.96152200  0.56416200  1
  O  1233  1  0.28149600  0.53045300  0.08739800  1
  O  1247  1  0.64477400  0.00717150  0.04134750  1
  O  1261  1  0.12102100  0.48448100  0.60976700  1
  O  1275  1  0.61028350  0.03022000  0.58770400  1
  O  1289  1  0.65629050  0.46122550  0.06453350  1
  O  1415  1  0.07815750  0.86259550  0.93912450  1
  O  1429  1  0.31021950  0.62831950  0.71309650  1
  O  1443  1  0.94316650  0.13296100  0.44319500  1
  O  1457  1  0.94584500  0.35871600  0.20868000  1
  O  1471  1  0.12638050  0.35607450  0.44490950  1
  O  1485  1  0.35774600  0.13511400  0.20742800  1
  O  1499  1  0.48801500  0.86471500  0.71523200  1
  O  1513  1  0.49732600  0.62725950  0.93657650  1
  O  1527  1  0.85843350  0.12904350  0.21296050  1
  O  1541  1  0.62669650  0.36313850  0.43886950  1
  O  1555  1  0.99439950  0.85882950  0.70870750  1
  O  1569  1  0.99189500  0.63298200  0.94328500  1
  O  1583  1  0.81004500  0.63527300  0.70741300  1
  O  1597  1  0.57887100  0.85674150  0.94444550  1
  O  1611  1  0.44964650  0.12699300  0.43659500  1
  O  1625  1  0.44042800  0.36445600  0.21539700  1
