# generated using pymatgen
data_H24C37N8
_symmetry_space_group_name_H-M   'P 1'
_cell_length_a   27.35780000
_cell_length_b   37.17980000
_cell_length_c   37.17980000
_cell_angle_alpha   90.00000000
_cell_angle_beta   90.00000000
_cell_angle_gamma   90.00000000
_symmetry_Int_Tables_number   1
_chemical_formula_structural   H24C37N8
_chemical_formula_sum   'H288 C444 N96'
_cell_volume   37817.71362461
_cell_formula_units_Z   12
loop_
 _symmetry_equiv_pos_site_id
 _symmetry_equiv_pos_as_xyz
  1  'x, y, z'
loop_
 _atom_site_type_symbol
 _atom_site_label
 _atom_site_symmetry_multiplicity
 _atom_site_fract_x
 _atom_site_fract_y
 _atom_site_fract_z
 _atom_site_occupancy
  H  26  1  0.92901100  0.93723300  0.42504900  1
  H  27  1  0.99049600  0.94730100  0.38047300  1
  H  28  1  0.87562600  0.04214300  0.40886500  1
  H  29  1  0.93664300  0.05251200  0.36522300  1
  H  30  1  0.02794400  0.06990500  0.37755200  1
  H  31  1  0.08936200  0.08227500  0.42138800  1
  H  32  1  0.14393500  0.97705300  0.40970400  1
  H  33  1  0.08279300  0.96444700  0.36672600  1
  H  34  1  0.09129300  0.00271200  0.29703300  1
  H  35  1  0.11775000  0.95778700  0.25604800  1
  H  36  1  0.98775100  0.89978800  0.27397400  1
  H  37  1  0.96076000  0.94494700  0.31487800  1
  H  38  1  0.92677000  0.01013100  0.29780500  1
  H  39  1  0.05593100  0.07051100  0.31206800  1
  H  40  1  0.02663200  0.11378800  0.26993500  1
  H  45  1  0.89787500  0.05299400  0.25621800  1
  H  71  1  0.42908400  0.07728400  0.58946300  1
  H  72  1  0.49057300  0.06719700  0.63402500  1
  H  73  1  0.37543200  0.97248100  0.60583200  1
  H  74  1  0.43646000  0.96209400  0.64946400  1
  H  75  1  0.52777600  0.94465700  0.63702400  1
  H  76  1  0.58911100  0.93224700  0.59314000  1
  H  77  1  0.64391500  0.03740000  0.60485100  1
  H  78  1  0.58283900  0.05004700  0.64787400  1
  H  79  1  0.59124600  0.01187700  0.71758700  1
  H  80  1  0.61767400  0.05683300  0.75856300  1
  H  81  1  0.48769600  0.11482500  0.74052700  1
  H  82  1  0.46074200  0.06964700  0.69964200  1
  H  83  1  0.42678800  0.00450600  0.71685300  1
  H  84  1  0.55584500  0.94403000  0.70251100  1
  H  85  1  0.52652600  0.90077000  0.74465000  1
  H  90  1  0.39787500  0.96166300  0.75844800  1
  H  116  1  0.17924100  0.58948800  0.93726300  1
  H  117  1  0.24068200  0.63408700  0.94735400  1
  H  118  1  0.12551700  0.60587800  0.04204300  1
  H  119  1  0.18648300  0.64954200  0.05242500  1
  H  120  1  0.27767200  0.63706700  0.06990000  1
  H  121  1  0.33892400  0.59315100  0.08237400  1
  H  122  1  0.39401900  0.60487500  0.97730600  1
  H  123  1  0.33300900  0.64793900  0.96459500  1
  H  124  1  0.34129200  0.71764600  0.00281700  1
  H  125  1  0.36786900  0.75860400  0.95791700  1
  H  126  1  0.23808300  0.74058100  0.89968300  1
  H  127  1  0.21096900  0.69970600  0.94482900  1
  H  128  1  0.17688400  0.71696800  0.01000500  1
  H  129  1  0.30582200  0.70254400  0.07059600  1
  H  130  1  0.27646800  0.74468000  0.11385000  1
  H  135  1  0.14793900  0.75857100  0.05284000  1
  H  161  1  0.67923900  0.42520500  0.07730300  1
  H  162  1  0.74072100  0.38063500  0.06720800  1
  H  163  1  0.62541500  0.40871400  0.97256400  1
  H  164  1  0.68642200  0.36507800  0.96217200  1
  H  165  1  0.77767500  0.37762200  0.94473500  1
  H  166  1  0.83899200  0.42149300  0.93225500  1
  H  167  1  0.89413900  0.40969900  0.03729900  1
  H  168  1  0.83307100  0.36668100  0.05003000  1
  H  169  1  0.84127000  0.29700000  0.01187200  1
  H  170  1  0.86774100  0.25603400  0.05681300  1
  H  171  1  0.73788800  0.27415500  0.11493500  1
  H  172  1  0.71088300  0.31503200  0.06976000  1
  H  173  1  0.67689300  0.29771000  0.00457900  1
  H  174  1  0.80588300  0.31214600  0.94404300  1
  H  175  1  0.77658300  0.26999400  0.90079100  1
  H  180  1  0.64799000  0.25610600  0.96173900  1
  H  186  1  0.81064600  0.16848600  0.13222700  1
  H  187  1  0.83148800  0.11764100  0.16914700  1
  H  190  1  0.89851100  0.08797400  0.20334600  1
  H  192  1  0.88818900  0.24971200  0.12746200  1
  H  198  1  0.31125500  0.84636100  0.88303400  1
  H  199  1  0.33191900  0.89717400  0.84601400  1
  H  202  1  0.39846400  0.92665200  0.81128000  1
  H  204  1  0.38821100  0.76476600  0.88683500  1
  H  210  1  0.06074100  0.88259900  0.16833100  1
  H  211  1  0.08153500  0.84567000  0.11748600  1
  H  214  1  0.14886800  0.81161900  0.08788000  1
  H  216  1  0.13806400  0.88708500  0.24967800  1
  H  222  1  0.56034800  0.13248400  0.84608100  1
  H  223  1  0.58137000  0.16929300  0.89696700  1
  H  226  1  0.64845500  0.20339500  0.92673600  1
  H  228  1  0.63820500  0.12730900  0.76508800  1
  H  234  1  0.66771400  0.98112300  0.49860700  1
  H  235  1  0.71824500  0.98157200  0.44556000  1
  H  238  1  0.80116100  0.99804600  0.42141800  1
  H  240  1  0.71961900  0.99236500  0.58993400  1
  H  246  1  0.16763100  0.03289200  0.51591800  1
  H  247  1  0.21810700  0.03264600  0.56899800  1
  H  250  1  0.30108000  0.01665300  0.59321500  1
  H  252  1  0.22004000  0.02260900  0.42462400  1
  H  258  1  0.91782900  0.51598500  0.98069200  1
  H  259  1  0.96834900  0.56904100  0.98122800  1
  H  262  1  0.05119000  0.59321000  0.99790900  1
  H  264  1  0.96958400  0.42472300  0.99258300  1
  H  270  1  0.41774200  0.49860200  0.03390500  1
  H  271  1  0.46828300  0.44555400  0.03335800  1
  H  274  1  0.55114100  0.42139900  0.01670100  1
  H  276  1  0.46948900  0.58987200  0.02204100  1
  H  302  1  0.92901100  0.93723300  0.72090900  1
  H  303  1  0.99049600  0.94730100  0.67633300  1
  H  304  1  0.87562600  0.04214300  0.70472500  1
  H  305  1  0.93664300  0.05251200  0.66108300  1
  H  306  1  0.02794400  0.06990500  0.67341200  1
  H  307  1  0.08936200  0.08227500  0.71724800  1
  H  308  1  0.14393500  0.97705300  0.70556400  1
  H  309  1  0.08279300  0.96444700  0.66258600  1
  H  310  1  0.09129300  0.00271200  0.59289300  1
  H  311  1  0.11775000  0.95778700  0.55190800  1
  H  312  1  0.98775100  0.89978800  0.56983400  1
  H  313  1  0.96076000  0.94494700  0.61073800  1
  H  314  1  0.92677000  0.01013100  0.59366500  1
  H  315  1  0.05593100  0.07051100  0.60792800  1
  H  316  1  0.02663200  0.11378800  0.56579500  1
  H  321  1  0.89787500  0.05299400  0.55207800  1
  H  347  1  0.42908400  0.07728400  0.88532300  1
  H  348  1  0.49057300  0.06719700  0.92988500  1
  H  349  1  0.37543200  0.97248100  0.90169200  1
  H  350  1  0.43646000  0.96209400  0.94532400  1
  H  351  1  0.52777600  0.94465700  0.93288400  1
  H  352  1  0.58911100  0.93224700  0.88900000  1
  H  353  1  0.64391500  0.03740000  0.90071100  1
  H  354  1  0.58283900  0.05004700  0.94373400  1
  H  355  1  0.59124600  0.01187700  0.01344660  1
  H  356  1  0.61767400  0.05683300  0.05442260  1
  H  357  1  0.48769600  0.11482500  0.03638660  1
  H  358  1  0.46074200  0.06964700  0.99550200  1
  H  359  1  0.42678800  0.00450600  0.01271260  1
  H  360  1  0.55584500  0.94403000  0.99837100  1
  H  361  1  0.52652600  0.90077000  0.04050960  1
  H  366  1  0.39787500  0.96166300  0.05430760  1
  H  392  1  0.17924100  0.58948800  0.23312300  1
  H  393  1  0.24068200  0.63408700  0.24321400  1
  H  394  1  0.12551700  0.60587800  0.33790300  1
  H  395  1  0.18648300  0.64954200  0.34828500  1
  H  396  1  0.27767200  0.63706700  0.36576000  1
  H  397  1  0.33892400  0.59315100  0.37823400  1
  H  398  1  0.39401900  0.60487500  0.27316600  1
  H  399  1  0.33300900  0.64793900  0.26045500  1
  H  400  1  0.34129200  0.71764600  0.29867700  1
  H  401  1  0.36786900  0.75860400  0.25377700  1
  H  402  1  0.23808300  0.74058100  0.19554300  1
  H  403  1  0.21096900  0.69970600  0.24068900  1
  H  404  1  0.17688400  0.71696800  0.30586500  1
  H  405  1  0.30582200  0.70254400  0.36645600  1
  H  406  1  0.27646800  0.74468000  0.40971000  1
  H  411  1  0.14793900  0.75857100  0.34870000  1
  H  437  1  0.67923900  0.42520500  0.37316300  1
  H  438  1  0.74072100  0.38063500  0.36306800  1
  H  439  1  0.62541500  0.40871400  0.26842400  1
  H  440  1  0.68642200  0.36507800  0.25803200  1
  H  441  1  0.77767500  0.37762200  0.24059500  1
  H  442  1  0.83899200  0.42149300  0.22811500  1
  H  443  1  0.89413900  0.40969900  0.33315900  1
  H  444  1  0.83307100  0.36668100  0.34589000  1
  H  445  1  0.84127000  0.29700000  0.30773200  1
  H  446  1  0.86774100  0.25603400  0.35267300  1
  H  447  1  0.73788800  0.27415500  0.41079500  1
  H  448  1  0.71088300  0.31503200  0.36562000  1
  H  449  1  0.67689300  0.29771000  0.30043900  1
  H  450  1  0.80588300  0.31214600  0.23990300  1
  H  451  1  0.77658300  0.26999400  0.19665100  1
  H  456  1  0.64799000  0.25610600  0.25759900  1
  H  462  1  0.81064600  0.16848600  0.42808700  1
  H  463  1  0.83148800  0.11764100  0.46500700  1
  H  466  1  0.89851100  0.08797400  0.49920600  1
  H  468  1  0.88818900  0.24971200  0.42332200  1
  H  474  1  0.31125500  0.84636100  0.17889400  1
  H  475  1  0.33191900  0.89717400  0.14187400  1
  H  478  1  0.39846400  0.92665200  0.10714000  1
  H  480  1  0.38821100  0.76476600  0.18269500  1
  H  486  1  0.06074100  0.88259900  0.46419100  1
  H  487  1  0.08153500  0.84567000  0.41334600  1
  H  490  1  0.14886800  0.81161900  0.38374000  1
  H  492  1  0.13806400  0.88708500  0.54553800  1
  H  498  1  0.56034800  0.13248400  0.14194100  1
  H  499  1  0.58137000  0.16929300  0.19282700  1
  H  502  1  0.64845500  0.20339500  0.22259600  1
  H  504  1  0.63820500  0.12730900  0.06094760  1
  H  510  1  0.66771400  0.98112300  0.79446700  1
  H  511  1  0.71824500  0.98157200  0.74142000  1
  H  514  1  0.80116100  0.99804600  0.71727800  1
  H  516  1  0.71961900  0.99236500  0.88579400  1
  H  522  1  0.16763100  0.03289200  0.81177800  1
  H  523  1  0.21810700  0.03264600  0.86485800  1
  H  526  1  0.30108000  0.01665300  0.88907500  1
  H  528  1  0.22004000  0.02260900  0.72048400  1
  H  534  1  0.91782900  0.51598500  0.27655200  1
  H  535  1  0.96834900  0.56904100  0.27708800  1
  H  538  1  0.05119000  0.59321000  0.29376900  1
  H  540  1  0.96958400  0.42472300  0.28844300  1
  H  546  1  0.41774200  0.49860200  0.32976500  1
  H  547  1  0.46828300  0.44555400  0.32921800  1
  H  550  1  0.55114100  0.42139900  0.31256100  1
  H  552  1  0.46948900  0.58987200  0.31790100  1
  H  578  1  0.92901100  0.93723300  0.01676820  1
  H  579  1  0.99049600  0.94730100  0.97219200  1
  H  580  1  0.87562600  0.04214300  0.00058416  1
  H  581  1  0.93664300  0.05251200  0.95694200  1
  H  582  1  0.02794400  0.06990500  0.96927100  1
  H  583  1  0.08936200  0.08227500  0.01310720  1
  H  584  1  0.14393500  0.97705300  0.00142316  1
  H  585  1  0.08279300  0.96444700  0.95844500  1
  H  586  1  0.09129300  0.00271200  0.88875200  1
  H  587  1  0.11775000  0.95778700  0.84776700  1
  H  588  1  0.98775100  0.89978800  0.86569300  1
  H  589  1  0.96076000  0.94494700  0.90659700  1
  H  590  1  0.92677000  0.01013100  0.88952400  1
  H  591  1  0.05593100  0.07051100  0.90378700  1
  H  592  1  0.02663200  0.11378800  0.86165400  1
  H  597  1  0.89787500  0.05299400  0.84793700  1
  H  623  1  0.42908400  0.07728400  0.18118200  1
  H  624  1  0.49057300  0.06719700  0.22574400  1
  H  625  1  0.37543200  0.97248100  0.19755100  1
  H  626  1  0.43646000  0.96209400  0.24118300  1
  H  627  1  0.52777600  0.94465700  0.22874300  1
  H  628  1  0.58911100  0.93224700  0.18485900  1
  H  629  1  0.64391500  0.03740000  0.19657000  1
  H  630  1  0.58283900  0.05004700  0.23959300  1
  H  631  1  0.59124600  0.01187700  0.30930600  1
  H  632  1  0.61767400  0.05683300  0.35028200  1
  H  633  1  0.48769600  0.11482500  0.33224600  1
  H  634  1  0.46074200  0.06964700  0.29136100  1
  H  635  1  0.42678800  0.00450600  0.30857200  1
  H  636  1  0.55584500  0.94403000  0.29423000  1
  H  637  1  0.52652600  0.90077000  0.33636900  1
  H  642  1  0.39787500  0.96166300  0.35016700  1
  H  668  1  0.17924100  0.58948800  0.52898200  1
  H  669  1  0.24068200  0.63408700  0.53907300  1
  H  670  1  0.12551700  0.60587800  0.63376200  1
  H  671  1  0.18648300  0.64954200  0.64414400  1
  H  672  1  0.27767200  0.63706700  0.66161900  1
  H  673  1  0.33892400  0.59315100  0.67409300  1
  H  674  1  0.39401900  0.60487500  0.56902500  1
  H  675  1  0.33300900  0.64793900  0.55631400  1
  H  676  1  0.34129200  0.71764600  0.59453600  1
  H  677  1  0.36786900  0.75860400  0.54963600  1
  H  678  1  0.23808300  0.74058100  0.49140200  1
  H  679  1  0.21096900  0.69970600  0.53654800  1
  H  680  1  0.17688400  0.71696800  0.60172400  1
  H  681  1  0.30582200  0.70254400  0.66231500  1
  H  682  1  0.27646800  0.74468000  0.70556900  1
  H  687  1  0.14793900  0.75857100  0.64455900  1
  H  713  1  0.67923900  0.42520500  0.66902200  1
  H  714  1  0.74072100  0.38063500  0.65892700  1
  H  715  1  0.62541500  0.40871400  0.56428300  1
  H  716  1  0.68642200  0.36507800  0.55389100  1
  H  717  1  0.77767500  0.37762200  0.53645400  1
  H  718  1  0.83899200  0.42149300  0.52397400  1
  H  719  1  0.89413900  0.40969900  0.62901800  1
  H  720  1  0.83307100  0.36668100  0.64174900  1
  H  721  1  0.84127000  0.29700000  0.60359100  1
  H  722  1  0.86774100  0.25603400  0.64853200  1
  H  723  1  0.73788800  0.27415500  0.70665400  1
  H  724  1  0.71088300  0.31503200  0.66147900  1
  H  725  1  0.67689300  0.29771000  0.59629800  1
  H  726  1  0.80588300  0.31214600  0.53576200  1
  H  727  1  0.77658300  0.26999400  0.49251000  1
  H  732  1  0.64799000  0.25610600  0.55345800  1
  H  738  1  0.81064600  0.16848600  0.72394600  1
  H  739  1  0.83148800  0.11764100  0.76086600  1
  H  742  1  0.89851100  0.08797400  0.79506500  1
  H  744  1  0.88818900  0.24971200  0.71918100  1
  H  750  1  0.31125500  0.84636100  0.47475300  1
  H  751  1  0.33191900  0.89717400  0.43773300  1
  H  754  1  0.39846400  0.92665200  0.40299900  1
  H  756  1  0.38821100  0.76476600  0.47855400  1
  H  762  1  0.06074100  0.88259900  0.76005000  1
  H  763  1  0.08153500  0.84567000  0.70920500  1
  H  766  1  0.14886800  0.81161900  0.67959900  1
  H  768  1  0.13806400  0.88708500  0.84139700  1
  H  774  1  0.56034800  0.13248400  0.43780000  1
  H  775  1  0.58137000  0.16929300  0.48868600  1
  H  778  1  0.64845500  0.20339500  0.51845500  1
  H  780  1  0.63820500  0.12730900  0.35680700  1
  H  786  1  0.66771400  0.98112300  0.09032620  1
  H  787  1  0.71824500  0.98157200  0.03727920  1
  H  790  1  0.80116100  0.99804600  0.01313720  1
  H  792  1  0.71961900  0.99236500  0.18165300  1
  H  798  1  0.16763100  0.03289200  0.10763700  1
  H  799  1  0.21810700  0.03264600  0.16071700  1
  H  802  1  0.30108000  0.01665300  0.18493400  1
  H  804  1  0.22004000  0.02260900  0.01634320  1
  H  810  1  0.91782900  0.51598500  0.57241100  1
  H  811  1  0.96834900  0.56904100  0.57294700  1
  H  814  1  0.05119000  0.59321000  0.58962800  1
  H  816  1  0.96958400  0.42472300  0.58430200  1
  H  822  1  0.41774200  0.49860200  0.62562400  1
  H  823  1  0.46828300  0.44555400  0.62507700  1
  H  826  1  0.55114100  0.42139900  0.60842000  1
  H  828  1  0.46948900  0.58987200  0.61376000  1
  C  1  1  0.95940000  0.08788000  0.25887200  1
  C  2  1  0.00506900  0.09213600  0.27600800  1
  C  3  1  0.02202500  0.06669700  0.30128800  1
  C  4  1  0.99355500  0.03634200  0.31121500  1
  C  5  1  0.94857000  0.03184800  0.29254600  1
  C  6  1  0.93135700  0.05719800  0.26764600  1
  C  7  1  0.00931600  0.00771700  0.33849900  1
  C  8  1  0.02448000  0.97771500  0.31256800  1
  C  9  1  0.99472900  0.94764800  0.30387200  1
  C  10  1  0.01023900  0.92113300  0.27927600  1
  C  11  1  0.05617700  0.92362900  0.26227500  1
  C  12  1  0.08509600  0.95433400  0.26899300  1
  C  13  1  0.06915000  0.98088900  0.29316500  1
  C  14  1  0.05103800  0.01688900  0.36442700  1
  C  15  1  0.96789900  0.99984000  0.36515300  1
  C  16  1  0.96545700  0.96717700  0.38498400  1
  C  17  1  0.92952200  0.96120100  0.41154700  1
  C  18  1  0.89476100  0.98796800  0.41966400  1
  C  19  1  0.89844200  0.02142400  0.40204900  1
  C  20  1  0.93461400  0.02726000  0.37593600  1
  C  21  1  0.05319400  0.05037000  0.38283200  1
  C  22  1  0.08909800  0.05768400  0.40904000  1
  C  23  1  0.12414500  0.03152500  0.41839200  1
  C  24  1  0.12083500  0.99732500  0.40213600  1
  C  25  1  0.08463200  0.99014900  0.37633700  1
  C  46  1  0.45934600  0.92673000  0.75576100  1
  C  47  1  0.50499300  0.92244300  0.73859800  1
  C  48  1  0.52195300  0.94786800  0.71330800  1
  C  49  1  0.49352300  0.97825000  0.70340200  1
  C  50  1  0.44856300  0.98277700  0.72209700  1
  C  51  1  0.43133900  0.95743500  0.74700600  1
  C  52  1  0.50928000  0.00685700  0.67609900  1
  C  53  1  0.52445700  0.03687500  0.70200600  1
  C  54  1  0.49471800  0.06696600  0.71063900  1
  C  55  1  0.51019400  0.09348200  0.73524400  1
  C  56  1  0.55611200  0.09098800  0.75227000  1
  C  57  1  0.58503900  0.06028000  0.74559100  1
  C  58  1  0.56912100  0.03371800  0.72141400  1
  C  59  1  0.55098700  0.99763200  0.65017600  1
  C  60  1  0.46784400  0.01471700  0.64945300  1
  C  61  1  0.46547600  0.04734900  0.62956300  1
  C  62  1  0.42953400  0.05334000  0.60300800  1
  C  63  1  0.39468100  0.02661600  0.59495300  1
  C  64  1  0.39832500  0.99317200  0.61259700  1
  C  65  1  0.43448600  0.98733000  0.63871600  1
  C  66  1  0.55305600  0.96416700  0.63173900  1
  C  67  1  0.58891000  0.95683000  0.60550700  1
  C  68  1  0.62397500  0.98296500  0.59613900  1
  C  69  1  0.62077300  0.01715400  0.61241900  1
  C  70  1  0.58461500  0.02434700  0.63825100  1
  C  91  1  0.20933500  0.75582300  0.08783900  1
  C  92  1  0.25496100  0.73864100  0.09215700  1
  C  93  1  0.27194300  0.71335300  0.06673500  1
  C  94  1  0.24355000  0.70346400  0.03632800  1
  C  95  1  0.19861600  0.72218600  0.03176700  1
  C  96  1  0.18138000  0.74710000  0.05709600  1
  C  97  1  0.25933400  0.67616900  0.00772000  1
  C  98  1  0.27457500  0.70206800  0.97771200  1
  C  99  1  0.24491600  0.71073600  0.94758600  1
  C  100  1  0.26049800  0.73531400  0.92107700  1
  C  101  1  0.30640400  0.75235000  0.92365300  1
  C  102  1  0.33522600  0.74565600  0.95441500  1
  C  103  1  0.31921300  0.72149500  0.98095600  1
  C  104  1  0.30102400  0.65024400  0.01695900  1
  C  105  1  0.21789700  0.64954700  0.99980500  1
  C  106  1  0.21557600  0.62961700  0.96719600  1
  C  107  1  0.17966000  0.60304600  0.96120100  1
  C  108  1  0.14479900  0.59498500  0.98791700  1
  C  109  1  0.14840200  0.61264800  0.02135000  1
  C  110  1  0.18453700  0.63878900  0.02718800  1
  C  111  1  0.30298600  0.63177400  0.05041500  1
  C  112  1  0.33879900  0.60552600  0.05779600  1
  C  113  1  0.37393000  0.59615800  0.03170900  1
  C  114  1  0.37083400  0.61245200  0.99752100  1
  C  115  1  0.33471200  0.63830200  0.99029200  1
  C  136  1  0.70943900  0.25883400  0.92678400  1
  C  137  1  0.75505700  0.27602400  0.92247800  1
  C  138  1  0.77201300  0.30132000  0.94790000  1
  C  139  1  0.74359000  0.31120700  0.97829300  1
  C  140  1  0.69864900  0.29249000  0.98282800  1
  C  141  1  0.68144300  0.26756400  0.95750200  1
  C  142  1  0.75934400  0.33851200  0.00690000  1
  C  143  1  0.77452800  0.31261100  0.03692200  1
  C  144  1  0.74482600  0.30398800  0.06703500  1
  C  145  1  0.76033900  0.27940200  0.09355700  1
  C  146  1  0.80622700  0.26233700  0.09101300  1
  C  147  1  0.83510700  0.26899900  0.06027600  1
  C  148  1  0.81915900  0.29316800  0.03371800  1
  C  149  1  0.80104400  0.36444000  0.99767200  1
  C  150  1  0.71790500  0.36515000  0.01476600  1
  C  151  1  0.71559100  0.38508100  0.04737600  1
  C  152  1  0.67965600  0.41163800  0.05337100  1
  C  153  1  0.64475900  0.41966400  0.02666900  1
  C  154  1  0.64835200  0.40198800  0.99324000  1
  C  155  1  0.68449200  0.37585200  0.98740000  1
  C  156  1  0.80302100  0.38288300  0.96420500  1
  C  157  1  0.83886500  0.40911000  0.95682700  1
  C  158  1  0.87403500  0.41843200  0.98290100  1
  C  159  1  0.87091400  0.40215400  0.01709600  1
  C  160  1  0.83478900  0.37630700  0.02433000  1
  C  181  1  0.89533100  0.14138600  0.19181000  1
  C  182  1  0.85304700  0.14013000  0.17000100  1
  C  183  1  0.84067400  0.16990500  0.14857100  1
  C  184  1  0.87055600  0.20087100  0.14930300  1
  C  189  1  0.90911900  0.11197900  0.21223000  1
  C  191  1  0.86296400  0.23042100  0.12737800  1
  C  193  1  0.39532800  0.87325200  0.82288300  1
  C  194  1  0.35333300  0.87461900  0.84499200  1
  C  195  1  0.34105500  0.84486000  0.86647400  1
  C  196  1  0.37070200  0.81377900  0.86546800  1
  C  201  1  0.40904600  0.90263600  0.80240200  1
  C  203  1  0.36333500  0.78427100  0.88751800  1
  C  205  1  0.14521900  0.82283000  0.14128600  1
  C  206  1  0.10304200  0.84475000  0.13999800  1
  C  207  1  0.09069300  0.86618400  0.16977500  1
  C  208  1  0.12048100  0.86533900  0.20078600  1
  C  213  1  0.15886600  0.80234300  0.11187500  1
  C  215  1  0.11288700  0.88724100  0.23035500  1
  C  217  1  0.64539500  0.19173300  0.87328200  1
  C  218  1  0.60298700  0.17005700  0.87450600  1
  C  219  1  0.59051900  0.14868800  0.84471000  1
  C  220  1  0.62045900  0.14931900  0.81377400  1
  C  225  1  0.65930700  0.21205700  0.90271200  1
  C  227  1  0.61267300  0.12749000  0.78416900  1
  C  229  1  0.78568400  0.98535600  0.47389000  1
  C  230  1  0.73440100  0.98259700  0.47036600  1
  C  231  1  0.70488800  0.98225000  0.50134500  1
  C  232  1  0.72696200  0.98482900  0.53560600  1
  C  237  1  0.81578500  0.98902500  0.44424700  1
  C  239  1  0.70100300  0.98752100  0.56743800  1
  C  241  1  0.28561500  0.02924100  0.54070800  1
  C  242  1  0.23430000  0.03172900  0.54420200  1
  C  243  1  0.20482000  0.03196900  0.51320400  1
  C  244  1  0.22695300  0.02960900  0.47894600  1
  C  249  1  0.31571000  0.02562800  0.57036700  1
  C  251  1  0.20104100  0.02662600  0.44709800  1
  C  253  1  0.03576700  0.54071900  0.98527000  1
  C  254  1  0.98449800  0.54423700  0.98236000  1
  C  255  1  0.95499600  0.51325200  0.98197000  1
  C  256  1  0.97705900  0.47900000  0.98468100  1
  C  261  1  0.06584800  0.57037000  0.98893600  1
  C  263  1  0.95109900  0.44716000  0.98720100  1
  C  265  1  0.53569300  0.47389000  0.02932900  1
  C  266  1  0.48442100  0.47036100  0.03220600  1
  C  267  1  0.45490800  0.50133700  0.03260900  1
  C  268  1  0.47696100  0.53560100  0.02996700  1
  C  273  1  0.56578700  0.44424700  0.02566400  1
  C  275  1  0.45099400  0.56743500  0.02740500  1
  C  277  1  0.95940000  0.08788000  0.55473200  1
  C  278  1  0.00506900  0.09213600  0.57186800  1
  C  279  1  0.02202500  0.06669700  0.59714800  1
  C  280  1  0.99355500  0.03634200  0.60707500  1
  C  281  1  0.94857000  0.03184800  0.58840600  1
  C  282  1  0.93135700  0.05719800  0.56350600  1
  C  283  1  0.00931600  0.00771700  0.63435900  1
  C  284  1  0.02448000  0.97771500  0.60842800  1
  C  285  1  0.99472900  0.94764800  0.59973200  1
  C  286  1  0.01023900  0.92113300  0.57513600  1
  C  287  1  0.05617700  0.92362900  0.55813500  1
  C  288  1  0.08509600  0.95433400  0.56485300  1
  C  289  1  0.06915000  0.98088900  0.58902500  1
  C  290  1  0.05103800  0.01688900  0.66028700  1
  C  291  1  0.96789900  0.99984000  0.66101300  1
  C  292  1  0.96545700  0.96717700  0.68084400  1
  C  293  1  0.92952200  0.96120100  0.70740700  1
  C  294  1  0.89476100  0.98796800  0.71552400  1
  C  295  1  0.89844200  0.02142400  0.69790900  1
  C  296  1  0.93461400  0.02726000  0.67179600  1
  C  297  1  0.05319400  0.05037000  0.67869200  1
  C  298  1  0.08909800  0.05768400  0.70490000  1
  C  299  1  0.12414500  0.03152500  0.71425200  1
  C  300  1  0.12083500  0.99732500  0.69799600  1
  C  301  1  0.08463200  0.99014900  0.67219700  1
  C  322  1  0.45934600  0.92673000  0.05162060  1
  C  323  1  0.50499300  0.92244300  0.03445760  1
  C  324  1  0.52195300  0.94786800  0.00916758  1
  C  325  1  0.49352300  0.97825000  0.99926200  1
  C  326  1  0.44856300  0.98277700  0.01795660  1
  C  327  1  0.43133900  0.95743500  0.04286560  1
  C  328  1  0.50928000  0.00685700  0.97195900  1
  C  329  1  0.52445700  0.03687500  0.99786600  1
  C  330  1  0.49471800  0.06696600  0.00649858  1
  C  331  1  0.51019400  0.09348200  0.03110360  1
  C  332  1  0.55611200  0.09098800  0.04812960  1
  C  333  1  0.58503900  0.06028000  0.04145060  1
  C  334  1  0.56912100  0.03371800  0.01727360  1
  C  335  1  0.55098700  0.99763200  0.94603600  1
  C  336  1  0.46784400  0.01471700  0.94531300  1
  C  337  1  0.46547600  0.04734900  0.92542300  1
  C  338  1  0.42953400  0.05334000  0.89886800  1
  C  339  1  0.39468100  0.02661600  0.89081300  1
  C  340  1  0.39832500  0.99317200  0.90845700  1
  C  341  1  0.43448600  0.98733000  0.93457600  1
  C  342  1  0.55305600  0.96416700  0.92759900  1
  C  343  1  0.58891000  0.95683000  0.90136700  1
  C  344  1  0.62397500  0.98296500  0.89199900  1
  C  345  1  0.62077300  0.01715400  0.90827900  1
  C  346  1  0.58461500  0.02434700  0.93411100  1
  C  367  1  0.20933500  0.75582300  0.38369900  1
  C  368  1  0.25496100  0.73864100  0.38801700  1
  C  369  1  0.27194300  0.71335300  0.36259500  1
  C  370  1  0.24355000  0.70346400  0.33218800  1
  C  371  1  0.19861600  0.72218600  0.32762700  1
  C  372  1  0.18138000  0.74710000  0.35295600  1
  C  373  1  0.25933400  0.67616900  0.30358000  1
  C  374  1  0.27457500  0.70206800  0.27357200  1
  C  375  1  0.24491600  0.71073600  0.24344600  1
  C  376  1  0.26049800  0.73531400  0.21693700  1
  C  377  1  0.30640400  0.75235000  0.21951300  1
  C  378  1  0.33522600  0.74565600  0.25027500  1
  C  379  1  0.31921300  0.72149500  0.27681600  1
  C  380  1  0.30102400  0.65024400  0.31281900  1
  C  381  1  0.21789700  0.64954700  0.29566500  1
  C  382  1  0.21557600  0.62961700  0.26305600  1
  C  383  1  0.17966000  0.60304600  0.25706100  1
  C  384  1  0.14479900  0.59498500  0.28377700  1
  C  385  1  0.14840200  0.61264800  0.31721000  1
  C  386  1  0.18453700  0.63878900  0.32304800  1
  C  387  1  0.30298600  0.63177400  0.34627500  1
  C  388  1  0.33879900  0.60552600  0.35365600  1
  C  389  1  0.37393000  0.59615800  0.32756900  1
  C  390  1  0.37083400  0.61245200  0.29338100  1
  C  391  1  0.33471200  0.63830200  0.28615200  1
  C  412  1  0.70943900  0.25883400  0.22264400  1
  C  413  1  0.75505700  0.27602400  0.21833800  1
  C  414  1  0.77201300  0.30132000  0.24376000  1
  C  415  1  0.74359000  0.31120700  0.27415300  1
  C  416  1  0.69864900  0.29249000  0.27868800  1
  C  417  1  0.68144300  0.26756400  0.25336200  1
  C  418  1  0.75934400  0.33851200  0.30276000  1
  C  419  1  0.77452800  0.31261100  0.33278200  1
  C  420  1  0.74482600  0.30398800  0.36289500  1
  C  421  1  0.76033900  0.27940200  0.38941700  1
  C  422  1  0.80622700  0.26233700  0.38687300  1
  C  423  1  0.83510700  0.26899900  0.35613600  1
  C  424  1  0.81915900  0.29316800  0.32957800  1
  C  425  1  0.80104400  0.36444000  0.29353200  1
  C  426  1  0.71790500  0.36515000  0.31062600  1
  C  427  1  0.71559100  0.38508100  0.34323600  1
  C  428  1  0.67965600  0.41163800  0.34923100  1
  C  429  1  0.64475900  0.41966400  0.32252900  1
  C  430  1  0.64835200  0.40198800  0.28910000  1
  C  431  1  0.68449200  0.37585200  0.28326000  1
  C  432  1  0.80302100  0.38288300  0.26006500  1
  C  433  1  0.83886500  0.40911000  0.25268700  1
  C  434  1  0.87403500  0.41843200  0.27876100  1
  C  435  1  0.87091400  0.40215400  0.31295600  1
  C  436  1  0.83478900  0.37630700  0.32019000  1
  C  457  1  0.89533100  0.14138600  0.48767000  1
  C  458  1  0.85304700  0.14013000  0.46586100  1
  C  459  1  0.84067400  0.16990500  0.44443100  1
  C  460  1  0.87055600  0.20087100  0.44516300  1
  C  465  1  0.90911900  0.11197900  0.50809000  1
  C  467  1  0.86296400  0.23042100  0.42323800  1
  C  469  1  0.39532800  0.87325200  0.11874300  1
  C  470  1  0.35333300  0.87461900  0.14085200  1
  C  471  1  0.34105500  0.84486000  0.16233400  1
  C  472  1  0.37070200  0.81377900  0.16132800  1
  C  477  1  0.40904600  0.90263600  0.09826160  1
  C  479  1  0.36333500  0.78427100  0.18337800  1
  C  481  1  0.14521900  0.82283000  0.43714600  1
  C  482  1  0.10304200  0.84475000  0.43585800  1
  C  483  1  0.09069300  0.86618400  0.46563500  1
  C  484  1  0.12048100  0.86533900  0.49664600  1
  C  489  1  0.15886600  0.80234300  0.40773500  1
  C  491  1  0.11288700  0.88724100  0.52621500  1
  C  493  1  0.64539500  0.19173300  0.16914200  1
  C  494  1  0.60298700  0.17005700  0.17036600  1
  C  495  1  0.59051900  0.14868800  0.14057000  1
  C  496  1  0.62045900  0.14931900  0.10963400  1
  C  501  1  0.65930700  0.21205700  0.19857200  1
  C  503  1  0.61267300  0.12749000  0.08002860  1
  C  505  1  0.78568400  0.98535600  0.76975000  1
  C  506  1  0.73440100  0.98259700  0.76622600  1
  C  507  1  0.70488800  0.98225000  0.79720500  1
  C  508  1  0.72696200  0.98482900  0.83146600  1
  C  513  1  0.81578500  0.98902500  0.74010700  1
  C  515  1  0.70100300  0.98752100  0.86329800  1
  C  517  1  0.28561500  0.02924100  0.83656800  1
  C  518  1  0.23430000  0.03172900  0.84006200  1
  C  519  1  0.20482000  0.03196900  0.80906400  1
  C  520  1  0.22695300  0.02960900  0.77480600  1
  C  525  1  0.31571000  0.02562800  0.86622700  1
  C  527  1  0.20104100  0.02662600  0.74295800  1
  C  529  1  0.03576700  0.54071900  0.28113000  1
  C  530  1  0.98449800  0.54423700  0.27822000  1
  C  531  1  0.95499600  0.51325200  0.27783000  1
  C  532  1  0.97705900  0.47900000  0.28054100  1
  C  537  1  0.06584800  0.57037000  0.28479600  1
  C  539  1  0.95109900  0.44716000  0.28306100  1
  C  541  1  0.53569300  0.47389000  0.32518900  1
  C  542  1  0.48442100  0.47036100  0.32806600  1
  C  543  1  0.45490800  0.50133700  0.32846900  1
  C  544  1  0.47696100  0.53560100  0.32582700  1
  C  549  1  0.56578700  0.44424700  0.32152400  1
  C  551  1  0.45099400  0.56743500  0.32326500  1
  C  553  1  0.95940000  0.08788000  0.85059100  1
  C  554  1  0.00506900  0.09213600  0.86772700  1
  C  555  1  0.02202500  0.06669700  0.89300700  1
  C  556  1  0.99355500  0.03634200  0.90293400  1
  C  557  1  0.94857000  0.03184800  0.88426500  1
  C  558  1  0.93135700  0.05719800  0.85936500  1
  C  559  1  0.00931600  0.00771700  0.93021800  1
  C  560  1  0.02448000  0.97771500  0.90428700  1
  C  561  1  0.99472900  0.94764800  0.89559100  1
  C  562  1  0.01023900  0.92113300  0.87099500  1
  C  563  1  0.05617700  0.92362900  0.85399400  1
  C  564  1  0.08509600  0.95433400  0.86071200  1
  C  565  1  0.06915000  0.98088900  0.88488400  1
  C  566  1  0.05103800  0.01688900  0.95614600  1
  C  567  1  0.96789900  0.99984000  0.95687200  1
  C  568  1  0.96545700  0.96717700  0.97670300  1
  C  569  1  0.92952200  0.96120100  0.00326616  1
  C  570  1  0.89476100  0.98796800  0.01138320  1
  C  571  1  0.89844200  0.02142400  0.99376800  1
  C  572  1  0.93461400  0.02726000  0.96765500  1
  C  573  1  0.05319400  0.05037000  0.97455100  1
  C  574  1  0.08909800  0.05768400  0.00075916  1
  C  575  1  0.12414500  0.03152500  0.01011120  1
  C  576  1  0.12083500  0.99732500  0.99385500  1
  C  577  1  0.08463200  0.99014900  0.96805600  1
  C  598  1  0.45934600  0.92673000  0.34748000  1
  C  599  1  0.50499300  0.92244300  0.33031700  1
  C  600  1  0.52195300  0.94786800  0.30502700  1
  C  601  1  0.49352300  0.97825000  0.29512100  1
  C  602  1  0.44856300  0.98277700  0.31381600  1
  C  603  1  0.43133900  0.95743500  0.33872500  1
  C  604  1  0.50928000  0.00685700  0.26781800  1
  C  605  1  0.52445700  0.03687500  0.29372500  1
  C  606  1  0.49471800  0.06696600  0.30235800  1
  C  607  1  0.51019400  0.09348200  0.32696300  1
  C  608  1  0.55611200  0.09098800  0.34398900  1
  C  609  1  0.58503900  0.06028000  0.33731000  1
  C  610  1  0.56912100  0.03371800  0.31313300  1
  C  611  1  0.55098700  0.99763200  0.24189500  1
  C  612  1  0.46784400  0.01471700  0.24117200  1
  C  613  1  0.46547600  0.04734900  0.22128200  1
  C  614  1  0.42953400  0.05334000  0.19472700  1
  C  615  1  0.39468100  0.02661600  0.18667200  1
  C  616  1  0.39832500  0.99317200  0.20431600  1
  C  617  1  0.43448600  0.98733000  0.23043500  1
  C  618  1  0.55305600  0.96416700  0.22345800  1
  C  619  1  0.58891000  0.95683000  0.19722600  1
  C  620  1  0.62397500  0.98296500  0.18785800  1
  C  621  1  0.62077300  0.01715400  0.20413800  1
  C  622  1  0.58461500  0.02434700  0.22997000  1
  C  643  1  0.20933500  0.75582300  0.67955800  1
  C  644  1  0.25496100  0.73864100  0.68387600  1
  C  645  1  0.27194300  0.71335300  0.65845400  1
  C  646  1  0.24355000  0.70346400  0.62804700  1
  C  647  1  0.19861600  0.72218600  0.62348600  1
  C  648  1  0.18138000  0.74710000  0.64881500  1
  C  649  1  0.25933400  0.67616900  0.59943900  1
  C  650  1  0.27457500  0.70206800  0.56943100  1
  C  651  1  0.24491600  0.71073600  0.53930500  1
  C  652  1  0.26049800  0.73531400  0.51279600  1
  C  653  1  0.30640400  0.75235000  0.51537200  1
  C  654  1  0.33522600  0.74565600  0.54613400  1
  C  655  1  0.31921300  0.72149500  0.57267500  1
  C  656  1  0.30102400  0.65024400  0.60867800  1
  C  657  1  0.21789700  0.64954700  0.59152400  1
  C  658  1  0.21557600  0.62961700  0.55891500  1
  C  659  1  0.17966000  0.60304600  0.55292000  1
  C  660  1  0.14479900  0.59498500  0.57963600  1
  C  661  1  0.14840200  0.61264800  0.61306900  1
  C  662  1  0.18453700  0.63878900  0.61890700  1
  C  663  1  0.30298600  0.63177400  0.64213400  1
  C  664  1  0.33879900  0.60552600  0.64951500  1
  C  665  1  0.37393000  0.59615800  0.62342800  1
  C  666  1  0.37083400  0.61245200  0.58924000  1
  C  667  1  0.33471200  0.63830200  0.58201100  1
  C  688  1  0.70943900  0.25883400  0.51850300  1
  C  689  1  0.75505700  0.27602400  0.51419700  1
  C  690  1  0.77201300  0.30132000  0.53961900  1
  C  691  1  0.74359000  0.31120700  0.57001200  1
  C  692  1  0.69864900  0.29249000  0.57454700  1
  C  693  1  0.68144300  0.26756400  0.54922100  1
  C  694  1  0.75934400  0.33851200  0.59861900  1
  C  695  1  0.77452800  0.31261100  0.62864100  1
  C  696  1  0.74482600  0.30398800  0.65875400  1
  C  697  1  0.76033900  0.27940200  0.68527600  1
  C  698  1  0.80622700  0.26233700  0.68273200  1
  C  699  1  0.83510700  0.26899900  0.65199500  1
  C  700  1  0.81915900  0.29316800  0.62543700  1
  C  701  1  0.80104400  0.36444000  0.58939100  1
  C  702  1  0.71790500  0.36515000  0.60648500  1
  C  703  1  0.71559100  0.38508100  0.63909500  1
  C  704  1  0.67965600  0.41163800  0.64509000  1
  C  705  1  0.64475900  0.41966400  0.61838800  1
  C  706  1  0.64835200  0.40198800  0.58495900  1
  C  707  1  0.68449200  0.37585200  0.57911900  1
  C  708  1  0.80302100  0.38288300  0.55592400  1
  C  709  1  0.83886500  0.40911000  0.54854600  1
  C  710  1  0.87403500  0.41843200  0.57462000  1
  C  711  1  0.87091400  0.40215400  0.60881500  1
  C  712  1  0.83478900  0.37630700  0.61604900  1
  C  733  1  0.89533100  0.14138600  0.78352900  1
  C  734  1  0.85304700  0.14013000  0.76172000  1
  C  735  1  0.84067400  0.16990500  0.74029000  1
  C  736  1  0.87055600  0.20087100  0.74102200  1
  C  741  1  0.90911900  0.11197900  0.80394900  1
  C  743  1  0.86296400  0.23042100  0.71909700  1
  C  745  1  0.39532800  0.87325200  0.41460200  1
  C  746  1  0.35333300  0.87461900  0.43671100  1
  C  747  1  0.34105500  0.84486000  0.45819300  1
  C  748  1  0.37070200  0.81377900  0.45718700  1
  C  753  1  0.40904600  0.90263600  0.39412100  1
  C  755  1  0.36333500  0.78427100  0.47923700  1
  C  757  1  0.14521900  0.82283000  0.73300500  1
  C  758  1  0.10304200  0.84475000  0.73171700  1
  C  759  1  0.09069300  0.86618400  0.76149400  1
  C  760  1  0.12048100  0.86533900  0.79250500  1
  C  765  1  0.15886600  0.80234300  0.70359400  1
  C  767  1  0.11288700  0.88724100  0.82207400  1
  C  769  1  0.64539500  0.19173300  0.46500100  1
  C  770  1  0.60298700  0.17005700  0.46622500  1
  C  771  1  0.59051900  0.14868800  0.43642900  1
  C  772  1  0.62045900  0.14931900  0.40549300  1
  C  777  1  0.65930700  0.21205700  0.49443100  1
  C  779  1  0.61267300  0.12749000  0.37588800  1
  C  781  1  0.78568400  0.98535600  0.06560920  1
  C  782  1  0.73440100  0.98259700  0.06208520  1
  C  783  1  0.70488800  0.98225000  0.09306420  1
  C  784  1  0.72696200  0.98482900  0.12732500  1
  C  789  1  0.81578500  0.98902500  0.03596620  1
  C  791  1  0.70100300  0.98752100  0.15915700  1
  C  793  1  0.28561500  0.02924100  0.13242700  1
  C  794  1  0.23430000  0.03172900  0.13592100  1
  C  795  1  0.20482000  0.03196900  0.10492300  1
  C  796  1  0.22695300  0.02960900  0.07066520  1
  C  801  1  0.31571000  0.02562800  0.16208600  1
  C  803  1  0.20104100  0.02662600  0.03881720  1
  C  805  1  0.03576700  0.54071900  0.57698900  1
  C  806  1  0.98449800  0.54423700  0.57407900  1
  C  807  1  0.95499600  0.51325200  0.57368900  1
  C  808  1  0.97705900  0.47900000  0.57640000  1
  C  813  1  0.06584800  0.57037000  0.58065500  1
  C  815  1  0.95109900  0.44716000  0.57892000  1
  C  817  1  0.53569300  0.47389000  0.62104800  1
  C  818  1  0.48442100  0.47036100  0.62392500  1
  C  819  1  0.45490800  0.50133700  0.62432800  1
  C  820  1  0.47696100  0.53560100  0.62168600  1
  C  825  1  0.56578700  0.44424700  0.61738300  1
  C  827  1  0.45099400  0.56743500  0.61912400  1
  N  41  1  0.86207200  0.98285800  0.44570000  1
  N  42  1  0.15690900  0.03909600  0.44380300  1
  N  43  1  0.94457500  0.11302400  0.23554000  1
  N  44  1  0.06930000  0.89801600  0.23915900  1
  N  86  1  0.36201100  0.03172900  0.56890600  1
  N  87  1  0.65669700  0.97537200  0.57071400  1
  N  88  1  0.44449800  0.90158800  0.77908800  1
  N  89  1  0.56915700  0.11658700  0.77541400  1
  N  131  1  0.11214300  0.56892500  0.98281500  1
  N  132  1  0.40658200  0.57070300  0.03933200  1
  N  133  1  0.19445000  0.77914200  0.11298000  1
  N  134  1  0.31964100  0.77541100  0.89801300  1
  N  176  1  0.61208500  0.44570800  0.03177500  1
  N  177  1  0.90667700  0.44390000  0.97529200  1
  N  178  1  0.69462400  0.23548700  0.90165200  1
  N  179  1  0.81936700  0.23925900  0.11665600  1
  N  185  1  0.91062500  0.19991700  0.17102900  1
  N  188  1  0.92219700  0.17217700  0.19105800  1
  N  197  1  0.41050400  0.81463700  0.84347500  1
  N  200  1  0.42200000  0.84236400  0.82340800  1
  N  209  1  0.16044300  0.84350500  0.19986900  1
  N  212  1  0.17199700  0.82347200  0.17212500  1
  N  221  1  0.66066000  0.17091200  0.81476100  1
  N  224  1  0.67231600  0.19089200  0.84251800  1
  N  233  1  0.77654600  0.98770700  0.53660900  1
  N  236  1  0.80407400  0.98794100  0.50779300  1
  N  245  1  0.27656800  0.02695800  0.47798100  1
  N  248  1  0.30406500  0.02680900  0.50681300  1
  N  257  1  0.02662900  0.47800200  0.98769600  1
  N  260  1  0.05415100  0.50682400  0.98796500  1
  N  269  1  0.52653000  0.53660700  0.02693700  1
  N  272  1  0.55406500  0.50779000  0.02665300  1
  N  317  1  0.86207200  0.98285800  0.74156000  1
  N  318  1  0.15690900  0.03909600  0.73966300  1
  N  319  1  0.94457500  0.11302400  0.53140000  1
  N  320  1  0.06930000  0.89801600  0.53501900  1
  N  362  1  0.36201100  0.03172900  0.86476600  1
  N  363  1  0.65669700  0.97537200  0.86657400  1
  N  364  1  0.44449800  0.90158800  0.07494760  1
  N  365  1  0.56915700  0.11658700  0.07127360  1
  N  407  1  0.11214300  0.56892500  0.27867500  1
  N  408  1  0.40658200  0.57070300  0.33519200  1
  N  409  1  0.19445000  0.77914200  0.40884000  1
  N  410  1  0.31964100  0.77541100  0.19387300  1
  N  452  1  0.61208500  0.44570800  0.32763500  1
  N  453  1  0.90667700  0.44390000  0.27115200  1
  N  454  1  0.69462400  0.23548700  0.19751200  1
  N  455  1  0.81936700  0.23925900  0.41251600  1
  N  461  1  0.91062500  0.19991700  0.46688900  1
  N  464  1  0.92219700  0.17217700  0.48691800  1
  N  473  1  0.41050400  0.81463700  0.13933500  1
  N  476  1  0.42200000  0.84236400  0.11926800  1
  N  485  1  0.16044300  0.84350500  0.49572900  1
  N  488  1  0.17199700  0.82347200  0.46798500  1
  N  497  1  0.66066000  0.17091200  0.11062100  1
  N  500  1  0.67231600  0.19089200  0.13837800  1
  N  509  1  0.77654600  0.98770700  0.83246900  1
  N  512  1  0.80407400  0.98794100  0.80365300  1
  N  521  1  0.27656800  0.02695800  0.77384100  1
  N  524  1  0.30406500  0.02680900  0.80267300  1
  N  533  1  0.02662900  0.47800200  0.28355600  1
  N  536  1  0.05415100  0.50682400  0.28382500  1
  N  545  1  0.52653000  0.53660700  0.32279700  1
  N  548  1  0.55406500  0.50779000  0.32251300  1
  N  593  1  0.86207200  0.98285800  0.03741920  1
  N  594  1  0.15690900  0.03909600  0.03552220  1
  N  595  1  0.94457500  0.11302400  0.82725900  1
  N  596  1  0.06930000  0.89801600  0.83087800  1
  N  638  1  0.36201100  0.03172900  0.16062500  1
  N  639  1  0.65669700  0.97537200  0.16243300  1
  N  640  1  0.44449800  0.90158800  0.37080700  1
  N  641  1  0.56915700  0.11658700  0.36713300  1
  N  683  1  0.11214300  0.56892500  0.57453400  1
  N  684  1  0.40658200  0.57070300  0.63105100  1
  N  685  1  0.19445000  0.77914200  0.70469900  1
  N  686  1  0.31964100  0.77541100  0.48973200  1
  N  728  1  0.61208500  0.44570800  0.62349400  1
  N  729  1  0.90667700  0.44390000  0.56701100  1
  N  730  1  0.69462400  0.23548700  0.49337100  1
  N  731  1  0.81936700  0.23925900  0.70837500  1
  N  737  1  0.91062500  0.19991700  0.76274800  1
  N  740  1  0.92219700  0.17217700  0.78277700  1
  N  749  1  0.41050400  0.81463700  0.43519400  1
  N  752  1  0.42200000  0.84236400  0.41512700  1
  N  761  1  0.16044300  0.84350500  0.79158800  1
  N  764  1  0.17199700  0.82347200  0.76384400  1
  N  773  1  0.66066000  0.17091200  0.40648000  1
  N  776  1  0.67231600  0.19089200  0.43423700  1
  N  785  1  0.77654600  0.98770700  0.12832800  1
  N  788  1  0.80407400  0.98794100  0.09951220  1
  N  797  1  0.27656800  0.02695800  0.06970020  1
  N  800  1  0.30406500  0.02680900  0.09853220  1
  N  809  1  0.02662900  0.47800200  0.57941500  1
  N  812  1  0.05415100  0.50682400  0.57968400  1
  N  821  1  0.52653000  0.53660700  0.61865600  1
  N  824  1  0.55406500  0.50779000  0.61837200  1
