# generated using pymatgen
data_H9C16N4O
_symmetry_space_group_name_H-M   'P 1'
_cell_length_a   40.33090000
_cell_length_b   46.47690000
_cell_length_c   61.06830000
_cell_angle_alpha   90.00370000
_cell_angle_beta   90.40000000
_cell_angle_gamma   89.47440000
_symmetry_Int_Tables_number   1
_chemical_formula_structural   H9C16N4O
_chemical_formula_sum   'H864 C1536 N384 O96'
_cell_volume   114462.18703026
_cell_formula_units_Z   96
loop_
 _symmetry_equiv_pos_site_id
 _symmetry_equiv_pos_as_xyz
  1  'x, y, z'
loop_
 _atom_site_type_symbol
 _atom_site_label
 _atom_site_symmetry_multiplicity
 _atom_site_fract_x
 _atom_site_fract_y
 _atom_site_fract_z
 _atom_site_occupancy
  H  7  1  0.86856100  0.84724500  0.84930900  1
  H  8  1  0.84973700  0.82790300  0.91467000  1
  H  15  1  0.97392000  0.91972500  0.81145400  1
  H  16  1  0.93231500  0.91412500  0.87290100  1
  H  19  1  0.93991400  0.88928900  0.91188600  1
  H  20  1  0.92860000  0.82922100  0.81515600  1
  H  31  1  0.15480400  0.18187100  0.84920600  1
  H  32  1  0.17470900  0.20163100  0.91450600  1
  H  39  1  0.05069300  0.10963000  0.80998800  1
  H  40  1  0.09202000  0.11392400  0.87209100  1
  H  43  1  0.08493900  0.13977700  0.91212000  1
  H  44  1  0.09414000  0.20026500  0.81564000  1
  H  55  1  0.87102500  0.18064400  0.63847100  1
  H  56  1  0.85182000  0.20151800  0.57325400  1
  H  63  1  0.98287300  0.11365300  0.67749600  1
  H  64  1  0.93562300  0.11238700  0.61644000  1
  H  67  1  0.94247900  0.13899400  0.57552400  1
  H  68  1  0.92617000  0.20014700  0.67045900  1
  H  79  1  0.15758200  0.84714600  0.63939200  1
  H  80  1  0.17630900  0.82813500  0.57398400  1
  H  87  1  0.04700600  0.91641900  0.67815600  1
  H  88  1  0.09364600  0.91517000  0.61758900  1
  H  91  1  0.08546500  0.88991600  0.57647200  1
  H  92  1  0.09594100  0.82767800  0.67306100  1
  H  103  1  0.15704400  0.18405000  0.13899500  1
  H  104  1  0.18029300  0.19807900  0.07342100  1
  H  111  1  0.05227800  0.10970800  0.17670600  1
  H  112  1  0.09489400  0.11458700  0.11566800  1
  H  115  1  0.08745000  0.14180100  0.07321000  1
  H  116  1  0.09794200  0.20002300  0.17294500  1
  H  127  1  0.87300100  0.84622400  0.13895600  1
  H  128  1  0.84849300  0.83162100  0.07343400  1
  H  135  1  0.97559700  0.91959200  0.17837800  1
  H  136  1  0.93385600  0.91613400  0.11652000  1
  H  139  1  0.94151300  0.88749000  0.07269400  1
  H  140  1  0.93178600  0.82914700  0.17237500  1
  H  151  1  0.15454000  0.84641800  0.34970700  1
  H  152  1  0.17816200  0.83100200  0.41526500  1
  H  159  1  0.04336300  0.91538700  0.31082200  1
  H  160  1  0.09156700  0.91731600  0.37143700  1
  H  163  1  0.08424600  0.88733700  0.41589900  1
  H  164  1  0.10031600  0.82904400  0.31798900  1
  H  175  1  0.87010400  0.18316400  0.34900000  1
  H  176  1  0.84715100  0.19720000  0.41463300  1
  H  183  1  0.97934500  0.11283100  0.30998500  1
  H  184  1  0.93215700  0.11322600  0.37023000  1
  H  187  1  0.94140300  0.14166100  0.41515800  1
  H  188  1  0.93001200  0.20133400  0.31528400  1
  H  199  1  0.37372200  0.34243000  0.84938100  1
  H  200  1  0.35579000  0.32461100  0.91515100  1
  H  207  1  0.47881800  0.41933000  0.81199600  1
  H  208  1  0.43555300  0.41318000  0.87286100  1
  H  211  1  0.44318100  0.38869300  0.91162100  1
  H  212  1  0.43386300  0.32871800  0.81476700  1
  H  223  1  0.65652700  0.68578100  0.84946900  1
  H  224  1  0.67597800  0.70443000  0.91499100  1
  H  231  1  0.55602700  0.60940600  0.80980000  1
  H  232  1  0.59727400  0.61381400  0.87189400  1
  H  235  1  0.58993700  0.63894900  0.91267200  1
  H  236  1  0.59986700  0.69992800  0.81530100  1
  H  247  1  0.37613100  0.68545600  0.63840700  1
  H  248  1  0.35789400  0.70483800  0.57277100  1
  H  255  1  0.48745200  0.61387600  0.67692100  1
  H  256  1  0.43888400  0.61347600  0.61636100  1
  H  259  1  0.44574200  0.63966600  0.57574000  1
  H  260  1  0.43112200  0.70065700  0.67092600  1
  H  271  1  0.65947800  0.34330500  0.63904900  1
  H  272  1  0.67747600  0.32525700  0.57343800  1
  H  279  1  0.55231600  0.41672900  0.67833400  1
  H  280  1  0.59894500  0.41529200  0.61779900  1
  H  283  1  0.59038600  0.39070500  0.57587400  1
  H  284  1  0.60128600  0.32803600  0.67364600  1
  H  295  1  0.65864400  0.68795900  0.13860500  1
  H  296  1  0.68146200  0.70140200  0.07298500  1
  H  303  1  0.55754900  0.60948900  0.17689500  1
  H  304  1  0.60048900  0.61428200  0.11602500  1
  H  307  1  0.59173500  0.64181500  0.07253200  1
  H  308  1  0.60368300  0.69968200  0.17328200  1
  H  319  1  0.37820200  0.34157500  0.13883500  1
  H  320  1  0.35435500  0.32803400  0.07310700  1
  H  327  1  0.48058500  0.41909900  0.17789400  1
  H  328  1  0.43708600  0.41530200  0.11665600  1
  H  331  1  0.44516400  0.38623900  0.07279100  1
  H  332  1  0.43700200  0.32858100  0.17279900  1
  H  343  1  0.65623500  0.34260700  0.35007700  1
  H  344  1  0.67924500  0.32761800  0.41566400  1
  H  351  1  0.54863500  0.41570700  0.31066100  1
  H  352  1  0.59711300  0.41753800  0.37111100  1
  H  355  1  0.58819400  0.38694800  0.41639600  1
  H  356  1  0.60604300  0.32936100  0.31795300  1
  H  367  1  0.37518800  0.68784500  0.34917800  1
  H  368  1  0.35310700  0.70088600  0.41501300  1
  H  375  1  0.48422100  0.61334800  0.31046500  1
  H  376  1  0.43540500  0.61401000  0.37006500  1
  H  379  1  0.44518700  0.64306900  0.41505700  1
  H  380  1  0.43540100  0.70195700  0.31496000  1
  H  395  1  0.84662400  0.88649000  0.03845900  1
  H  396  1  0.80464700  0.91635300  0.02339900  1
  H  397  1  0.79908800  0.92202400  0.98426500  1
  H  398  1  0.83590100  0.89815500  0.96031600  1
  H  400  1  0.85633400  0.86030600  0.94334000  1
  H  402  1  0.90686700  0.82669500  0.04135400  1
  H  413  1  0.18051900  0.14271400  0.03842800  1
  H  414  1  0.22217000  0.11286100  0.02337400  1
  H  415  1  0.22691700  0.10719600  0.98424300  1
  H  416  1  0.18960100  0.13106800  0.96028800  1
  H  418  1  0.16898500  0.16905900  0.94330100  1
  H  420  1  0.12001900  0.20264900  0.04124800  1
  H  431  1  0.84592300  0.14285400  0.44960900  1
  H  432  1  0.80454900  0.11329700  0.46472500  1
  H  433  1  0.79990900  0.10770400  0.50386600  1
  H  434  1  0.83700400  0.13129000  0.52777400  1
  H  436  1  0.85757500  0.16887700  0.54468400  1
  H  438  1  0.90487700  0.20211300  0.44656300  1
  H  449  1  0.17936900  0.88628500  0.44998100  1
  H  450  1  0.22095900  0.91588100  0.46498200  1
  H  451  1  0.22653300  0.92151900  0.50410800  1
  H  452  1  0.19003900  0.89792100  0.52810800  1
  H  454  1  0.16977800  0.86026900  0.54521800  1
  H  456  1  0.11983400  0.82692700  0.44712700  1
  H  467  1  0.35178400  0.38666100  0.03841700  1
  H  468  1  0.30982600  0.41649000  0.02333600  1
  H  469  1  0.30428500  0.42212600  0.98420100  1
  H  470  1  0.34106900  0.39816200  0.96025200  1
  H  472  1  0.36096200  0.35986900  0.94326100  1
  H  474  1  0.41276700  0.32668900  0.04120100  1
  H  485  1  0.68582200  0.64272900  0.03842700  1
  H  486  1  0.72759000  0.61287700  0.02335100  1
  H  487  1  0.73234500  0.60722800  0.98420900  1
  H  488  1  0.69498400  0.63115600  0.96022200  1
  H  490  1  0.67391300  0.66951600  0.94317400  1
  H  492  1  0.62574200  0.70261100  0.04105200  1
  H  503  1  0.35107000  0.64269800  0.44965500  1
  H  504  1  0.30972400  0.61316200  0.46479100  1
  H  505  1  0.30510700  0.60760400  0.50393500  1
  H  506  1  0.34216900  0.63129000  0.52784600  1
  H  508  1  0.36220000  0.66933400  0.54477900  1
  H  510  1  0.41076000  0.70216000  0.44674700  1
  H  521  1  0.68466800  0.38627600  0.44998400  1
  H  522  1  0.72638500  0.41586700  0.46500700  1
  H  523  1  0.73196900  0.42148900  0.50414300  1
  H  524  1  0.69542800  0.39783500  0.52817900  1
  H  526  1  0.67469700  0.35981000  0.54536000  1
  H  528  1  0.62547000  0.32699900  0.44733600  1
  H  539  1  0.01052400  0.94688300  0.87928000  1
  H  540  1  0.05545200  0.94518100  0.90413600  1
  H  541  1  0.09263800  0.98528500  0.90760900  1
  H  542  1  0.08520900  0.02659800  0.88600700  1
  H  544  1  0.07187200  0.06498800  0.86922700  1
  H  546  1  0.95074000  0.97556100  0.83586500  1
  H  557  1  0.01245700  0.08197900  0.60920000  1
  H  558  1  0.05712800  0.08323200  0.58440300  1
  H  559  1  0.09452400  0.04268200  0.58103700  1
  H  560  1  0.08753700  0.00128900  0.60262700  1
  H  562  1  0.07540300  0.96341500  0.62057100  1
  H  564  1  0.95188800  0.05356700  0.64975900  1
  H  575  1  0.01571200  0.08239200  0.10897100  1
  H  576  1  0.97078000  0.08405900  0.08409800  1
  H  577  1  0.93360800  0.04394300  0.08063800  1
  H  578  1  0.94104300  0.00264800  0.10227000  1
  H  580  1  0.95457100  0.96425700  0.11901700  1
  H  582  1  0.07553500  0.05370600  0.15237600  1
  H  593  1  0.01377800  0.94720100  0.37902900  1
  H  594  1  0.96910700  0.94598700  0.40384400  1
  H  595  1  0.93172900  0.98655400  0.40719800  1
  H  596  1  0.93872200  0.02792000  0.38557800  1
  H  598  1  0.95102600  0.06576000  0.36765300  1
  H  600  1  0.07438000  0.97564100  0.33847300  1
  H  611  1  0.51589300  0.44661400  0.87928100  1
  H  612  1  0.56081300  0.44508100  0.90416900  1
  H  613  1  0.59788700  0.48526700  0.90760000  1
  H  614  1  0.59035100  0.52651800  0.88595200  1
  H  616  1  0.57684600  0.56490500  0.86923000  1
  H  618  1  0.45641900  0.47491200  0.83533800  1
  H  629  1  0.51783800  0.58224700  0.60917100  1
  H  630  1  0.56249300  0.58332700  0.58436000  1
  H  631  1  0.59977600  0.54269600  0.58103900  1
  H  632  1  0.59268300  0.50137600  0.60267600  1
  H  634  1  0.58040200  0.46352100  0.62055300  1
  H  636  1  0.45747500  0.55400500  0.65044500  1
  H  647  1  0.52100000  0.58219200  0.10909200  1
  H  648  1  0.47611800  0.58399800  0.08417800  1
  H  649  1  0.43887700  0.54394500  0.08063100  1
  H  650  1  0.44619100  0.50258400  0.10217600  1
  H  652  1  0.45936500  0.46407700  0.11882400  1
  H  654  1  0.58066100  0.55338400  0.15249200  1
  H  665  1  0.51905100  0.44740200  0.37890800  1
  H  666  1  0.47443600  0.44605100  0.40376400  1
  H  667  1  0.43699300  0.48655500  0.40720500  1
  H  668  1  0.44387000  0.52799600  0.38567300  1
  H  670  1  0.45586900  0.56600600  0.36788700  1
  H  672  1  0.57949400  0.47598000  0.33832100  1
  H  683  1  0.74464300  0.69713000  0.89365700  1
  H  684  1  0.78665600  0.68617300  0.91926400  1
  H  685  1  0.83359000  0.71751500  0.92386300  1
  H  686  1  0.83786700  0.76022100  0.90275700  1
  H  688  1  0.84561700  0.78420200  0.86826200  1
  H  690  1  0.69701000  0.73442100  0.84925500  1
  H  701  1  0.28258700  0.33191100  0.89442400  1
  H  702  1  0.23986300  0.34367400  0.91924800  1
  H  703  1  0.19254500  0.31273700  0.92330100  1
  H  704  1  0.18807200  0.26990200  0.90237000  1
  H  706  1  0.17992500  0.24577100  0.86803700  1
  H  708  1  0.32870200  0.29579600  0.84982400  1
  H  719  1  0.74631900  0.33242600  0.59475400  1
  H  720  1  0.78768000  0.34309000  0.56915700  1
  H  721  1  0.83489700  0.31141600  0.56457500  1
  H  722  1  0.84008600  0.26865700  0.58569500  1
  H  724  1  0.84864600  0.24434500  0.62032100  1
  H  726  1  0.69998300  0.29509600  0.63912000  1
  H  737  1  0.28508300  0.69692900  0.59392800  1
  H  738  1  0.24195400  0.68550700  0.56913900  1
  H  739  1  0.19419700  0.71681000  0.56512200  1
  H  740  1  0.18973200  0.75967500  0.58609400  1
  H  742  1  0.18226800  0.78385900  0.62054200  1
  H  744  1  0.33191200  0.73282300  0.63837500  1
  H  755  1  0.28509800  0.33191800  0.09382500  1
  H  756  1  0.24182500  0.34373700  0.06900900  1
  H  757  1  0.19436500  0.31285100  0.06496300  1
  H  758  1  0.19022800  0.27008400  0.08598100  1
  H  760  1  0.18266400  0.24618300  0.12054000  1
  H  762  1  0.33192100  0.29576600  0.13863300  1
  H  773  1  0.74672200  0.69729300  0.09479100  1
  H  774  1  0.78800200  0.68622600  0.06908800  1
  H  775  1  0.83488900  0.71747900  0.06435600  1
  H  776  1  0.83986200  0.76017200  0.08545500  1
  H  778  1  0.84879900  0.78393300  0.11991900  1
  H  780  1  0.70029900  0.73470700  0.13914600  1
  H  791  1  0.28347400  0.69698300  0.39426000  1
  H  792  1  0.24084400  0.68544700  0.41906100  1
  H  793  1  0.19308000  0.71665200  0.42308700  1
  H  794  1  0.18801500  0.75947300  0.40205600  1
  H  796  1  0.17965600  0.78370300  0.36731100  1
  H  798  1  0.32896700  0.73313800  0.34948100  1
  H  809  1  0.74420700  0.33233400  0.39332200  1
  H  810  1  0.78593400  0.34306100  0.41899300  1
  H  811  1  0.83326300  0.31143200  0.42369800  1
  H  812  1  0.83820700  0.26869900  0.40255900  1
  H  814  1  0.84643400  0.24488500  0.36793300  1
  H  816  1  0.69706400  0.29518100  0.34915200  1
  H  827  1  0.07579200  0.91044500  0.71717800  1
  H  828  1  0.08538400  0.95104100  0.73908600  1
  H  829  1  0.05592800  0.95779500  0.77297800  1
  H  830  1  0.01631500  0.92392000  0.78435600  1
  H  832  1  0.00646700  0.87873100  0.79804900  1
  H  834  1  0.02367900  0.85390100  0.69284400  1
  H  845  1  0.94816600  0.12102900  0.71578000  1
  H  846  1  0.93509600  0.08037500  0.73803600  1
  H  847  1  0.96377200  0.07221200  0.77238900  1
  H  848  1  0.00492200  0.10465800  0.78466400  1
  H  850  1  0.01589000  0.15025300  0.79810500  1
  H  852  1  0.97347400  0.19595200  0.70680300  1
  H  863  1  0.95050300  0.11880600  0.27108000  1
  H  864  1  0.94085900  0.07821800  0.24915500  1
  H  865  1  0.97029500  0.07146700  0.21525300  1
  H  866  1  0.00992800  0.10532600  0.20387700  1
  H  868  1  0.01978600  0.15045400  0.19016900  1
  H  870  1  0.00259700  0.17527200  0.29543400  1
  H  881  1  0.07806400  0.90819500  0.27248200  1
  H  882  1  0.09111900  0.94886300  0.25022300  1
  H  883  1  0.06244200  0.95701600  0.21587000  1
  H  884  1  0.02130900  0.92455700  0.20359300  1
  H  886  1  0.01042300  0.87897200  0.19015700  1
  H  888  1  0.05267100  0.83324800  0.28149300  1
  H  899  1  0.58102000  0.41043600  0.71727800  1
  H  900  1  0.59059900  0.45102900  0.73914800  1
  H  901  1  0.56116000  0.45780100  0.77304200  1
  H  902  1  0.52152800  0.42394700  0.78444400  1
  H  904  1  0.51131100  0.37897300  0.79817700  1
  H  906  1  0.52887800  0.35371500  0.69296700  1
  H  917  1  0.45339900  0.62096400  0.71572600  1
  H  918  1  0.44033400  0.58033600  0.73801300  1
  H  919  1  0.46901900  0.57220100  0.77236600  1
  H  920  1  0.51016300  0.60465900  0.78461500  1
  H  922  1  0.52101000  0.65027200  0.79803400  1
  H  924  1  0.47894900  0.69595500  0.70665600  1
  H  935  1  0.45580100  0.61875600  0.27117500  1
  H  936  1  0.44610900  0.57819200  0.24920400  1
  H  937  1  0.47552800  0.57146800  0.21529200  1
  H  938  1  0.51515800  0.60532900  0.20393400  1
  H  940  1  0.52491200  0.65049200  0.19024600  1
  H  942  1  0.50763400  0.67519700  0.29554500  1
  H  953  1  0.58326800  0.40816200  0.27240300  1
  H  954  1  0.59632300  0.44884200  0.25017200  1
  H  955  1  0.56767000  0.45701100  0.21581400  1
  H  956  1  0.52652300  0.42456200  0.20350800  1
  H  958  1  0.51528400  0.37913700  0.19003100  1
  H  960  1  0.55777700  0.33325300  0.28150300  1
  H  967  1  0.57102200  0.84724500  0.84930900  1
  H  968  1  0.55219800  0.82790300  0.91467000  1
  H  975  1  0.67638100  0.91972500  0.81145400  1
  H  976  1  0.63477600  0.91412500  0.87290100  1
  H  979  1  0.64237500  0.88928900  0.91188600  1
  H  980  1  0.63106100  0.82922100  0.81515600  1
  H  991  1  0.85726500  0.18187100  0.84920600  1
  H  992  1  0.87717000  0.20163100  0.91450600  1
  H  999  1  0.75315400  0.10963000  0.80998800  1
  H  1000  1  0.79448100  0.11392400  0.87209100  1
  H  1003  1  0.78740000  0.13977700  0.91212000  1
  H  1004  1  0.79660100  0.20026500  0.81564000  1
  H  1015  1  0.57348600  0.18064400  0.63847100  1
  H  1016  1  0.55428100  0.20151800  0.57325400  1
  H  1023  1  0.68533400  0.11365300  0.67749600  1
  H  1024  1  0.63808400  0.11238700  0.61644000  1
  H  1027  1  0.64494000  0.13899400  0.57552400  1
  H  1028  1  0.62863100  0.20014700  0.67045900  1
  H  1039  1  0.86004300  0.84714600  0.63939200  1
  H  1040  1  0.87877000  0.82813500  0.57398400  1
  H  1047  1  0.74946700  0.91641900  0.67815600  1
  H  1048  1  0.79610700  0.91517000  0.61758900  1
  H  1051  1  0.78792600  0.88991600  0.57647200  1
  H  1052  1  0.79840200  0.82767800  0.67306100  1
  H  1063  1  0.85950500  0.18405000  0.13899500  1
  H  1064  1  0.88275400  0.19807900  0.07342100  1
  H  1071  1  0.75473900  0.10970800  0.17670600  1
  H  1072  1  0.79735500  0.11458700  0.11566800  1
  H  1075  1  0.78991100  0.14180100  0.07321000  1
  H  1076  1  0.80040300  0.20002300  0.17294500  1
  H  1087  1  0.57546200  0.84622400  0.13895600  1
  H  1088  1  0.55095400  0.83162100  0.07343400  1
  H  1095  1  0.67805800  0.91959200  0.17837800  1
  H  1096  1  0.63631700  0.91613400  0.11652000  1
  H  1099  1  0.64397400  0.88749000  0.07269400  1
  H  1100  1  0.63424700  0.82914700  0.17237500  1
  H  1111  1  0.85700100  0.84641800  0.34970700  1
  H  1112  1  0.88062300  0.83100200  0.41526500  1
  H  1119  1  0.74582400  0.91538700  0.31082200  1
  H  1120  1  0.79402800  0.91731600  0.37143700  1
  H  1123  1  0.78670700  0.88733700  0.41589900  1
  H  1124  1  0.80277700  0.82904400  0.31798900  1
  H  1135  1  0.57256500  0.18316400  0.34900000  1
  H  1136  1  0.54961200  0.19720000  0.41463300  1
  H  1143  1  0.68180600  0.11283100  0.30998500  1
  H  1144  1  0.63461800  0.11322600  0.37023000  1
  H  1147  1  0.64386400  0.14166100  0.41515800  1
  H  1148  1  0.63247300  0.20133400  0.31528400  1
  H  1159  1  0.07618300  0.34243000  0.84938100  1
  H  1160  1  0.05825100  0.32461100  0.91515100  1
  H  1167  1  0.18127900  0.41933000  0.81199600  1
  H  1168  1  0.13801400  0.41318000  0.87286100  1
  H  1171  1  0.14564200  0.38869300  0.91162100  1
  H  1172  1  0.13632400  0.32871800  0.81476700  1
  H  1183  1  0.35898800  0.68578100  0.84946900  1
  H  1184  1  0.37843900  0.70443000  0.91499100  1
  H  1191  1  0.25848800  0.60940600  0.80980000  1
  H  1192  1  0.29973500  0.61381400  0.87189400  1
  H  1195  1  0.29239800  0.63894900  0.91267200  1
  H  1196  1  0.30232800  0.69992800  0.81530100  1
  H  1207  1  0.07859200  0.68545600  0.63840700  1
  H  1208  1  0.06035500  0.70483800  0.57277100  1
  H  1215  1  0.18991300  0.61387600  0.67692100  1
  H  1216  1  0.14134500  0.61347600  0.61636100  1
  H  1219  1  0.14820300  0.63966600  0.57574000  1
  H  1220  1  0.13358300  0.70065700  0.67092600  1
  H  1231  1  0.36193900  0.34330500  0.63904900  1
  H  1232  1  0.37993700  0.32525700  0.57343800  1
  H  1239  1  0.25477700  0.41672900  0.67833400  1
  H  1240  1  0.30140600  0.41529200  0.61779900  1
  H  1243  1  0.29284700  0.39070500  0.57587400  1
  H  1244  1  0.30374700  0.32803600  0.67364600  1
  H  1255  1  0.36110500  0.68795900  0.13860500  1
  H  1256  1  0.38392300  0.70140200  0.07298500  1
  H  1263  1  0.26001000  0.60948900  0.17689500  1
  H  1264  1  0.30295000  0.61428200  0.11602500  1
  H  1267  1  0.29419600  0.64181500  0.07253200  1
  H  1268  1  0.30614400  0.69968200  0.17328200  1
  H  1279  1  0.08066300  0.34157500  0.13883500  1
  H  1280  1  0.05681600  0.32803400  0.07310700  1
  H  1287  1  0.18304600  0.41909900  0.17789400  1
  H  1288  1  0.13954700  0.41530200  0.11665600  1
  H  1291  1  0.14762500  0.38623900  0.07279100  1
  H  1292  1  0.13946300  0.32858100  0.17279900  1
  H  1303  1  0.35869600  0.34260700  0.35007700  1
  H  1304  1  0.38170600  0.32761800  0.41566400  1
  H  1311  1  0.25109600  0.41570700  0.31066100  1
  H  1312  1  0.29957400  0.41753800  0.37111100  1
  H  1315  1  0.29065500  0.38694800  0.41639600  1
  H  1316  1  0.30850400  0.32936100  0.31795300  1
  H  1327  1  0.07764900  0.68784500  0.34917800  1
  H  1328  1  0.05556800  0.70088600  0.41501300  1
  H  1335  1  0.18668200  0.61334800  0.31046500  1
  H  1336  1  0.13786600  0.61401000  0.37006500  1
  H  1339  1  0.14764800  0.64306900  0.41505700  1
  H  1340  1  0.13786200  0.70195700  0.31496000  1
  H  1355  1  0.54908500  0.88649000  0.03845900  1
  H  1356  1  0.50710800  0.91635300  0.02339900  1
  H  1357  1  0.50154900  0.92202400  0.98426500  1
  H  1358  1  0.53836200  0.89815500  0.96031600  1
  H  1360  1  0.55879500  0.86030600  0.94334000  1
  H  1362  1  0.60932800  0.82669500  0.04135400  1
  H  1373  1  0.88298000  0.14271400  0.03842800  1
  H  1374  1  0.92463140  0.11286100  0.02337400  1
  H  1375  1  0.92937840  0.10719600  0.98424300  1
  H  1376  1  0.89206200  0.13106800  0.96028800  1
  H  1378  1  0.87144600  0.16905900  0.94330100  1
  H  1380  1  0.82248000  0.20264900  0.04124800  1
  H  1391  1  0.54838400  0.14285400  0.44960900  1
  H  1392  1  0.50701000  0.11329700  0.46472500  1
  H  1393  1  0.50237000  0.10770400  0.50386600  1
  H  1394  1  0.53946500  0.13129000  0.52777400  1
  H  1396  1  0.56003600  0.16887700  0.54468400  1
  H  1398  1  0.60733800  0.20211300  0.44656300  1
  H  1409  1  0.88183000  0.88628500  0.44998100  1
  H  1410  1  0.92342040  0.91588100  0.46498200  1
  H  1411  1  0.92899440  0.92151900  0.50410800  1
  H  1412  1  0.89250000  0.89792100  0.52810800  1
  H  1414  1  0.87223900  0.86026900  0.54521800  1
  H  1416  1  0.82229500  0.82692700  0.44712700  1
  H  1427  1  0.05424500  0.38666100  0.03841700  1
  H  1428  1  0.01228700  0.41649000  0.02333600  1
  H  1429  1  0.00674600  0.42212600  0.98420100  1
  H  1430  1  0.04353000  0.39816200  0.96025200  1
  H  1432  1  0.06342300  0.35986900  0.94326100  1
  H  1434  1  0.11522800  0.32668900  0.04120100  1
  H  1445  1  0.38828300  0.64272900  0.03842700  1
  H  1446  1  0.43005100  0.61287700  0.02335100  1
  H  1447  1  0.43480600  0.60722800  0.98420900  1
  H  1448  1  0.39744500  0.63115600  0.96022200  1
  H  1450  1  0.37637400  0.66951600  0.94317400  1
  H  1452  1  0.32820300  0.70261100  0.04105200  1
  H  1463  1  0.05353100  0.64269800  0.44965500  1
  H  1464  1  0.01218500  0.61316200  0.46479100  1
  H  1465  1  0.00756800  0.60760400  0.50393500  1
  H  1466  1  0.04463000  0.63129000  0.52784600  1
  H  1468  1  0.06466100  0.66933400  0.54477900  1
  H  1470  1  0.11322100  0.70216000  0.44674700  1
  H  1481  1  0.38712900  0.38627600  0.44998400  1
  H  1482  1  0.42884600  0.41586700  0.46500700  1
  H  1483  1  0.43443000  0.42148900  0.50414300  1
  H  1484  1  0.39788900  0.39783500  0.52817900  1
  H  1486  1  0.37715800  0.35981000  0.54536000  1
  H  1488  1  0.32793100  0.32699900  0.44733600  1
  H  1499  1  0.71298500  0.94688300  0.87928000  1
  H  1500  1  0.75791300  0.94518100  0.90413600  1
  H  1501  1  0.79509900  0.98528500  0.90760900  1
  H  1502  1  0.78767000  0.02659800  0.88600700  1
  H  1504  1  0.77433300  0.06498800  0.86922700  1
  H  1506  1  0.65320100  0.97556100  0.83586500  1
  H  1517  1  0.71491800  0.08197900  0.60920000  1
  H  1518  1  0.75958900  0.08323200  0.58440300  1
  H  1519  1  0.79698500  0.04268200  0.58103700  1
  H  1520  1  0.78999800  0.00128900  0.60262700  1
  H  1522  1  0.77786400  0.96341500  0.62057100  1
  H  1524  1  0.65434900  0.05356700  0.64975900  1
  H  1535  1  0.71817300  0.08239200  0.10897100  1
  H  1536  1  0.67324100  0.08405900  0.08409800  1
  H  1537  1  0.63606900  0.04394300  0.08063800  1
  H  1538  1  0.64350400  0.00264800  0.10227000  1
  H  1540  1  0.65703200  0.96425700  0.11901700  1
  H  1542  1  0.77799600  0.05370600  0.15237600  1
  H  1553  1  0.71623900  0.94720100  0.37902900  1
  H  1554  1  0.67156800  0.94598700  0.40384400  1
  H  1555  1  0.63419000  0.98655400  0.40719800  1
  H  1556  1  0.64118300  0.02792000  0.38557800  1
  H  1558  1  0.65348700  0.06576000  0.36765300  1
  H  1560  1  0.77684100  0.97564100  0.33847300  1
  H  1571  1  0.21835400  0.44661400  0.87928100  1
  H  1572  1  0.26327400  0.44508100  0.90416900  1
  H  1573  1  0.30034800  0.48526700  0.90760000  1
  H  1574  1  0.29281200  0.52651800  0.88595200  1
  H  1576  1  0.27930700  0.56490500  0.86923000  1
  H  1578  1  0.15888000  0.47491200  0.83533800  1
  H  1589  1  0.22029900  0.58224700  0.60917100  1
  H  1590  1  0.26495400  0.58332700  0.58436000  1
  H  1591  1  0.30223700  0.54269600  0.58103900  1
  H  1592  1  0.29514400  0.50137600  0.60267600  1
  H  1594  1  0.28286300  0.46352100  0.62055300  1
  H  1596  1  0.15993600  0.55400500  0.65044500  1
  H  1607  1  0.22346100  0.58219200  0.10909200  1
  H  1608  1  0.17857900  0.58399800  0.08417800  1
  H  1609  1  0.14133800  0.54394500  0.08063100  1
  H  1610  1  0.14865200  0.50258400  0.10217600  1
  H  1612  1  0.16182600  0.46407700  0.11882400  1
  H  1614  1  0.28312200  0.55338400  0.15249200  1
  H  1625  1  0.22151200  0.44740200  0.37890800  1
  H  1626  1  0.17689700  0.44605100  0.40376400  1
  H  1627  1  0.13945400  0.48655500  0.40720500  1
  H  1628  1  0.14633100  0.52799600  0.38567300  1
  H  1630  1  0.15833000  0.56600600  0.36788700  1
  H  1632  1  0.28195500  0.47598000  0.33832100  1
  H  1643  1  0.44710400  0.69713000  0.89365700  1
  H  1644  1  0.48911700  0.68617300  0.91926400  1
  H  1645  1  0.53605100  0.71751500  0.92386300  1
  H  1646  1  0.54032800  0.76022100  0.90275700  1
  H  1648  1  0.54807800  0.78420200  0.86826200  1
  H  1650  1  0.39947100  0.73442100  0.84925500  1
  H  1661  1  0.98504840  0.33191100  0.89442400  1
  H  1662  1  0.94232440  0.34367400  0.91924800  1
  H  1663  1  0.89500600  0.31273700  0.92330100  1
  H  1664  1  0.89053300  0.26990200  0.90237000  1
  H  1666  1  0.88238600  0.24577100  0.86803700  1
  H  1668  1  0.03116300  0.29579600  0.84982400  1
  H  1679  1  0.44878000  0.33242600  0.59475400  1
  H  1680  1  0.49014100  0.34309000  0.56915700  1
  H  1681  1  0.53735800  0.31141600  0.56457500  1
  H  1682  1  0.54254700  0.26865700  0.58569500  1
  H  1684  1  0.55110700  0.24434500  0.62032100  1
  H  1686  1  0.40244400  0.29509600  0.63912000  1
  H  1697  1  0.98754440  0.69692900  0.59392800  1
  H  1698  1  0.94441540  0.68550700  0.56913900  1
  H  1699  1  0.89665800  0.71681000  0.56512200  1
  H  1700  1  0.89219300  0.75967500  0.58609400  1
  H  1702  1  0.88472900  0.78385900  0.62054200  1
  H  1704  1  0.03437300  0.73282300  0.63837500  1
  H  1715  1  0.98755940  0.33191800  0.09382500  1
  H  1716  1  0.94428640  0.34373700  0.06900900  1
  H  1717  1  0.89682600  0.31285100  0.06496300  1
  H  1718  1  0.89268900  0.27008400  0.08598100  1
  H  1720  1  0.88512500  0.24618300  0.12054000  1
  H  1722  1  0.03438200  0.29576600  0.13863300  1
  H  1733  1  0.44918300  0.69729300  0.09479100  1
  H  1734  1  0.49046300  0.68622600  0.06908800  1
  H  1735  1  0.53735000  0.71747900  0.06435600  1
  H  1736  1  0.54232300  0.76017200  0.08545500  1
  H  1738  1  0.55126000  0.78393300  0.11991900  1
  H  1740  1  0.40276000  0.73470700  0.13914600  1
  H  1751  1  0.98593540  0.69698300  0.39426000  1
  H  1752  1  0.94330540  0.68544700  0.41906100  1
  H  1753  1  0.89554100  0.71665200  0.42308700  1
  H  1754  1  0.89047600  0.75947300  0.40205600  1
  H  1756  1  0.88211700  0.78370300  0.36731100  1
  H  1758  1  0.03142800  0.73313800  0.34948100  1
  H  1769  1  0.44666800  0.33233400  0.39332200  1
  H  1770  1  0.48839500  0.34306100  0.41899300  1
  H  1771  1  0.53572400  0.31143200  0.42369800  1
  H  1772  1  0.54066800  0.26869900  0.40255900  1
  H  1774  1  0.54889500  0.24488500  0.36793300  1
  H  1776  1  0.39952500  0.29518100  0.34915200  1
  H  1787  1  0.77825300  0.91044500  0.71717800  1
  H  1788  1  0.78784500  0.95104100  0.73908600  1
  H  1789  1  0.75838900  0.95779500  0.77297800  1
  H  1790  1  0.71877600  0.92392000  0.78435600  1
  H  1792  1  0.70892800  0.87873100  0.79804900  1
  H  1794  1  0.72614000  0.85390100  0.69284400  1
  H  1805  1  0.65062700  0.12102900  0.71578000  1
  H  1806  1  0.63755700  0.08037500  0.73803600  1
  H  1807  1  0.66623300  0.07221200  0.77238900  1
  H  1808  1  0.70738300  0.10465800  0.78466400  1
  H  1810  1  0.71835100  0.15025300  0.79810500  1
  H  1812  1  0.67593500  0.19595200  0.70680300  1
  H  1823  1  0.65296400  0.11880600  0.27108000  1
  H  1824  1  0.64332000  0.07821800  0.24915500  1
  H  1825  1  0.67275600  0.07146700  0.21525300  1
  H  1826  1  0.71238900  0.10532600  0.20387700  1
  H  1828  1  0.72224700  0.15045400  0.19016900  1
  H  1830  1  0.70505800  0.17527200  0.29543400  1
  H  1841  1  0.78052500  0.90819500  0.27248200  1
  H  1842  1  0.79358000  0.94886300  0.25022300  1
  H  1843  1  0.76490300  0.95701600  0.21587000  1
  H  1844  1  0.72377000  0.92455700  0.20359300  1
  H  1846  1  0.71288400  0.87897200  0.19015700  1
  H  1848  1  0.75513200  0.83324800  0.28149300  1
  H  1859  1  0.28348100  0.41043600  0.71727800  1
  H  1860  1  0.29306000  0.45102900  0.73914800  1
  H  1861  1  0.26362100  0.45780100  0.77304200  1
  H  1862  1  0.22398900  0.42394700  0.78444400  1
  H  1864  1  0.21377200  0.37897300  0.79817700  1
  H  1866  1  0.23133900  0.35371500  0.69296700  1
  H  1877  1  0.15586000  0.62096400  0.71572600  1
  H  1878  1  0.14279500  0.58033600  0.73801300  1
  H  1879  1  0.17148000  0.57220100  0.77236600  1
  H  1880  1  0.21262400  0.60465900  0.78461500  1
  H  1882  1  0.22347100  0.65027200  0.79803400  1
  H  1884  1  0.18141000  0.69595500  0.70665600  1
  H  1895  1  0.15826200  0.61875600  0.27117500  1
  H  1896  1  0.14857000  0.57819200  0.24920400  1
  H  1897  1  0.17798900  0.57146800  0.21529200  1
  H  1898  1  0.21761900  0.60532900  0.20393400  1
  H  1900  1  0.22737300  0.65049200  0.19024600  1
  H  1902  1  0.21009500  0.67519700  0.29554500  1
  H  1913  1  0.28572900  0.40816200  0.27240300  1
  H  1914  1  0.29878400  0.44884200  0.25017200  1
  H  1915  1  0.27013100  0.45701100  0.21581400  1
  H  1916  1  0.22898400  0.42456200  0.20350800  1
  H  1918  1  0.21774500  0.37913700  0.19003100  1
  H  1920  1  0.26023800  0.33325300  0.28150300  1
  H  1927  1  0.27348400  0.84724500  0.84930900  1
  H  1928  1  0.25466000  0.82790300  0.91467000  1
  H  1935  1  0.37884300  0.91972500  0.81145400  1
  H  1936  1  0.33723800  0.91412500  0.87290100  1
  H  1939  1  0.34483700  0.88928900  0.91188600  1
  H  1940  1  0.33352300  0.82922100  0.81515600  1
  H  1951  1  0.55972700  0.18187100  0.84920600  1
  H  1952  1  0.57963200  0.20163100  0.91450600  1
  H  1959  1  0.45561600  0.10963000  0.80998800  1
  H  1960  1  0.49694300  0.11392400  0.87209100  1
  H  1963  1  0.48986200  0.13977700  0.91212000  1
  H  1964  1  0.49906300  0.20026500  0.81564000  1
  H  1975  1  0.27594800  0.18064400  0.63847100  1
  H  1976  1  0.25674300  0.20151800  0.57325400  1
  H  1983  1  0.38779600  0.11365300  0.67749600  1
  H  1984  1  0.34054600  0.11238700  0.61644000  1
  H  1987  1  0.34740200  0.13899400  0.57552400  1
  H  1988  1  0.33109300  0.20014700  0.67045900  1
  H  1999  1  0.56250500  0.84714600  0.63939200  1
  H  2000  1  0.58123200  0.82813500  0.57398400  1
  H  2007  1  0.45192900  0.91641900  0.67815600  1
  H  2008  1  0.49856900  0.91517000  0.61758900  1
  H  2011  1  0.49038800  0.88991600  0.57647200  1
  H  2012  1  0.50086400  0.82767800  0.67306100  1
  H  2023  1  0.56196700  0.18405000  0.13899500  1
  H  2024  1  0.58521600  0.19807900  0.07342100  1
  H  2031  1  0.45720100  0.10970800  0.17670600  1
  H  2032  1  0.49981700  0.11458700  0.11566800  1
  H  2035  1  0.49237300  0.14180100  0.07321000  1
  H  2036  1  0.50286500  0.20002300  0.17294500  1
  H  2047  1  0.27792400  0.84622400  0.13895600  1
  H  2048  1  0.25341600  0.83162100  0.07343400  1
  H  2055  1  0.38052000  0.91959200  0.17837800  1
  H  2056  1  0.33877900  0.91613400  0.11652000  1
  H  2059  1  0.34643600  0.88749000  0.07269400  1
  H  2060  1  0.33670900  0.82914700  0.17237500  1
  H  2071  1  0.55946300  0.84641800  0.34970700  1
  H  2072  1  0.58308500  0.83100200  0.41526500  1
  H  2079  1  0.44828600  0.91538700  0.31082200  1
  H  2080  1  0.49649000  0.91731600  0.37143700  1
  H  2083  1  0.48916900  0.88733700  0.41589900  1
  H  2084  1  0.50523900  0.82904400  0.31798900  1
  H  2095  1  0.27502700  0.18316400  0.34900000  1
  H  2096  1  0.25207400  0.19720000  0.41463300  1
  H  2103  1  0.38426800  0.11283100  0.30998500  1
  H  2104  1  0.33708000  0.11322600  0.37023000  1
  H  2107  1  0.34632600  0.14166100  0.41515800  1
  H  2108  1  0.33493500  0.20133400  0.31528400  1
  H  2119  1  0.77864500  0.34243000  0.84938100  1
  H  2120  1  0.76071300  0.32461100  0.91515100  1
  H  2127  1  0.88374100  0.41933000  0.81199600  1
  H  2128  1  0.84047600  0.41318000  0.87286100  1
  H  2131  1  0.84810400  0.38869300  0.91162100  1
  H  2132  1  0.83878600  0.32871800  0.81476700  1
  H  2143  1  0.06145000  0.68578100  0.84946900  1
  H  2144  1  0.08090100  0.70443000  0.91499100  1
  H  2151  1  0.96094980  0.60940600  0.80980000  1
  H  2152  1  0.00219700  0.61381400  0.87189400  1
  H  2155  1  0.99485978  0.63894900  0.91267200  1
  H  2156  1  0.00479000  0.69992800  0.81530100  1
  H  2167  1  0.78105400  0.68545600  0.63840700  1
  H  2168  1  0.76281700  0.70483800  0.57277100  1
  H  2175  1  0.89237500  0.61387600  0.67692100  1
  H  2176  1  0.84380700  0.61347600  0.61636100  1
  H  2179  1  0.85066500  0.63966600  0.57574000  1
  H  2180  1  0.83604500  0.70065700  0.67092600  1
  H  2191  1  0.06440100  0.34330500  0.63904900  1
  H  2192  1  0.08239900  0.32525700  0.57343800  1
  H  2199  1  0.95723880  0.41672900  0.67833400  1
  H  2200  1  0.00386800  0.41529200  0.61779900  1
  H  2203  1  0.99530878  0.39070500  0.57587400  1
  H  2204  1  0.00620900  0.32803600  0.67364600  1
  H  2215  1  0.06356700  0.68795900  0.13860500  1
  H  2216  1  0.08638500  0.70140200  0.07298500  1
  H  2223  1  0.96247180  0.60948900  0.17689500  1
  H  2224  1  0.00541200  0.61428200  0.11602500  1
  H  2227  1  0.99665778  0.64181500  0.07253200  1
  H  2228  1  0.00860600  0.69968200  0.17328200  1
  H  2239  1  0.78312500  0.34157500  0.13883500  1
  H  2240  1  0.75927800  0.32803400  0.07310700  1
  H  2247  1  0.88550800  0.41909900  0.17789400  1
  H  2248  1  0.84200900  0.41530200  0.11665600  1
  H  2251  1  0.85008700  0.38623900  0.07279100  1
  H  2252  1  0.84192500  0.32858100  0.17279900  1
  H  2263  1  0.06115800  0.34260700  0.35007700  1
  H  2264  1  0.08416800  0.32761800  0.41566400  1
  H  2271  1  0.95355780  0.41570700  0.31066100  1
  H  2272  1  0.00203600  0.41753800  0.37111100  1
  H  2275  1  0.99311678  0.38694800  0.41639600  1
  H  2276  1  0.01096600  0.32936100  0.31795300  1
  H  2287  1  0.78011100  0.68784500  0.34917800  1
  H  2288  1  0.75803000  0.70088600  0.41501300  1
  H  2295  1  0.88914400  0.61334800  0.31046500  1
  H  2296  1  0.84032800  0.61401000  0.37006500  1
  H  2299  1  0.85011000  0.64306900  0.41505700  1
  H  2300  1  0.84032400  0.70195700  0.31496000  1
  H  2315  1  0.25154700  0.88649000  0.03845900  1
  H  2316  1  0.20957000  0.91635300  0.02339900  1
  H  2317  1  0.20401100  0.92202400  0.98426500  1
  H  2318  1  0.24082400  0.89815500  0.96031600  1
  H  2320  1  0.26125700  0.86030600  0.94334000  1
  H  2322  1  0.31179000  0.82669500  0.04135400  1
  H  2333  1  0.58544200  0.14271400  0.03842800  1
  H  2334  1  0.62709300  0.11286100  0.02337400  1
  H  2335  1  0.63184000  0.10719600  0.98424300  1
  H  2336  1  0.59452400  0.13106800  0.96028800  1
  H  2338  1  0.57390800  0.16905900  0.94330100  1
  H  2340  1  0.52494200  0.20264900  0.04124800  1
  H  2351  1  0.25084600  0.14285400  0.44960900  1
  H  2352  1  0.20947200  0.11329700  0.46472500  1
  H  2353  1  0.20483200  0.10770400  0.50386600  1
  H  2354  1  0.24192700  0.13129000  0.52777400  1
  H  2356  1  0.26249800  0.16887700  0.54468400  1
  H  2358  1  0.30980000  0.20211300  0.44656300  1
  H  2369  1  0.58429200  0.88628500  0.44998100  1
  H  2370  1  0.62588200  0.91588100  0.46498200  1
  H  2371  1  0.63145600  0.92151900  0.50410800  1
  H  2372  1  0.59496200  0.89792100  0.52810800  1
  H  2374  1  0.57470100  0.86026900  0.54521800  1
  H  2376  1  0.52475700  0.82692700  0.44712700  1
  H  2387  1  0.75670700  0.38666100  0.03841700  1
  H  2388  1  0.71474900  0.41649000  0.02333600  1
  H  2389  1  0.70920800  0.42212600  0.98420100  1
  H  2390  1  0.74599200  0.39816200  0.96025200  1
  H  2392  1  0.76588500  0.35986900  0.94326100  1
  H  2394  1  0.81769000  0.32668900  0.04120100  1
  H  2405  1  0.09074500  0.64272900  0.03842700  1
  H  2406  1  0.13251300  0.61287700  0.02335100  1
  H  2407  1  0.13726800  0.60722800  0.98420900  1
  H  2408  1  0.09990700  0.63115600  0.96022200  1
  H  2410  1  0.07883600  0.66951600  0.94317400  1
  H  2412  1  0.03066500  0.70261100  0.04105200  1
  H  2423  1  0.75599300  0.64269800  0.44965500  1
  H  2424  1  0.71464700  0.61316200  0.46479100  1
  H  2425  1  0.71003000  0.60760400  0.50393500  1
  H  2426  1  0.74709200  0.63129000  0.52784600  1
  H  2428  1  0.76712300  0.66933400  0.54477900  1
  H  2430  1  0.81568300  0.70216000  0.44674700  1
  H  2441  1  0.08959100  0.38627600  0.44998400  1
  H  2442  1  0.13130800  0.41586700  0.46500700  1
  H  2443  1  0.13689200  0.42148900  0.50414300  1
  H  2444  1  0.10035100  0.39783500  0.52817900  1
  H  2446  1  0.07962000  0.35981000  0.54536000  1
  H  2448  1  0.03039300  0.32699900  0.44733600  1
  H  2459  1  0.41544700  0.94688300  0.87928000  1
  H  2460  1  0.46037500  0.94518100  0.90413600  1
  H  2461  1  0.49756100  0.98528500  0.90760900  1
  H  2462  1  0.49013200  0.02659800  0.88600700  1
  H  2464  1  0.47679500  0.06498800  0.86922700  1
  H  2466  1  0.35566300  0.97556100  0.83586500  1
  H  2477  1  0.41738000  0.08197900  0.60920000  1
  H  2478  1  0.46205100  0.08323200  0.58440300  1
  H  2479  1  0.49944700  0.04268200  0.58103700  1
  H  2480  1  0.49246000  0.00128900  0.60262700  1
  H  2482  1  0.48032600  0.96341500  0.62057100  1
  H  2484  1  0.35681100  0.05356700  0.64975900  1
  H  2495  1  0.42063500  0.08239200  0.10897100  1
  H  2496  1  0.37570300  0.08405900  0.08409800  1
  H  2497  1  0.33853100  0.04394300  0.08063800  1
  H  2498  1  0.34596600  0.00264800  0.10227000  1
  H  2500  1  0.35949400  0.96425700  0.11901700  1
  H  2502  1  0.48045800  0.05370600  0.15237600  1
  H  2513  1  0.41870100  0.94720100  0.37902900  1
  H  2514  1  0.37403000  0.94598700  0.40384400  1
  H  2515  1  0.33665200  0.98655400  0.40719800  1
  H  2516  1  0.34364500  0.02792000  0.38557800  1
  H  2518  1  0.35594900  0.06576000  0.36765300  1
  H  2520  1  0.47930300  0.97564100  0.33847300  1
  H  2531  1  0.92081580  0.44661400  0.87928100  1
  H  2532  1  0.96573580  0.44508100  0.90416900  1
  H  2533  1  0.00281000  0.48526700  0.90760000  1
  H  2534  1  0.99527378  0.52651800  0.88595200  1
  H  2536  1  0.98176880  0.56490500  0.86923000  1
  H  2538  1  0.86134200  0.47491200  0.83533800  1
  H  2549  1  0.92276080  0.58224700  0.60917100  1
  H  2550  1  0.96741580  0.58332700  0.58436000  1
  H  2551  1  0.00469900  0.54269600  0.58103900  1
  H  2552  1  0.99760578  0.50137600  0.60267600  1
  H  2554  1  0.98532480  0.46352100  0.62055300  1
  H  2556  1  0.86239800  0.55400500  0.65044500  1
  H  2567  1  0.92592280  0.58219200  0.10909200  1
  H  2568  1  0.88104100  0.58399800  0.08417800  1
  H  2569  1  0.84380000  0.54394500  0.08063100  1
  H  2570  1  0.85111400  0.50258400  0.10217600  1
  H  2572  1  0.86428800  0.46407700  0.11882400  1
  H  2574  1  0.98558380  0.55338400  0.15249200  1
  H  2585  1  0.92397380  0.44740200  0.37890800  1
  H  2586  1  0.87935900  0.44605100  0.40376400  1
  H  2587  1  0.84191600  0.48655500  0.40720500  1
  H  2588  1  0.84879300  0.52799600  0.38567300  1
  H  2590  1  0.86079200  0.56600600  0.36788700  1
  H  2592  1  0.98441680  0.47598000  0.33832100  1
  H  2603  1  0.14956600  0.69713000  0.89365700  1
  H  2604  1  0.19157900  0.68617300  0.91926400  1
  H  2605  1  0.23851300  0.71751500  0.92386300  1
  H  2606  1  0.24279000  0.76022100  0.90275700  1
  H  2608  1  0.25054000  0.78420200  0.86826200  1
  H  2610  1  0.10193300  0.73442100  0.84925500  1
  H  2621  1  0.68751000  0.33191100  0.89442400  1
  H  2622  1  0.64478600  0.34367400  0.91924800  1
  H  2623  1  0.59746800  0.31273700  0.92330100  1
  H  2624  1  0.59299500  0.26990200  0.90237000  1
  H  2626  1  0.58484800  0.24577100  0.86803700  1
  H  2628  1  0.73362500  0.29579600  0.84982400  1
  H  2639  1  0.15124200  0.33242600  0.59475400  1
  H  2640  1  0.19260300  0.34309000  0.56915700  1
  H  2641  1  0.23982000  0.31141600  0.56457500  1
  H  2642  1  0.24500900  0.26865700  0.58569500  1
  H  2644  1  0.25356900  0.24434500  0.62032100  1
  H  2646  1  0.10490600  0.29509600  0.63912000  1
  H  2657  1  0.69000600  0.69692900  0.59392800  1
  H  2658  1  0.64687700  0.68550700  0.56913900  1
  H  2659  1  0.59912000  0.71681000  0.56512200  1
  H  2660  1  0.59465500  0.75967500  0.58609400  1
  H  2662  1  0.58719100  0.78385900  0.62054200  1
  H  2664  1  0.73683500  0.73282300  0.63837500  1
  H  2675  1  0.69002100  0.33191800  0.09382500  1
  H  2676  1  0.64674800  0.34373700  0.06900900  1
  H  2677  1  0.59928800  0.31285100  0.06496300  1
  H  2678  1  0.59515100  0.27008400  0.08598100  1
  H  2680  1  0.58758700  0.24618300  0.12054000  1
  H  2682  1  0.73684400  0.29576600  0.13863300  1
  H  2693  1  0.15164500  0.69729300  0.09479100  1
  H  2694  1  0.19292500  0.68622600  0.06908800  1
  H  2695  1  0.23981200  0.71747900  0.06435600  1
  H  2696  1  0.24478500  0.76017200  0.08545500  1
  H  2698  1  0.25372200  0.78393300  0.11991900  1
  H  2700  1  0.10522200  0.73470700  0.13914600  1
  H  2711  1  0.68839700  0.69698300  0.39426000  1
  H  2712  1  0.64576700  0.68544700  0.41906100  1
  H  2713  1  0.59800300  0.71665200  0.42308700  1
  H  2714  1  0.59293800  0.75947300  0.40205600  1
  H  2716  1  0.58457900  0.78370300  0.36731100  1
  H  2718  1  0.73389000  0.73313800  0.34948100  1
  H  2729  1  0.14913000  0.33233400  0.39332200  1
  H  2730  1  0.19085700  0.34306100  0.41899300  1
  H  2731  1  0.23818600  0.31143200  0.42369800  1
  H  2732  1  0.24313000  0.26869900  0.40255900  1
  H  2734  1  0.25135700  0.24488500  0.36793300  1
  H  2736  1  0.10198700  0.29518100  0.34915200  1
  H  2747  1  0.48071500  0.91044500  0.71717800  1
  H  2748  1  0.49030700  0.95104100  0.73908600  1
  H  2749  1  0.46085100  0.95779500  0.77297800  1
  H  2750  1  0.42123800  0.92392000  0.78435600  1
  H  2752  1  0.41139000  0.87873100  0.79804900  1
  H  2754  1  0.42860200  0.85390100  0.69284400  1
  H  2765  1  0.35308900  0.12102900  0.71578000  1
  H  2766  1  0.34001900  0.08037500  0.73803600  1
  H  2767  1  0.36869500  0.07221200  0.77238900  1
  H  2768  1  0.40984500  0.10465800  0.78466400  1
  H  2770  1  0.42081300  0.15025300  0.79810500  1
  H  2772  1  0.37839700  0.19595200  0.70680300  1
  H  2783  1  0.35542600  0.11880600  0.27108000  1
  H  2784  1  0.34578200  0.07821800  0.24915500  1
  H  2785  1  0.37521800  0.07146700  0.21525300  1
  H  2786  1  0.41485100  0.10532600  0.20387700  1
  H  2788  1  0.42470900  0.15045400  0.19016900  1
  H  2790  1  0.40752000  0.17527200  0.29543400  1
  H  2801  1  0.48298700  0.90819500  0.27248200  1
  H  2802  1  0.49604200  0.94886300  0.25022300  1
  H  2803  1  0.46736500  0.95701600  0.21587000  1
  H  2804  1  0.42623200  0.92455700  0.20359300  1
  H  2806  1  0.41534600  0.87897200  0.19015700  1
  H  2808  1  0.45759400  0.83324800  0.28149300  1
  H  2819  1  0.98594280  0.41043600  0.71727800  1
  H  2820  1  0.99552178  0.45102900  0.73914800  1
  H  2821  1  0.96608280  0.45780100  0.77304200  1
  H  2822  1  0.92645080  0.42394700  0.78444400  1
  H  2824  1  0.91623380  0.37897300  0.79817700  1
  H  2826  1  0.93380080  0.35371500  0.69296700  1
  H  2837  1  0.85832200  0.62096400  0.71572600  1
  H  2838  1  0.84525700  0.58033600  0.73801300  1
  H  2839  1  0.87394200  0.57220100  0.77236600  1
  H  2840  1  0.91508580  0.60465900  0.78461500  1
  H  2842  1  0.92593280  0.65027200  0.79803400  1
  H  2844  1  0.88387200  0.69595500  0.70665600  1
  H  2855  1  0.86072400  0.61875600  0.27117500  1
  H  2856  1  0.85103200  0.57819200  0.24920400  1
  H  2857  1  0.88045100  0.57146800  0.21529200  1
  H  2858  1  0.92008080  0.60532900  0.20393400  1
  H  2860  1  0.92983480  0.65049200  0.19024600  1
  H  2862  1  0.91255680  0.67519700  0.29554500  1
  H  2873  1  0.98819080  0.40816200  0.27240300  1
  H  2874  1  0.00124600  0.44884200  0.25017200  1
  H  2875  1  0.97259280  0.45701100  0.21581400  1
  H  2876  1  0.93144580  0.42456200  0.20350800  1
  H  2878  1  0.92020680  0.37913700  0.19003100  1
  H  2880  1  0.96269980  0.33325300  0.28150300  1
  C  1  1  0.90605400  0.86210800  0.87103600  1
  C  2  1  0.87606200  0.84807300  0.86531000  1
  C  3  1  0.85538200  0.83555400  0.88116000  1
  C  4  1  0.86452500  0.83751900  0.90330900  1
  C  5  1  0.89340200  0.85175800  0.91036400  1
  C  6  1  0.91404900  0.86373500  0.89394000  1
  C  9  1  0.92542000  0.87612700  0.85405100  1
  C  10  1  0.93327100  0.86379500  0.83308300  1
  C  11  1  0.95133400  0.87948400  0.81682200  1
  C  12  1  0.96095300  0.90771000  0.82242200  1
  C  13  1  0.95534300  0.91988800  0.84296300  1
  C  14  1  0.93707300  0.90429500  0.85828100  1
  C  25  1  0.11800800  0.16656400  0.87094900  1
  C  26  1  0.14768800  0.18108100  0.86521300  1
  C  27  1  0.16857100  0.19416800  0.88095700  1
  C  28  1  0.15982700  0.19192900  0.90310800  1
  C  29  1  0.13131000  0.17732300  0.91020000  1
  C  30  1  0.11049700  0.16497400  0.89382700  1
  C  33  1  0.09793300  0.15260000  0.85404100  1
  C  34  1  0.08947700  0.16553200  0.83334100  1
  C  35  1  0.07132400  0.15013800  0.81689400  1
  C  36  1  0.06235000  0.12168400  0.82175400  1
  C  37  1  0.06752600  0.10903200  0.84208700  1
  C  38  1  0.08642800  0.12416500  0.85774100  1
  C  49  1  0.90795100  0.16506300  0.61668200  1
  C  50  1  0.87825200  0.17974200  0.62247200  1
  C  51  1  0.85766700  0.19305300  0.60667300  1
  C  52  1  0.86661700  0.19133200  0.58457800  1
  C  53  1  0.89531900  0.17654000  0.57754900  1
  C  54  1  0.91599800  0.16370600  0.59391700  1
  C  57  1  0.92774300  0.15141500  0.63375200  1
  C  58  1  0.93614400  0.16550500  0.65379200  1
  C  59  1  0.95519800  0.15114300  0.67031500  1
  C  60  1  0.96694800  0.12318400  0.66646700  1
  C  61  1  0.96004300  0.10921100  0.64668400  1
  C  62  1  0.94013300  0.12305700  0.63077300  1
  C  73  1  0.11988800  0.86268400  0.61784100  1
  C  74  1  0.15000700  0.84819000  0.62341700  1
  C  75  1  0.17075400  0.83544200  0.60752600  1
  C  76  1  0.16152000  0.83786300  0.58540300  1
  C  77  1  0.13267500  0.85268700  0.57838900  1
  C  78  1  0.11196100  0.86479400  0.59492500  1
  C  81  1  0.09976400  0.87603300  0.63499000  1
  C  82  1  0.09228600  0.86299100  0.65570500  1
  C  83  1  0.07275300  0.87769200  0.67178700  1
  C  84  1  0.06077800  0.90535600  0.66676800  1
  C  85  1  0.06769600  0.91896100  0.64700600  1
  C  86  1  0.08774700  0.90450500  0.63161500  1
  C  97  1  0.12117500  0.16694800  0.11701900  1
  C  98  1  0.15030500  0.18233600  0.12290000  1
  C  99  1  0.17156000  0.19461000  0.10717900  1
  C  100  1  0.16418300  0.19041300  0.08489400  1
  C  101  1  0.13622700  0.17513500  0.07774700  1
  C  102  1  0.11486600  0.16347700  0.09395600  1
  C  105  1  0.10139700  0.15307200  0.13406900  1
  C  106  1  0.09312500  0.16550100  0.15497900  1
  C  107  1  0.07492300  0.14991700  0.17127500  1
  C  108  1  0.06531600  0.12167800  0.16574300  1
  C  109  1  0.07107600  0.10939400  0.14527700  1
  C  110  1  0.08970000  0.12482000  0.13004600  1
  C  121  1  0.90830800  0.86336300  0.11691400  1
  C  122  1  0.87939300  0.84796400  0.12285700  1
  C  123  1  0.85792600  0.83564200  0.10715100  1
  C  124  1  0.86479700  0.83950600  0.08485300  1
  C  125  1  0.89247100  0.85491400  0.07768500  1
  C  126  1  0.91405000  0.86686100  0.09386600  1
  C  129  1  0.92854400  0.87692600  0.13400100  1
  C  130  1  0.93705000  0.86380400  0.15466500  1
  C  131  1  0.95506300  0.87909300  0.17125800  1
  C  132  1  0.96399400  0.90759700  0.16655700  1
  C  133  1  0.95878800  0.92041700  0.14630500  1
  C  134  1  0.93981600  0.90548700  0.13061700  1
  C  145  1  0.11923300  0.86425700  0.37170900  1
  C  146  1  0.14804500  0.84820400  0.36579800  1
  C  147  1  0.16919600  0.83519400  0.38151300  1
  C  148  1  0.16202000  0.83920100  0.40377600  1
  C  149  1  0.13426400  0.85507300  0.41085800  1
  C  150  1  0.11292400  0.86758000  0.39465900  1
  C  153  1  0.09906300  0.87781900  0.35458000  1
  C  154  1  0.09024300  0.86366300  0.33460200  1
  C  155  1  0.07110900  0.87794600  0.31804300  1
  C  156  1  0.05935900  0.90590500  0.32183400  1
  C  157  1  0.06639600  0.91996100  0.34154500  1
  C  158  1  0.08664000  0.90625900  0.35735400  1
  C  169  1  0.90643900  0.16582500  0.37079500  1
  C  170  1  0.87706000  0.18122700  0.36504800  1
  C  171  1  0.85580800  0.19326800  0.38090900  1
  C  172  1  0.86330600  0.18930700  0.40316800  1
  C  173  1  0.89134100  0.17367100  0.41021500  1
  C  174  1  0.91270600  0.16186500  0.39385400  1
  C  177  1  0.92667800  0.15288400  0.35345400  1
  C  178  1  0.93421300  0.16613000  0.33277600  1
  C  179  1  0.95360700  0.15152600  0.31654500  1
  C  180  1  0.96559100  0.12382600  0.32142000  1
  C  181  1  0.95862100  0.11005000  0.34108700  1
  C  182  1  0.93846200  0.12429400  0.35648800  1
  C  193  1  0.40979300  0.36040100  0.87080500  1
  C  194  1  0.38105600  0.34404900  0.86536000  1
  C  195  1  0.36127500  0.33036300  0.88134200  1
  C  196  1  0.36987200  0.33437800  0.90346200  1
  C  197  1  0.39772000  0.35027400  0.91027100  1
  C  198  1  0.41771400  0.36266200  0.89369000  1
  C  201  1  0.42895500  0.37522500  0.85386000  1
  C  202  1  0.43751600  0.36323500  0.83289000  1
  C  203  1  0.45597300  0.37910800  0.81690000  1
  C  204  1  0.46555000  0.40725400  0.82277400  1
  C  205  1  0.45951100  0.41928400  0.84332200  1
  C  206  1  0.44068000  0.40344100  0.85827600  1
  C  217  1  0.62164300  0.66717400  0.87112900  1
  C  218  1  0.64956000  0.68404300  0.86545300  1
  C  219  1  0.66879600  0.69846200  0.88131400  1
  C  220  1  0.66174000  0.69415900  0.90350200  1
  C  221  1  0.63497000  0.67731500  0.91050500  1
  C  222  1  0.61464700  0.66453500  0.89404000  1
  C  225  1  0.60247300  0.65273900  0.85401200  1
  C  226  1  0.59409100  0.66558000  0.83326300  1
  C  227  1  0.57642800  0.64997200  0.81674200  1
  C  228  1  0.56761700  0.62148000  0.82157900  1
  C  229  1  0.57283100  0.60883400  0.84191300  1
  C  230  1  0.59158300  0.62408100  0.85757700  1
  C  241  1  0.41169600  0.66693400  0.61690600  1
  C  242  1  0.38325400  0.68387100  0.62243500  1
  C  243  1  0.36362900  0.69834700  0.60651900  1
  C  244  1  0.37202400  0.69456800  0.58442500  1
  C  245  1  0.39967700  0.67812300  0.57763500  1
  C  246  1  0.41967600  0.66488500  0.59415900  1
  C  249  1  0.43121700  0.65240100  0.63393400  1
  C  250  1  0.44031400  0.66609000  0.65401000  1
  C  251  1  0.45964800  0.65143800  0.67027200  1
  C  252  1  0.47128800  0.62352700  0.66610200  1
  C  253  1  0.46405800  0.60980800  0.64625800  1
  C  254  1  0.44369000  0.62399900  0.63070100  1
  C  265  1  0.62351800  0.36208700  0.61765000  1
  C  266  1  0.65190800  0.34519300  0.62312700  1
  C  267  1  0.67091400  0.33098200  0.60711000  1
  C  268  1  0.66333200  0.33551800  0.58496900  1
  C  269  1  0.63627700  0.35266800  0.57807800  1
  C  270  1  0.61608000  0.36524200  0.59471300  1
  C  273  1  0.60430900  0.37591500  0.63502400  1
  C  274  1  0.59686400  0.36294300  0.65578200  1
  C  275  1  0.57777300  0.37788700  0.67193100  1
  C  276  1  0.56601200  0.40561500  0.66693700  1
  C  277  1  0.57299100  0.41918900  0.64717600  1
  C  278  1  0.59291100  0.40460900  0.63178500  1
  C  289  1  0.62483800  0.66751300  0.11686000  1
  C  290  1  0.65202200  0.68535300  0.12257000  1
  C  291  1  0.67147000  0.69916700  0.10668500  1
  C  292  1  0.66586800  0.69301700  0.08449100  1
  C  293  1  0.63990700  0.67525500  0.07752600  1
  C  294  1  0.61912700  0.66303500  0.09382200  1
  C  297  1  0.60604400  0.65315100  0.13414300  1
  C  298  1  0.59778800  0.66552800  0.15507800  1
  C  299  1  0.58003800  0.64974200  0.17143700  1
  C  300  1  0.57056200  0.62146300  0.16593000  1
  C  301  1  0.57644100  0.60914200  0.14549100  1
  C  302  1  0.59501900  0.62464100  0.13029200  1
  C  313  1  0.41201000  0.36163400  0.11715700  1
  C  314  1  0.38437200  0.34407200  0.12277400  1
  C  315  1  0.36372800  0.33064100  0.10693800  1
  C  316  1  0.37006200  0.33625800  0.08475600  1
  C  317  1  0.39656500  0.35335000  0.07781600  1
  C  318  1  0.41753900  0.36572600  0.09413900  1
  C  321  1  0.43208100  0.37600000  0.13420500  1
  C  322  1  0.44127900  0.36318600  0.15487000  1
  C  323  1  0.45971600  0.37862700  0.17120400  1
  C  324  1  0.46867400  0.40704300  0.16623600  1
  C  325  1  0.46305500  0.41973500  0.14598400  1
  C  326  1  0.44343300  0.40463700  0.13066500  1
  C  337  1  0.62291400  0.36362000  0.37185000  1
  C  338  1  0.64977400  0.34516900  0.36610700  1
  C  339  1  0.66899000  0.33054100  0.38195700  1
  C  340  1  0.66360300  0.33649600  0.40415200  1
  C  341  1  0.63794100  0.35489100  0.41107600  1
  C  342  1  0.61722500  0.36796000  0.39478900  1
  C  345  1  0.60371200  0.37770100  0.35450000  1
  C  346  1  0.59485400  0.36365500  0.33447500  1
  C  347  1  0.57613300  0.37814700  0.31786600  1
  C  348  1  0.56459100  0.40616300  0.32166200  1
  C  349  1  0.57177200  0.42021100  0.34135200  1
  C  350  1  0.59194200  0.40638300  0.35712700  1
  C  361  1  0.41011600  0.66756900  0.37056000  1
  C  362  1  0.38202800  0.68521200  0.36516900  1
  C  363  1  0.36168300  0.69846800  0.38117400  1
  C  364  1  0.36866600  0.69269300  0.40330600  1
  C  365  1  0.39547100  0.67528200  0.41009200  1
  C  366  1  0.41618200  0.66300700  0.39358200  1
  C  369  1  0.43017900  0.65378600  0.35324400  1
  C  370  1  0.43836100  0.66672400  0.33255200  1
  C  371  1  0.45813100  0.65196200  0.31657400  1
  C  372  1  0.47016700  0.62437300  0.32172900  1
  C  373  1  0.46284600  0.61072100  0.34138700  1
  C  374  1  0.44207800  0.62511900  0.35643100  1
  C  385  1  0.88556400  0.86036900  0.97054300  1
  C  386  1  0.86437600  0.87605600  0.98491800  1
  C  387  1  0.86826500  0.87323600  0.00823800  1
  C  388  1  0.89392300  0.85523900  0.01691900  1
  C  391  1  0.84564500  0.88808200  0.02188600  1
  C  392  1  0.82054200  0.90570900  0.01320000  1
  C  393  1  0.81726400  0.90895600  0.99059400  1
  C  394  1  0.83897300  0.89441900  0.97665600  1
  C  399  1  0.87989000  0.85837600  0.94785500  1
  C  401  1  0.89925700  0.84685500  0.03891000  1
  C  403  1  0.14019700  0.16887000  0.97047400  1
  C  404  1  0.16167600  0.15320300  0.98488100  1
  C  405  1  0.15828900  0.15604100  0.00821000  1
  C  406  1  0.13286400  0.17408300  0.01690300  1
  C  409  1  0.18116900  0.14116000  0.02185800  1
  C  410  1  0.20607700  0.12352000  0.01317400  1
  C  411  1  0.20888500  0.12027800  0.99056900  1
  C  412  1  0.18689500  0.13482400  0.97662700  1
  C  417  1  0.14549100  0.17087900  0.94777200  1
  C  419  1  0.12802300  0.18259800  0.03889500  1
  C  421  1  0.88612500  0.16862000  0.51746600  1
  C  422  1  0.86472400  0.15312500  0.50313300  1
  C  423  1  0.86807800  0.15588500  0.47981100  1
  C  424  1  0.89334300  0.17366800  0.47108900  1
  C  427  1  0.84529400  0.14123800  0.46618800  1
  C  428  1  0.82056000  0.12382500  0.47490800  1
  C  429  1  0.81780800  0.12062400  0.49751900  1
  C  430  1  0.83967000  0.13500400  0.51143300  1
  C  435  1  0.88101600  0.17054500  0.54014000  1
  C  437  1  0.89814300  0.18185600  0.44904600  1
  C  439  1  0.14061100  0.86068900  0.51798500  1
  C  440  1  0.16170800  0.87607600  0.50355500  1
  C  441  1  0.15787400  0.87323200  0.48022800  1
  C  442  1  0.13245600  0.85536900  0.47158000  1
  C  445  1  0.18031100  0.88788900  0.46655000  1
  C  446  1  0.20520800  0.90535800  0.47519900  1
  C  447  1  0.20848900  0.90858100  0.49780200  1
  C  448  1  0.18697500  0.89420700  0.51177200  1
  C  453  1  0.14620200  0.85878400  0.54073400  1
  C  455  1  0.12720900  0.84703000  0.44958600  1
  C  457  1  0.39048400  0.36024500  0.97045300  1
  C  458  1  0.36943300  0.37602400  0.98486700  1
  C  459  1  0.37331500  0.37322700  0.00820600  1
  C  460  1  0.39886500  0.35514900  0.01692500  1
  C  463  1  0.35076800  0.38816300  0.02184300  1
  C  464  1  0.32569200  0.40580100  0.01314400  1
  C  465  1  0.32243100  0.40903200  0.99053500  1
  C  466  1  0.34411100  0.39445100  0.97659900  1
  C  471  1  0.38455100  0.35797100  0.94775100  1
  C  473  1  0.40414100  0.34658000  0.03892100  1
  C  475  1  0.64533400  0.66856400  0.97048900  1
  C  476  1  0.66695000  0.65302200  0.98486200  1
  C  477  1  0.66358100  0.65586700  0.00818100  1
  C  478  1  0.63808500  0.67384300  0.01683500  1
  C  481  1  0.68651500  0.64110000  0.02184800  1
  C  482  1  0.71145500  0.62349200  0.01315300  1
  C  483  1  0.71426300  0.62025600  0.99053600  1
  C  484  1  0.69225300  0.63477900  0.97658200  1
  C  489  1  0.65041100  0.67064600  0.94780600  1
  C  491  1  0.63326600  0.68240100  0.03876100  1
  C  493  1  0.39104000  0.66874500  0.51756100  1
  C  494  1  0.36977700  0.65315700  0.50319000  1
  C  495  1  0.37312600  0.65589300  0.47985000  1
  C  496  1  0.39828000  0.67375900  0.47108900  1
  C  499  1  0.35041000  0.64116200  0.46623400  1
  C  500  1  0.32570600  0.62373300  0.47496700  1
  C  501  1  0.32297200  0.62054700  0.49758300  1
  C  502  1  0.34480300  0.63497300  0.51149500  1
  C  507  1  0.38567300  0.67096500  0.54024900  1
  C  509  1  0.40302400  0.68214100  0.44904700  1
  C  511  1  0.64574600  0.36101300  0.51797700  1
  C  512  1  0.66699000  0.37626300  0.50357800  1
  C  513  1  0.66317000  0.37340600  0.48026200  1
  C  514  1  0.63768600  0.35561000  0.47165400  1
  C  517  1  0.68566200  0.38795200  0.46655900  1
  C  518  1  0.71058900  0.40539100  0.47522200  1
  C  519  1  0.71387800  0.40860400  0.49783700  1
  C  520  1  0.69234200  0.39425800  0.51182000  1
  C  525  1  0.65111100  0.35903300  0.54070600  1
  C  527  1  0.63244300  0.34723500  0.44972700  1
  C  529  1  0.03669200  0.03765600  0.85562200  1
  C  530  1  0.04201200  0.01254600  0.86846800  1
  C  531  1  0.02019600  0.98851700  0.86604900  1
  C  532  1  0.99373700  0.99009900  0.85053000  1
  C  535  1  0.02569000  0.96417900  0.87955500  1
  C  536  1  0.05198800  0.96298500  0.89456100  1
  C  537  1  0.07343600  0.98616300  0.89662500  1
  C  538  1  0.06850200  0.01061100  0.88376500  1
  C  543  1  0.05556900  0.06265300  0.85728200  1
  C  545  1  0.97016500  0.96938900  0.84490600  1
  C  547  1  0.03958100  0.99113500  0.63307500  1
  C  548  1  0.04479600  0.01605700  0.62015400  1
  C  549  1  0.02295000  0.04033600  0.62249400  1
  C  550  1  0.99688200  0.03914000  0.63797300  1
  C  553  1  0.02788800  0.06457800  0.60893600  1
  C  554  1  0.05396100  0.06548400  0.59399700  1
  C  555  1  0.07553800  0.04204000  0.59200600  1
  C  556  1  0.07094500  0.01760800  0.60485700  1
  C  561  1  0.05822700  0.96584400  0.63184100  1
  C  563  1  0.97317500  0.05979100  0.64316400  1
  C  565  1  0.98957000  0.99166600  0.13266800  1
  C  566  1  0.98423700  0.01674100  0.11979600  1
  C  567  1  0.00605500  0.04077000  0.12220500  1
  C  568  1  0.03251500  0.03920500  0.13772600  1
  C  571  1  0.00054600  0.06509600  0.10869400  1
  C  572  1  0.97424800  0.06626400  0.09368200  1
  C  573  1  0.95280300  0.04308100  0.09162700  1
  C  574  1  0.95775000  0.01864100  0.10449500  1
  C  579  1  0.97072000  0.96668400  0.13104200  1
  C  581  1  0.05610800  0.05990100  0.14334300  1
  C  583  1  0.98666900  0.03799300  0.35510800  1
  C  584  1  0.98146600  0.01310700  0.36806200  1
  C  585  1  0.00331500  0.98883700  0.36572600  1
  C  586  1  0.02940300  0.99016500  0.35020600  1
  C  589  1  0.99835600  0.96460500  0.37929600  1
  C  590  1  0.97227700  0.96372500  0.39423900  1
  C  591  1  0.95071100  0.98717700  0.39622500  1
  C  592  1  0.95531200  0.01159300  0.38336000  1
  C  597  1  0.96806700  0.06326300  0.35630800  1
  C  599  1  0.05312300  0.96939400  0.34507300  1
  C  601  1  0.54179700  0.53744600  0.85558600  1
  C  602  1  0.54713800  0.51236700  0.86846400  1
  C  603  1  0.52534700  0.48828100  0.86609000  1
  C  604  1  0.49879800  0.48970000  0.85062200  1
  C  607  1  0.53096400  0.46397100  0.87958800  1
  C  608  1  0.55727800  0.46287000  0.89459000  1
  C  609  1  0.57866300  0.48609700  0.89662900  1
  C  610  1  0.57366200  0.51050900  0.88374300  1
  C  615  1  0.56069100  0.56248500  0.85720800  1
  C  617  1  0.47524600  0.46884200  0.84494700  1
  C  619  1  0.54471700  0.49135600  0.63310700  1
  C  620  1  0.54992600  0.51625900  0.62015800  1
  C  621  1  0.52810500  0.54058500  0.62247200  1
  C  622  1  0.50194500  0.53939300  0.63795200  1
  C  625  1  0.53317400  0.56479200  0.60890200  1
  C  626  1  0.55926000  0.56559800  0.59396400  1
  C  627  1  0.58077400  0.54211200  0.59199900  1
  C  628  1  0.57611200  0.51772100  0.60487800  1
  C  633  1  0.56336000  0.46603300  0.63190100  1
  C  635  1  0.47819400  0.56026400  0.64315300  1
  C  637  1  0.49460200  0.49130500  0.13256900  1
  C  638  1  0.48939300  0.51649800  0.11977000  1
  C  639  1  0.51123700  0.54052800  0.12223200  1
  C  640  1  0.53767500  0.53892900  0.13776400  1
  C  643  1  0.50580600  0.56491500  0.10876400  1
  C  644  1  0.47954200  0.56616900  0.09373300  1
  C  645  1  0.45805600  0.54302100  0.09163100  1
  C  646  1  0.46293800  0.51853200  0.10445400  1
  C  651  1  0.47557500  0.46629800  0.13083200  1
  C  653  1  0.56129400  0.55963600  0.14343000  1
  C  655  1  0.49170400  0.53837100  0.35522200  1
  C  656  1  0.48661800  0.51335700  0.36809500  1
  C  657  1  0.50849200  0.48908500  0.36569900  1
  C  658  1  0.53455000  0.49045100  0.35016700  1
  C  661  1  0.50360400  0.46479000  0.37922400  1
  C  662  1  0.47756300  0.46382400  0.39418800  1
  C  663  1  0.45595800  0.48724000  0.39622300  1
  C  664  1  0.46049600  0.51171100  0.38340500  1
  C  669  1  0.47293700  0.56367700  0.35654100  1
  C  671  1  0.55830700  0.46967500  0.34498100  1
  C  673  1  0.79557300  0.78002000  0.87154500  1
  C  674  1  0.79256800  0.75519900  0.88488400  1
  C  675  1  0.76401300  0.73731800  0.88270000  1
  C  676  1  0.73843500  0.74547900  0.86769800  1
  C  679  1  0.76299800  0.71176100  0.89530000  1
  C  680  1  0.78807400  0.70467400  0.91030100  1
  C  681  1  0.81524300  0.72271800  0.91291500  1
  C  682  1  0.81755700  0.74764200  0.90028200  1
  C  687  1  0.82481600  0.79556100  0.87037300  1
  C  689  1  0.70871100  0.73109900  0.86339500  1
  C  691  1  0.23018100  0.24956300  0.87173800  1
  C  692  1  0.23353000  0.27450600  0.88500300  1
  C  693  1  0.26235100  0.29225800  0.88316500  1
  C  694  1  0.28811700  0.28428200  0.86849100  1
  C  697  1  0.26363700  0.31777300  0.89573900  1
  C  698  1  0.23833000  0.32517900  0.91028200  1
  C  699  1  0.21093300  0.30734800  0.91259900  1
  C  700  1  0.20851200  0.28232100  0.90007300  1
  C  705  1  0.20047600  0.23412000  0.87036400  1
  C  707  1  0.31804300  0.29888700  0.86423800  1
  C  709  1  0.79855800  0.24919900  0.61686000  1
  C  710  1  0.79506300  0.27401500  0.60350800  1
  C  711  1  0.76634800  0.29206300  0.60569100  1
  C  712  1  0.74124500  0.28397400  0.62071000  1
  C  715  1  0.76477700  0.31763300  0.59308500  1
  C  716  1  0.78948000  0.32456200  0.57810300  1
  C  717  1  0.81680700  0.30632200  0.57549100  1
  C  718  1  0.81967200  0.28138200  0.58813300  1
  C  723  1  0.82781400  0.23335900  0.61804400  1
  C  725  1  0.71144300  0.29836500  0.62501400  1
  C  727  1  0.23241000  0.77957600  0.61672000  1
  C  728  1  0.23566800  0.75469800  0.60338300  1
  C  729  1  0.26473800  0.73679300  0.60517700  1
  C  730  1  0.29072000  0.74470100  0.61981600  1
  C  733  1  0.26599600  0.71125300  0.59260800  1
  C  734  1  0.24043200  0.70402800  0.57809300  1
  C  735  1  0.21278500  0.72207000  0.57579400  1
  C  736  1  0.21037100  0.74710000  0.58833800  1
  C  741  1  0.20272700  0.79524100  0.61818400  1
  C  743  1  0.32088900  0.72999200  0.62396600  1
  C  745  1  0.23284500  0.24995900  0.11677400  1
  C  746  1  0.23603900  0.27473000  0.10336700  1
  C  747  1  0.26498200  0.29236700  0.10516500  1
  C  748  1  0.29102700  0.28432200  0.11985900  1
  C  751  1  0.26606100  0.31783200  0.09253900  1
  C  752  1  0.24044000  0.32526200  0.07799800  1
  C  753  1  0.21296400  0.30746100  0.07567800  1
  C  754  1  0.21074600  0.28248000  0.08824400  1
  C  759  1  0.20321200  0.23459200  0.11819000  1
  C  761  1  0.32107600  0.29882600  0.12417700  1
  C  763  1  0.79857500  0.77997300  0.11687000  1
  C  764  1  0.79505900  0.75523900  0.10345900  1
  C  765  1  0.76645600  0.73748800  0.10565500  1
  C  766  1  0.74127500  0.74581900  0.12066400  1
  C  769  1  0.76504000  0.71191000  0.09307500  1
  C  770  1  0.78970600  0.70473400  0.07803200  1
  C  771  1  0.81684600  0.72272700  0.07534200  1
  C  772  1  0.81958500  0.74763900  0.08798000  1
  C  777  1  0.82796200  0.79535700  0.11807000  1
  C  779  1  0.71155500  0.73164200  0.12492200  1
  C  781  1  0.22987800  0.77928000  0.37132600  1
  C  782  1  0.23356300  0.75450400  0.38473600  1
  C  783  1  0.26267200  0.73670300  0.38293800  1
  C  784  1  0.28823700  0.74466500  0.36821600  1
  C  787  1  0.26432300  0.71122200  0.39556700  1
  C  788  1  0.23906500  0.70394700  0.41008700  1
  C  789  1  0.21141800  0.72193800  0.41240400  1
  C  790  1  0.20864600  0.74693700  0.39983200  1
  C  795  1  0.20021400  0.79493100  0.36989000  1
  C  797  1  0.31837300  0.73015300  0.36391300  1
  C  799  1  0.79631500  0.24933000  0.37116600  1
  C  800  1  0.79289700  0.27400500  0.38464100  1
  C  801  1  0.76403700  0.29191600  0.38248900  1
  C  802  1  0.73860100  0.28364900  0.36753800  1
  C  805  1  0.76266800  0.31752800  0.39505600  1
  C  806  1  0.78761200  0.32452100  0.41006900  1
  C  807  1  0.81500300  0.30631000  0.41274500  1
  C  808  1  0.81772300  0.28139100  0.40008800  1
  C  813  1  0.82569300  0.23372900  0.36987300  1
  C  815  1  0.70861600  0.29792200  0.36339700  1
  C  817  1  0.00004600  0.87310600  0.76559900  1
  C  818  1  0.02275800  0.89420000  0.75796700  1
  C  819  1  0.03982500  0.89031100  0.73757300  1
  C  820  1  0.03340800  0.86533300  0.72467800  1
  C  823  1  0.06245000  0.91184300  0.73112100  1
  C  824  1  0.06867500  0.93603900  0.74405400  1
  C  825  1  0.05176500  0.93992700  0.76364900  1
  C  826  1  0.02874800  0.91952900  0.77027600  1
  C  831  1  0.98875700  0.87325500  0.78745700  1
  C  833  1  0.04198900  0.86043900  0.70255700  1
  C  835  1  0.02414200  0.15463400  0.76577000  1
  C  836  1  0.00131000  0.13380900  0.75771100  1
  C  837  1  0.98524600  0.13806500  0.73690100  1
  C  838  1  0.99371800  0.16249600  0.72416400  1
  C  841  1  0.96066000  0.11836800  0.73021700  1
  C  842  1  0.95277200  0.09450000  0.74317800  1
  C  843  1  0.96931100  0.08974200  0.76304600  1
  C  844  1  0.99332500  0.10914400  0.77016800  1
  C  849  1  0.03372800  0.15581800  0.78777700  1
  C  851  1  0.97699000  0.17480600  0.70625300  1
  C  853  1  0.02624600  0.15614200  0.22261800  1
  C  854  1  0.00350200  0.13505900  0.23025900  1
  C  855  1  0.98644500  0.13893000  0.25066800  1
  C  856  1  0.99296300  0.16386200  0.26359500  1
  C  859  1  0.96382000  0.11740300  0.25712500  1
  C  860  1  0.95755700  0.09322500  0.24417800  1
  C  861  1  0.97445200  0.08934300  0.22457700  1
  C  862  1  0.99748300  0.10973200  0.21795100  1
  C  867  1  0.03749300  0.15600700  0.20073200  1
  C  869  1  0.98428200  0.16876100  0.28570700  1
  C  871  1  0.00212800  0.87456900  0.22246900  1
  C  872  1  0.02493400  0.89540500  0.23054400  1
  C  873  1  0.04099900  0.89115400  0.25135900  1
  C  874  1  0.03256400  0.86668900  0.26407100  1
  C  877  1  0.06556800  0.91086100  0.25804700  1
  C  878  1  0.07345200  0.93472900  0.24508100  1
  C  879  1  0.05690400  0.93948800  0.22521400  1
  C  880  1  0.03290100  0.92007700  0.21809000  1
  C  885  1  0.99256300  0.87333600  0.20044400  1
  C  887  1  0.04921300  0.85439900  0.28205000  1
  C  889  1  0.50521300  0.37312800  0.76571200  1
  C  890  1  0.52796600  0.39419500  0.75807300  1
  C  891  1  0.54502900  0.39029900  0.73767200  1
  C  892  1  0.53856900  0.36532600  0.72478200  1
  C  895  1  0.56766800  0.41182400  0.73121400  1
  C  896  1  0.57389500  0.43602800  0.74412900  1
  C  897  1  0.55699500  0.43992300  0.76372400  1
  C  898  1  0.53397600  0.41953100  0.77036900  1
  C  903  1  0.49372500  0.37336100  0.78754400  1
  C  905  1  0.54713100  0.36039300  0.70266800  1
  C  907  1  0.52933600  0.65462000  0.76569800  1
  C  908  1  0.50652300  0.63378800  0.75764400  1
  C  909  1  0.49046400  0.63803700  0.73683400  1
  C  910  1  0.49892800  0.66246200  0.72408200  1
  C  913  1  0.46588700  0.61832700  0.73016600  1
  C  914  1  0.45800800  0.59447000  0.74314500  1
  C  915  1  0.47454900  0.58972400  0.76301400  1
  C  916  1  0.49856200  0.60913100  0.77011900  1
  C  921  1  0.53885800  0.65581100  0.78770300  1
  C  923  1  0.48223000  0.67477800  0.70615300  1
  C  925  1  0.53144900  0.65613800  0.22270200  1
  C  926  1  0.50872000  0.63504700  0.23032800  1
  C  927  1  0.49166300  0.63891300  0.25073500  1
  C  928  1  0.49815300  0.66383900  0.26367200  1
  C  931  1  0.46905800  0.61737500  0.25719200  1
  C  932  1  0.46279100  0.59321000  0.24422700  1
  C  933  1  0.47968100  0.58933900  0.22462100  1
  C  934  1  0.50271300  0.60972900  0.21800700  1
  C  939  1  0.54263200  0.65601100  0.20081400  1
  C  941  1  0.48935800  0.66872800  0.28577200  1
  C  943  1  0.50730500  0.37456700  0.22236800  1
  C  944  1  0.53015000  0.39538300  0.23044100  1
  C  945  1  0.54621000  0.39112800  0.25125700  1
  C  946  1  0.53776000  0.36665500  0.26395200  1
  C  949  1  0.57077400  0.41083100  0.25796700  1
  C  950  1  0.57866900  0.43470800  0.24501700  1
  C  951  1  0.56213300  0.43947100  0.22514500  1
  C  952  1  0.53813200  0.42006400  0.21800200  1
  C  957  1  0.49754500  0.37339500  0.20036700  1
  C  959  1  0.55434000  0.35441100  0.28195800  1
  C  961  1  0.60851500  0.86210800  0.87103600  1
  C  962  1  0.57852300  0.84807300  0.86531000  1
  C  963  1  0.55784300  0.83555400  0.88116000  1
  C  964  1  0.56698600  0.83751900  0.90330900  1
  C  965  1  0.59586300  0.85175800  0.91036400  1
  C  966  1  0.61651000  0.86373500  0.89394000  1
  C  969  1  0.62788100  0.87612700  0.85405100  1
  C  970  1  0.63573200  0.86379500  0.83308300  1
  C  971  1  0.65379500  0.87948400  0.81682200  1
  C  972  1  0.66341400  0.90771000  0.82242200  1
  C  973  1  0.65780400  0.91988800  0.84296300  1
  C  974  1  0.63953400  0.90429500  0.85828100  1
  C  985  1  0.82046900  0.16656400  0.87094900  1
  C  986  1  0.85014900  0.18108100  0.86521300  1
  C  987  1  0.87103200  0.19416800  0.88095700  1
  C  988  1  0.86228800  0.19192900  0.90310800  1
  C  989  1  0.83377100  0.17732300  0.91020000  1
  C  990  1  0.81295800  0.16497400  0.89382700  1
  C  993  1  0.80039400  0.15260000  0.85404100  1
  C  994  1  0.79193800  0.16553200  0.83334100  1
  C  995  1  0.77378500  0.15013800  0.81689400  1
  C  996  1  0.76481100  0.12168400  0.82175400  1
  C  997  1  0.76998700  0.10903200  0.84208700  1
  C  998  1  0.78888900  0.12416500  0.85774100  1
  C  1009  1  0.61041200  0.16506300  0.61668200  1
  C  1010  1  0.58071300  0.17974200  0.62247200  1
  C  1011  1  0.56012800  0.19305300  0.60667300  1
  C  1012  1  0.56907800  0.19133200  0.58457800  1
  C  1013  1  0.59778000  0.17654000  0.57754900  1
  C  1014  1  0.61845900  0.16370600  0.59391700  1
  C  1017  1  0.63020400  0.15141500  0.63375200  1
  C  1018  1  0.63860500  0.16550500  0.65379200  1
  C  1019  1  0.65765900  0.15114300  0.67031500  1
  C  1020  1  0.66940900  0.12318400  0.66646700  1
  C  1021  1  0.66250400  0.10921100  0.64668400  1
  C  1022  1  0.64259400  0.12305700  0.63077300  1
  C  1033  1  0.82234900  0.86268400  0.61784100  1
  C  1034  1  0.85246800  0.84819000  0.62341700  1
  C  1035  1  0.87321500  0.83544200  0.60752600  1
  C  1036  1  0.86398100  0.83786300  0.58540300  1
  C  1037  1  0.83513600  0.85268700  0.57838900  1
  C  1038  1  0.81442200  0.86479400  0.59492500  1
  C  1041  1  0.80222500  0.87603300  0.63499000  1
  C  1042  1  0.79474700  0.86299100  0.65570500  1
  C  1043  1  0.77521400  0.87769200  0.67178700  1
  C  1044  1  0.76323900  0.90535600  0.66676800  1
  C  1045  1  0.77015700  0.91896100  0.64700600  1
  C  1046  1  0.79020800  0.90450500  0.63161500  1
  C  1057  1  0.82363600  0.16694800  0.11701900  1
  C  1058  1  0.85276600  0.18233600  0.12290000  1
  C  1059  1  0.87402100  0.19461000  0.10717900  1
  C  1060  1  0.86664400  0.19041300  0.08489400  1
  C  1061  1  0.83868800  0.17513500  0.07774700  1
  C  1062  1  0.81732700  0.16347700  0.09395600  1
  C  1065  1  0.80385800  0.15307200  0.13406900  1
  C  1066  1  0.79558600  0.16550100  0.15497900  1
  C  1067  1  0.77738400  0.14991700  0.17127500  1
  C  1068  1  0.76777700  0.12167800  0.16574300  1
  C  1069  1  0.77353700  0.10939400  0.14527700  1
  C  1070  1  0.79216100  0.12482000  0.13004600  1
  C  1081  1  0.61076900  0.86336300  0.11691400  1
  C  1082  1  0.58185400  0.84796400  0.12285700  1
  C  1083  1  0.56038700  0.83564200  0.10715100  1
  C  1084  1  0.56725800  0.83950600  0.08485300  1
  C  1085  1  0.59493200  0.85491400  0.07768500  1
  C  1086  1  0.61651100  0.86686100  0.09386600  1
  C  1089  1  0.63100500  0.87692600  0.13400100  1
  C  1090  1  0.63951100  0.86380400  0.15466500  1
  C  1091  1  0.65752400  0.87909300  0.17125800  1
  C  1092  1  0.66645500  0.90759700  0.16655700  1
  C  1093  1  0.66124900  0.92041700  0.14630500  1
  C  1094  1  0.64227700  0.90548700  0.13061700  1
  C  1105  1  0.82169400  0.86425700  0.37170900  1
  C  1106  1  0.85050600  0.84820400  0.36579800  1
  C  1107  1  0.87165700  0.83519400  0.38151300  1
  C  1108  1  0.86448100  0.83920100  0.40377600  1
  C  1109  1  0.83672500  0.85507300  0.41085800  1
  C  1110  1  0.81538500  0.86758000  0.39465900  1
  C  1113  1  0.80152400  0.87781900  0.35458000  1
  C  1114  1  0.79270400  0.86366300  0.33460200  1
  C  1115  1  0.77357000  0.87794600  0.31804300  1
  C  1116  1  0.76182000  0.90590500  0.32183400  1
  C  1117  1  0.76885700  0.91996100  0.34154500  1
  C  1118  1  0.78910100  0.90625900  0.35735400  1
  C  1129  1  0.60890000  0.16582500  0.37079500  1
  C  1130  1  0.57952100  0.18122700  0.36504800  1
  C  1131  1  0.55826900  0.19326800  0.38090900  1
  C  1132  1  0.56576700  0.18930700  0.40316800  1
  C  1133  1  0.59380200  0.17367100  0.41021500  1
  C  1134  1  0.61516700  0.16186500  0.39385400  1
  C  1137  1  0.62913900  0.15288400  0.35345400  1
  C  1138  1  0.63667400  0.16613000  0.33277600  1
  C  1139  1  0.65606800  0.15152600  0.31654500  1
  C  1140  1  0.66805200  0.12382600  0.32142000  1
  C  1141  1  0.66108200  0.11005000  0.34108700  1
  C  1142  1  0.64092300  0.12429400  0.35648800  1
  C  1153  1  0.11225400  0.36040100  0.87080500  1
  C  1154  1  0.08351700  0.34404900  0.86536000  1
  C  1155  1  0.06373600  0.33036300  0.88134200  1
  C  1156  1  0.07233300  0.33437800  0.90346200  1
  C  1157  1  0.10018100  0.35027400  0.91027100  1
  C  1158  1  0.12017500  0.36266200  0.89369000  1
  C  1161  1  0.13141600  0.37522500  0.85386000  1
  C  1162  1  0.13997700  0.36323500  0.83289000  1
  C  1163  1  0.15843400  0.37910800  0.81690000  1
  C  1164  1  0.16801100  0.40725400  0.82277400  1
  C  1165  1  0.16197200  0.41928400  0.84332200  1
  C  1166  1  0.14314100  0.40344100  0.85827600  1
  C  1177  1  0.32410400  0.66717400  0.87112900  1
  C  1178  1  0.35202100  0.68404300  0.86545300  1
  C  1179  1  0.37125700  0.69846200  0.88131400  1
  C  1180  1  0.36420100  0.69415900  0.90350200  1
  C  1181  1  0.33743100  0.67731500  0.91050500  1
  C  1182  1  0.31710800  0.66453500  0.89404000  1
  C  1185  1  0.30493400  0.65273900  0.85401200  1
  C  1186  1  0.29655200  0.66558000  0.83326300  1
  C  1187  1  0.27888900  0.64997200  0.81674200  1
  C  1188  1  0.27007800  0.62148000  0.82157900  1
  C  1189  1  0.27529200  0.60883400  0.84191300  1
  C  1190  1  0.29404400  0.62408100  0.85757700  1
  C  1201  1  0.11415700  0.66693400  0.61690600  1
  C  1202  1  0.08571500  0.68387100  0.62243500  1
  C  1203  1  0.06609000  0.69834700  0.60651900  1
  C  1204  1  0.07448500  0.69456800  0.58442500  1
  C  1205  1  0.10213800  0.67812300  0.57763500  1
  C  1206  1  0.12213700  0.66488500  0.59415900  1
  C  1209  1  0.13367800  0.65240100  0.63393400  1
  C  1210  1  0.14277500  0.66609000  0.65401000  1
  C  1211  1  0.16210900  0.65143800  0.67027200  1
  C  1212  1  0.17374900  0.62352700  0.66610200  1
  C  1213  1  0.16651900  0.60980800  0.64625800  1
  C  1214  1  0.14615100  0.62399900  0.63070100  1
  C  1225  1  0.32597900  0.36208700  0.61765000  1
  C  1226  1  0.35436900  0.34519300  0.62312700  1
  C  1227  1  0.37337500  0.33098200  0.60711000  1
  C  1228  1  0.36579300  0.33551800  0.58496900  1
  C  1229  1  0.33873800  0.35266800  0.57807800  1
  C  1230  1  0.31854100  0.36524200  0.59471300  1
  C  1233  1  0.30677000  0.37591500  0.63502400  1
  C  1234  1  0.29932500  0.36294300  0.65578200  1
  C  1235  1  0.28023400  0.37788700  0.67193100  1
  C  1236  1  0.26847300  0.40561500  0.66693700  1
  C  1237  1  0.27545200  0.41918900  0.64717600  1
  C  1238  1  0.29537200  0.40460900  0.63178500  1
  C  1249  1  0.32729900  0.66751300  0.11686000  1
  C  1250  1  0.35448300  0.68535300  0.12257000  1
  C  1251  1  0.37393100  0.69916700  0.10668500  1
  C  1252  1  0.36832900  0.69301700  0.08449100  1
  C  1253  1  0.34236800  0.67525500  0.07752600  1
  C  1254  1  0.32158800  0.66303500  0.09382200  1
  C  1257  1  0.30850500  0.65315100  0.13414300  1
  C  1258  1  0.30024900  0.66552800  0.15507800  1
  C  1259  1  0.28249900  0.64974200  0.17143700  1
  C  1260  1  0.27302300  0.62146300  0.16593000  1
  C  1261  1  0.27890200  0.60914200  0.14549100  1
  C  1262  1  0.29748000  0.62464100  0.13029200  1
  C  1273  1  0.11447100  0.36163400  0.11715700  1
  C  1274  1  0.08683300  0.34407200  0.12277400  1
  C  1275  1  0.06618900  0.33064100  0.10693800  1
  C  1276  1  0.07252300  0.33625800  0.08475600  1
  C  1277  1  0.09902600  0.35335000  0.07781600  1
  C  1278  1  0.12000000  0.36572600  0.09413900  1
  C  1281  1  0.13454200  0.37600000  0.13420500  1
  C  1282  1  0.14374000  0.36318600  0.15487000  1
  C  1283  1  0.16217700  0.37862700  0.17120400  1
  C  1284  1  0.17113500  0.40704300  0.16623600  1
  C  1285  1  0.16551600  0.41973500  0.14598400  1
  C  1286  1  0.14589400  0.40463700  0.13066500  1
  C  1297  1  0.32537500  0.36362000  0.37185000  1
  C  1298  1  0.35223500  0.34516900  0.36610700  1
  C  1299  1  0.37145100  0.33054100  0.38195700  1
  C  1300  1  0.36606400  0.33649600  0.40415200  1
  C  1301  1  0.34040200  0.35489100  0.41107600  1
  C  1302  1  0.31968600  0.36796000  0.39478900  1
  C  1305  1  0.30617300  0.37770100  0.35450000  1
  C  1306  1  0.29731500  0.36365500  0.33447500  1
  C  1307  1  0.27859400  0.37814700  0.31786600  1
  C  1308  1  0.26705200  0.40616300  0.32166200  1
  C  1309  1  0.27423300  0.42021100  0.34135200  1
  C  1310  1  0.29440300  0.40638300  0.35712700  1
  C  1321  1  0.11257700  0.66756900  0.37056000  1
  C  1322  1  0.08448900  0.68521200  0.36516900  1
  C  1323  1  0.06414400  0.69846800  0.38117400  1
  C  1324  1  0.07112700  0.69269300  0.40330600  1
  C  1325  1  0.09793200  0.67528200  0.41009200  1
  C  1326  1  0.11864300  0.66300700  0.39358200  1
  C  1329  1  0.13264000  0.65378600  0.35324400  1
  C  1330  1  0.14082200  0.66672400  0.33255200  1
  C  1331  1  0.16059200  0.65196200  0.31657400  1
  C  1332  1  0.17262800  0.62437300  0.32172900  1
  C  1333  1  0.16530700  0.61072100  0.34138700  1
  C  1334  1  0.14453900  0.62511900  0.35643100  1
  C  1345  1  0.58802500  0.86036900  0.97054300  1
  C  1346  1  0.56683700  0.87605600  0.98491800  1
  C  1347  1  0.57072600  0.87323600  0.00823800  1
  C  1348  1  0.59638400  0.85523900  0.01691900  1
  C  1351  1  0.54810600  0.88808200  0.02188600  1
  C  1352  1  0.52300300  0.90570900  0.01320000  1
  C  1353  1  0.51972500  0.90895600  0.99059400  1
  C  1354  1  0.54143400  0.89441900  0.97665600  1
  C  1359  1  0.58235100  0.85837600  0.94785500  1
  C  1361  1  0.60171800  0.84685500  0.03891000  1
  C  1363  1  0.84265800  0.16887000  0.97047400  1
  C  1364  1  0.86413700  0.15320300  0.98488100  1
  C  1365  1  0.86075000  0.15604100  0.00821000  1
  C  1366  1  0.83532500  0.17408300  0.01690300  1
  C  1369  1  0.88363000  0.14116000  0.02185800  1
  C  1370  1  0.90853840  0.12352000  0.01317400  1
  C  1371  1  0.91134640  0.12027800  0.99056900  1
  C  1372  1  0.88935600  0.13482400  0.97662700  1
  C  1377  1  0.84795200  0.17087900  0.94777200  1
  C  1379  1  0.83048400  0.18259800  0.03889500  1
  C  1381  1  0.58858600  0.16862000  0.51746600  1
  C  1382  1  0.56718500  0.15312500  0.50313300  1
  C  1383  1  0.57053900  0.15588500  0.47981100  1
  C  1384  1  0.59580400  0.17366800  0.47108900  1
  C  1387  1  0.54775500  0.14123800  0.46618800  1
  C  1388  1  0.52302100  0.12382500  0.47490800  1
  C  1389  1  0.52026900  0.12062400  0.49751900  1
  C  1390  1  0.54213100  0.13500400  0.51143300  1
  C  1395  1  0.58347700  0.17054500  0.54014000  1
  C  1397  1  0.60060400  0.18185600  0.44904600  1
  C  1399  1  0.84307200  0.86068900  0.51798500  1
  C  1400  1  0.86416900  0.87607600  0.50355500  1
  C  1401  1  0.86033500  0.87323200  0.48022800  1
  C  1402  1  0.83491700  0.85536900  0.47158000  1
  C  1405  1  0.88277200  0.88788900  0.46655000  1
  C  1406  1  0.90766940  0.90535800  0.47519900  1
  C  1407  1  0.91095040  0.90858100  0.49780200  1
  C  1408  1  0.88943600  0.89420700  0.51177200  1
  C  1413  1  0.84866300  0.85878400  0.54073400  1
  C  1415  1  0.82967000  0.84703000  0.44958600  1
  C  1417  1  0.09294500  0.36024500  0.97045300  1
  C  1418  1  0.07189400  0.37602400  0.98486700  1
  C  1419  1  0.07577600  0.37322700  0.00820600  1
  C  1420  1  0.10132600  0.35514900  0.01692500  1
  C  1423  1  0.05322900  0.38816300  0.02184300  1
  C  1424  1  0.02815300  0.40580100  0.01314400  1
  C  1425  1  0.02489200  0.40903200  0.99053500  1
  C  1426  1  0.04657200  0.39445100  0.97659900  1
  C  1431  1  0.08701200  0.35797100  0.94775100  1
  C  1433  1  0.10660200  0.34658000  0.03892100  1
  C  1435  1  0.34779500  0.66856400  0.97048900  1
  C  1436  1  0.36941100  0.65302200  0.98486200  1
  C  1437  1  0.36604200  0.65586700  0.00818100  1
  C  1438  1  0.34054600  0.67384300  0.01683500  1
  C  1441  1  0.38897600  0.64110000  0.02184800  1
  C  1442  1  0.41391600  0.62349200  0.01315300  1
  C  1443  1  0.41672400  0.62025600  0.99053600  1
  C  1444  1  0.39471400  0.63477900  0.97658200  1
  C  1449  1  0.35287200  0.67064600  0.94780600  1
  C  1451  1  0.33572700  0.68240100  0.03876100  1
  C  1453  1  0.09350100  0.66874500  0.51756100  1
  C  1454  1  0.07223800  0.65315700  0.50319000  1
  C  1455  1  0.07558700  0.65589300  0.47985000  1
  C  1456  1  0.10074100  0.67375900  0.47108900  1
  C  1459  1  0.05287100  0.64116200  0.46623400  1
  C  1460  1  0.02816700  0.62373300  0.47496700  1
  C  1461  1  0.02543300  0.62054700  0.49758300  1
  C  1462  1  0.04726400  0.63497300  0.51149500  1
  C  1467  1  0.08813400  0.67096500  0.54024900  1
  C  1469  1  0.10548500  0.68214100  0.44904700  1
  C  1471  1  0.34820700  0.36101300  0.51797700  1
  C  1472  1  0.36945100  0.37626300  0.50357800  1
  C  1473  1  0.36563100  0.37340600  0.48026200  1
  C  1474  1  0.34014700  0.35561000  0.47165400  1
  C  1477  1  0.38812300  0.38795200  0.46655900  1
  C  1478  1  0.41305000  0.40539100  0.47522200  1
  C  1479  1  0.41633900  0.40860400  0.49783700  1
  C  1480  1  0.39480300  0.39425800  0.51182000  1
  C  1485  1  0.35357200  0.35903300  0.54070600  1
  C  1487  1  0.33490400  0.34723500  0.44972700  1
  C  1489  1  0.73915300  0.03765600  0.85562200  1
  C  1490  1  0.74447300  0.01254600  0.86846800  1
  C  1491  1  0.72265700  0.98851700  0.86604900  1
  C  1492  1  0.69619800  0.99009900  0.85053000  1
  C  1495  1  0.72815100  0.96417900  0.87955500  1
  C  1496  1  0.75444900  0.96298500  0.89456100  1
  C  1497  1  0.77589700  0.98616300  0.89662500  1
  C  1498  1  0.77096300  0.01061100  0.88376500  1
  C  1503  1  0.75803000  0.06265300  0.85728200  1
  C  1505  1  0.67262600  0.96938900  0.84490600  1
  C  1507  1  0.74204200  0.99113500  0.63307500  1
  C  1508  1  0.74725700  0.01605700  0.62015400  1
  C  1509  1  0.72541100  0.04033600  0.62249400  1
  C  1510  1  0.69934300  0.03914000  0.63797300  1
  C  1513  1  0.73034900  0.06457800  0.60893600  1
  C  1514  1  0.75642200  0.06548400  0.59399700  1
  C  1515  1  0.77799900  0.04204000  0.59200600  1
  C  1516  1  0.77340600  0.01760800  0.60485700  1
  C  1521  1  0.76068800  0.96584400  0.63184100  1
  C  1523  1  0.67563600  0.05979100  0.64316400  1
  C  1525  1  0.69203100  0.99166600  0.13266800  1
  C  1526  1  0.68669800  0.01674100  0.11979600  1
  C  1527  1  0.70851600  0.04077000  0.12220500  1
  C  1528  1  0.73497600  0.03920500  0.13772600  1
  C  1531  1  0.70300700  0.06509600  0.10869400  1
  C  1532  1  0.67670900  0.06626400  0.09368200  1
  C  1533  1  0.65526400  0.04308100  0.09162700  1
  C  1534  1  0.66021100  0.01864100  0.10449500  1
  C  1539  1  0.67318100  0.96668400  0.13104200  1
  C  1541  1  0.75856900  0.05990100  0.14334300  1
  C  1543  1  0.68913000  0.03799300  0.35510800  1
  C  1544  1  0.68392700  0.01310700  0.36806200  1
  C  1545  1  0.70577600  0.98883700  0.36572600  1
  C  1546  1  0.73186400  0.99016500  0.35020600  1
  C  1549  1  0.70081700  0.96460500  0.37929600  1
  C  1550  1  0.67473800  0.96372500  0.39423900  1
  C  1551  1  0.65317200  0.98717700  0.39622500  1
  C  1552  1  0.65777300  0.01159300  0.38336000  1
  C  1557  1  0.67052800  0.06326300  0.35630800  1
  C  1559  1  0.75558400  0.96939400  0.34507300  1
  C  1561  1  0.24425800  0.53744600  0.85558600  1
  C  1562  1  0.24959900  0.51236700  0.86846400  1
  C  1563  1  0.22780800  0.48828100  0.86609000  1
  C  1564  1  0.20125900  0.48970000  0.85062200  1
  C  1567  1  0.23342500  0.46397100  0.87958800  1
  C  1568  1  0.25973900  0.46287000  0.89459000  1
  C  1569  1  0.28112400  0.48609700  0.89662900  1
  C  1570  1  0.27612300  0.51050900  0.88374300  1
  C  1575  1  0.26315200  0.56248500  0.85720800  1
  C  1577  1  0.17770700  0.46884200  0.84494700  1
  C  1579  1  0.24717800  0.49135600  0.63310700  1
  C  1580  1  0.25238700  0.51625900  0.62015800  1
  C  1581  1  0.23056600  0.54058500  0.62247200  1
  C  1582  1  0.20440600  0.53939300  0.63795200  1
  C  1585  1  0.23563500  0.56479200  0.60890200  1
  C  1586  1  0.26172100  0.56559800  0.59396400  1
  C  1587  1  0.28323500  0.54211200  0.59199900  1
  C  1588  1  0.27857300  0.51772100  0.60487800  1
  C  1593  1  0.26582100  0.46603300  0.63190100  1
  C  1595  1  0.18065500  0.56026400  0.64315300  1
  C  1597  1  0.19706300  0.49130500  0.13256900  1
  C  1598  1  0.19185400  0.51649800  0.11977000  1
  C  1599  1  0.21369800  0.54052800  0.12223200  1
  C  1600  1  0.24013600  0.53892900  0.13776400  1
  C  1603  1  0.20826700  0.56491500  0.10876400  1
  C  1604  1  0.18200300  0.56616900  0.09373300  1
  C  1605  1  0.16051700  0.54302100  0.09163100  1
  C  1606  1  0.16539900  0.51853200  0.10445400  1
  C  1611  1  0.17803600  0.46629800  0.13083200  1
  C  1613  1  0.26375500  0.55963600  0.14343000  1
  C  1615  1  0.19416500  0.53837100  0.35522200  1
  C  1616  1  0.18907900  0.51335700  0.36809500  1
  C  1617  1  0.21095300  0.48908500  0.36569900  1
  C  1618  1  0.23701100  0.49045100  0.35016700  1
  C  1621  1  0.20606500  0.46479000  0.37922400  1
  C  1622  1  0.18002400  0.46382400  0.39418800  1
  C  1623  1  0.15841900  0.48724000  0.39622300  1
  C  1624  1  0.16295700  0.51171100  0.38340500  1
  C  1629  1  0.17539800  0.56367700  0.35654100  1
  C  1631  1  0.26076800  0.46967500  0.34498100  1
  C  1633  1  0.49803400  0.78002000  0.87154500  1
  C  1634  1  0.49502900  0.75519900  0.88488400  1
  C  1635  1  0.46647400  0.73731800  0.88270000  1
  C  1636  1  0.44089600  0.74547900  0.86769800  1
  C  1639  1  0.46545900  0.71176100  0.89530000  1
  C  1640  1  0.49053500  0.70467400  0.91030100  1
  C  1641  1  0.51770400  0.72271800  0.91291500  1
  C  1642  1  0.52001800  0.74764200  0.90028200  1
  C  1647  1  0.52727700  0.79556100  0.87037300  1
  C  1649  1  0.41117200  0.73109900  0.86339500  1
  C  1651  1  0.93264240  0.24956300  0.87173800  1
  C  1652  1  0.93599140  0.27450600  0.88500300  1
  C  1653  1  0.96481240  0.29225800  0.88316500  1
  C  1654  1  0.99057839  0.28428200  0.86849100  1
  C  1657  1  0.96609840  0.31777300  0.89573900  1
  C  1658  1  0.94079140  0.32517900  0.91028200  1
  C  1659  1  0.91339440  0.30734800  0.91259900  1
  C  1660  1  0.91097340  0.28232100  0.90007300  1
  C  1665  1  0.90293740  0.23412000  0.87036400  1
  C  1667  1  0.02050400  0.29888700  0.86423800  1
  C  1669  1  0.50101900  0.24919900  0.61686000  1
  C  1670  1  0.49752400  0.27401500  0.60350800  1
  C  1671  1  0.46880900  0.29206300  0.60569100  1
  C  1672  1  0.44370600  0.28397400  0.62071000  1
  C  1675  1  0.46723800  0.31763300  0.59308500  1
  C  1676  1  0.49194100  0.32456200  0.57810300  1
  C  1677  1  0.51926800  0.30632200  0.57549100  1
  C  1678  1  0.52213300  0.28138200  0.58813300  1
  C  1683  1  0.53027500  0.23335900  0.61804400  1
  C  1685  1  0.41390400  0.29836500  0.62501400  1
  C  1687  1  0.93487140  0.77957600  0.61672000  1
  C  1688  1  0.93812940  0.75469800  0.60338300  1
  C  1689  1  0.96719940  0.73679300  0.60517700  1
  C  1690  1  0.99318139  0.74470100  0.61981600  1
  C  1693  1  0.96845740  0.71125300  0.59260800  1
  C  1694  1  0.94289340  0.70402800  0.57809300  1
  C  1695  1  0.91524640  0.72207000  0.57579400  1
  C  1696  1  0.91283240  0.74710000  0.58833800  1
  C  1701  1  0.90518840  0.79524100  0.61818400  1
  C  1703  1  0.02335000  0.72999200  0.62396600  1
  C  1705  1  0.93530640  0.24995900  0.11677400  1
  C  1706  1  0.93850040  0.27473000  0.10336700  1
  C  1707  1  0.96744340  0.29236700  0.10516500  1
  C  1708  1  0.99348839  0.28432200  0.11985900  1
  C  1711  1  0.96852240  0.31783200  0.09253900  1
  C  1712  1  0.94290140  0.32526200  0.07799800  1
  C  1713  1  0.91542540  0.30746100  0.07567800  1
  C  1714  1  0.91320740  0.28248000  0.08824400  1
  C  1719  1  0.90567340  0.23459200  0.11819000  1
  C  1721  1  0.02353700  0.29882600  0.12417700  1
  C  1723  1  0.50103600  0.77997300  0.11687000  1
  C  1724  1  0.49752000  0.75523900  0.10345900  1
  C  1725  1  0.46891700  0.73748800  0.10565500  1
  C  1726  1  0.44373600  0.74581900  0.12066400  1
  C  1729  1  0.46750100  0.71191000  0.09307500  1
  C  1730  1  0.49216700  0.70473400  0.07803200  1
  C  1731  1  0.51930700  0.72272700  0.07534200  1
  C  1732  1  0.52204600  0.74763900  0.08798000  1
  C  1737  1  0.53042300  0.79535700  0.11807000  1
  C  1739  1  0.41401600  0.73164200  0.12492200  1
  C  1741  1  0.93233940  0.77928000  0.37132600  1
  C  1742  1  0.93602440  0.75450400  0.38473600  1
  C  1743  1  0.96513340  0.73670300  0.38293800  1
  C  1744  1  0.99069839  0.74466500  0.36821600  1
  C  1747  1  0.96678440  0.71122200  0.39556700  1
  C  1748  1  0.94152640  0.70394700  0.41008700  1
  C  1749  1  0.91387940  0.72193800  0.41240400  1
  C  1750  1  0.91110740  0.74693700  0.39983200  1
  C  1755  1  0.90267540  0.79493100  0.36989000  1
  C  1757  1  0.02083400  0.73015300  0.36391300  1
  C  1759  1  0.49877600  0.24933000  0.37116600  1
  C  1760  1  0.49535800  0.27400500  0.38464100  1
  C  1761  1  0.46649800  0.29191600  0.38248900  1
  C  1762  1  0.44106200  0.28364900  0.36753800  1
  C  1765  1  0.46512900  0.31752800  0.39505600  1
  C  1766  1  0.49007300  0.32452100  0.41006900  1
  C  1767  1  0.51746400  0.30631000  0.41274500  1
  C  1768  1  0.52018400  0.28139100  0.40008800  1
  C  1773  1  0.52815400  0.23372900  0.36987300  1
  C  1775  1  0.41107700  0.29792200  0.36339700  1
  C  1777  1  0.70250700  0.87310600  0.76559900  1
  C  1778  1  0.72521900  0.89420000  0.75796700  1
  C  1779  1  0.74228600  0.89031100  0.73757300  1
  C  1780  1  0.73586900  0.86533300  0.72467800  1
  C  1783  1  0.76491100  0.91184300  0.73112100  1
  C  1784  1  0.77113600  0.93603900  0.74405400  1
  C  1785  1  0.75422600  0.93992700  0.76364900  1
  C  1786  1  0.73120900  0.91952900  0.77027600  1
  C  1791  1  0.69121800  0.87325500  0.78745700  1
  C  1793  1  0.74445000  0.86043900  0.70255700  1
  C  1795  1  0.72660300  0.15463400  0.76577000  1
  C  1796  1  0.70377100  0.13380900  0.75771100  1
  C  1797  1  0.68770700  0.13806500  0.73690100  1
  C  1798  1  0.69617900  0.16249600  0.72416400  1
  C  1801  1  0.66312100  0.11836800  0.73021700  1
  C  1802  1  0.65523300  0.09450000  0.74317800  1
  C  1803  1  0.67177200  0.08974200  0.76304600  1
  C  1804  1  0.69578600  0.10914400  0.77016800  1
  C  1809  1  0.73618900  0.15581800  0.78777700  1
  C  1811  1  0.67945100  0.17480600  0.70625300  1
  C  1813  1  0.72870700  0.15614200  0.22261800  1
  C  1814  1  0.70596300  0.13505900  0.23025900  1
  C  1815  1  0.68890600  0.13893000  0.25066800  1
  C  1816  1  0.69542400  0.16386200  0.26359500  1
  C  1819  1  0.66628100  0.11740300  0.25712500  1
  C  1820  1  0.66001800  0.09322500  0.24417800  1
  C  1821  1  0.67691300  0.08934300  0.22457700  1
  C  1822  1  0.69994400  0.10973200  0.21795100  1
  C  1827  1  0.73995400  0.15600700  0.20073200  1
  C  1829  1  0.68674300  0.16876100  0.28570700  1
  C  1831  1  0.70458900  0.87456900  0.22246900  1
  C  1832  1  0.72739500  0.89540500  0.23054400  1
  C  1833  1  0.74346000  0.89115400  0.25135900  1
  C  1834  1  0.73502500  0.86668900  0.26407100  1
  C  1837  1  0.76802900  0.91086100  0.25804700  1
  C  1838  1  0.77591300  0.93472900  0.24508100  1
  C  1839  1  0.75936500  0.93948800  0.22521400  1
  C  1840  1  0.73536200  0.92007700  0.21809000  1
  C  1845  1  0.69502400  0.87333600  0.20044400  1
  C  1847  1  0.75167400  0.85439900  0.28205000  1
  C  1849  1  0.20767400  0.37312800  0.76571200  1
  C  1850  1  0.23042700  0.39419500  0.75807300  1
  C  1851  1  0.24749000  0.39029900  0.73767200  1
  C  1852  1  0.24103000  0.36532600  0.72478200  1
  C  1855  1  0.27012900  0.41182400  0.73121400  1
  C  1856  1  0.27635600  0.43602800  0.74412900  1
  C  1857  1  0.25945600  0.43992300  0.76372400  1
  C  1858  1  0.23643700  0.41953100  0.77036900  1
  C  1863  1  0.19618600  0.37336100  0.78754400  1
  C  1865  1  0.24959200  0.36039300  0.70266800  1
  C  1867  1  0.23179700  0.65462000  0.76569800  1
  C  1868  1  0.20898400  0.63378800  0.75764400  1
  C  1869  1  0.19292500  0.63803700  0.73683400  1
  C  1870  1  0.20138900  0.66246200  0.72408200  1
  C  1873  1  0.16834800  0.61832700  0.73016600  1
  C  1874  1  0.16046900  0.59447000  0.74314500  1
  C  1875  1  0.17701000  0.58972400  0.76301400  1
  C  1876  1  0.20102300  0.60913100  0.77011900  1
  C  1881  1  0.24131900  0.65581100  0.78770300  1
  C  1883  1  0.18469100  0.67477800  0.70615300  1
  C  1885  1  0.23391000  0.65613800  0.22270200  1
  C  1886  1  0.21118100  0.63504700  0.23032800  1
  C  1887  1  0.19412400  0.63891300  0.25073500  1
  C  1888  1  0.20061400  0.66383900  0.26367200  1
  C  1891  1  0.17151900  0.61737500  0.25719200  1
  C  1892  1  0.16525200  0.59321000  0.24422700  1
  C  1893  1  0.18214200  0.58933900  0.22462100  1
  C  1894  1  0.20517400  0.60972900  0.21800700  1
  C  1899  1  0.24509300  0.65601100  0.20081400  1
  C  1901  1  0.19181900  0.66872800  0.28577200  1
  C  1903  1  0.20976600  0.37456700  0.22236800  1
  C  1904  1  0.23261100  0.39538300  0.23044100  1
  C  1905  1  0.24867100  0.39112800  0.25125700  1
  C  1906  1  0.24022100  0.36665500  0.26395200  1
  C  1909  1  0.27323500  0.41083100  0.25796700  1
  C  1910  1  0.28113000  0.43470800  0.24501700  1
  C  1911  1  0.26459400  0.43947100  0.22514500  1
  C  1912  1  0.24059300  0.42006400  0.21800200  1
  C  1917  1  0.20000600  0.37339500  0.20036700  1
  C  1919  1  0.25680100  0.35441100  0.28195800  1
  C  1921  1  0.31097700  0.86210800  0.87103600  1
  C  1922  1  0.28098500  0.84807300  0.86531000  1
  C  1923  1  0.26030500  0.83555400  0.88116000  1
  C  1924  1  0.26944800  0.83751900  0.90330900  1
  C  1925  1  0.29832500  0.85175800  0.91036400  1
  C  1926  1  0.31897200  0.86373500  0.89394000  1
  C  1929  1  0.33034300  0.87612700  0.85405100  1
  C  1930  1  0.33819400  0.86379500  0.83308300  1
  C  1931  1  0.35625700  0.87948400  0.81682200  1
  C  1932  1  0.36587600  0.90771000  0.82242200  1
  C  1933  1  0.36026600  0.91988800  0.84296300  1
  C  1934  1  0.34199600  0.90429500  0.85828100  1
  C  1945  1  0.52293100  0.16656400  0.87094900  1
  C  1946  1  0.55261100  0.18108100  0.86521300  1
  C  1947  1  0.57349400  0.19416800  0.88095700  1
  C  1948  1  0.56475000  0.19192900  0.90310800  1
  C  1949  1  0.53623300  0.17732300  0.91020000  1
  C  1950  1  0.51542000  0.16497400  0.89382700  1
  C  1953  1  0.50285600  0.15260000  0.85404100  1
  C  1954  1  0.49440000  0.16553200  0.83334100  1
  C  1955  1  0.47624700  0.15013800  0.81689400  1
  C  1956  1  0.46727300  0.12168400  0.82175400  1
  C  1957  1  0.47244900  0.10903200  0.84208700  1
  C  1958  1  0.49135100  0.12416500  0.85774100  1
  C  1969  1  0.31287400  0.16506300  0.61668200  1
  C  1970  1  0.28317500  0.17974200  0.62247200  1
  C  1971  1  0.26259000  0.19305300  0.60667300  1
  C  1972  1  0.27154000  0.19133200  0.58457800  1
  C  1973  1  0.30024200  0.17654000  0.57754900  1
  C  1974  1  0.32092100  0.16370600  0.59391700  1
  C  1977  1  0.33266600  0.15141500  0.63375200  1
  C  1978  1  0.34106700  0.16550500  0.65379200  1
  C  1979  1  0.36012100  0.15114300  0.67031500  1
  C  1980  1  0.37187100  0.12318400  0.66646700  1
  C  1981  1  0.36496600  0.10921100  0.64668400  1
  C  1982  1  0.34505600  0.12305700  0.63077300  1
  C  1993  1  0.52481100  0.86268400  0.61784100  1
  C  1994  1  0.55493000  0.84819000  0.62341700  1
  C  1995  1  0.57567700  0.83544200  0.60752600  1
  C  1996  1  0.56644300  0.83786300  0.58540300  1
  C  1997  1  0.53759800  0.85268700  0.57838900  1
  C  1998  1  0.51688400  0.86479400  0.59492500  1
  C  2001  1  0.50468700  0.87603300  0.63499000  1
  C  2002  1  0.49720900  0.86299100  0.65570500  1
  C  2003  1  0.47767600  0.87769200  0.67178700  1
  C  2004  1  0.46570100  0.90535600  0.66676800  1
  C  2005  1  0.47261900  0.91896100  0.64700600  1
  C  2006  1  0.49267000  0.90450500  0.63161500  1
  C  2017  1  0.52609800  0.16694800  0.11701900  1
  C  2018  1  0.55522800  0.18233600  0.12290000  1
  C  2019  1  0.57648300  0.19461000  0.10717900  1
  C  2020  1  0.56910600  0.19041300  0.08489400  1
  C  2021  1  0.54115000  0.17513500  0.07774700  1
  C  2022  1  0.51978900  0.16347700  0.09395600  1
  C  2025  1  0.50632000  0.15307200  0.13406900  1
  C  2026  1  0.49804800  0.16550100  0.15497900  1
  C  2027  1  0.47984600  0.14991700  0.17127500  1
  C  2028  1  0.47023900  0.12167800  0.16574300  1
  C  2029  1  0.47599900  0.10939400  0.14527700  1
  C  2030  1  0.49462300  0.12482000  0.13004600  1
  C  2041  1  0.31323100  0.86336300  0.11691400  1
  C  2042  1  0.28431600  0.84796400  0.12285700  1
  C  2043  1  0.26284900  0.83564200  0.10715100  1
  C  2044  1  0.26972000  0.83950600  0.08485300  1
  C  2045  1  0.29739400  0.85491400  0.07768500  1
  C  2046  1  0.31897300  0.86686100  0.09386600  1
  C  2049  1  0.33346700  0.87692600  0.13400100  1
  C  2050  1  0.34197300  0.86380400  0.15466500  1
  C  2051  1  0.35998600  0.87909300  0.17125800  1
  C  2052  1  0.36891700  0.90759700  0.16655700  1
  C  2053  1  0.36371100  0.92041700  0.14630500  1
  C  2054  1  0.34473900  0.90548700  0.13061700  1
  C  2065  1  0.52415600  0.86425700  0.37170900  1
  C  2066  1  0.55296800  0.84820400  0.36579800  1
  C  2067  1  0.57411900  0.83519400  0.38151300  1
  C  2068  1  0.56694300  0.83920100  0.40377600  1
  C  2069  1  0.53918700  0.85507300  0.41085800  1
  C  2070  1  0.51784700  0.86758000  0.39465900  1
  C  2073  1  0.50398600  0.87781900  0.35458000  1
  C  2074  1  0.49516600  0.86366300  0.33460200  1
  C  2075  1  0.47603200  0.87794600  0.31804300  1
  C  2076  1  0.46428200  0.90590500  0.32183400  1
  C  2077  1  0.47131900  0.91996100  0.34154500  1
  C  2078  1  0.49156300  0.90625900  0.35735400  1
  C  2089  1  0.31136200  0.16582500  0.37079500  1
  C  2090  1  0.28198300  0.18122700  0.36504800  1
  C  2091  1  0.26073100  0.19326800  0.38090900  1
  C  2092  1  0.26822900  0.18930700  0.40316800  1
  C  2093  1  0.29626400  0.17367100  0.41021500  1
  C  2094  1  0.31762900  0.16186500  0.39385400  1
  C  2097  1  0.33160100  0.15288400  0.35345400  1
  C  2098  1  0.33913600  0.16613000  0.33277600  1
  C  2099  1  0.35853000  0.15152600  0.31654500  1
  C  2100  1  0.37051400  0.12382600  0.32142000  1
  C  2101  1  0.36354400  0.11005000  0.34108700  1
  C  2102  1  0.34338500  0.12429400  0.35648800  1
  C  2113  1  0.81471600  0.36040100  0.87080500  1
  C  2114  1  0.78597900  0.34404900  0.86536000  1
  C  2115  1  0.76619800  0.33036300  0.88134200  1
  C  2116  1  0.77479500  0.33437800  0.90346200  1
  C  2117  1  0.80264300  0.35027400  0.91027100  1
  C  2118  1  0.82263700  0.36266200  0.89369000  1
  C  2121  1  0.83387800  0.37522500  0.85386000  1
  C  2122  1  0.84243900  0.36323500  0.83289000  1
  C  2123  1  0.86089600  0.37910800  0.81690000  1
  C  2124  1  0.87047300  0.40725400  0.82277400  1
  C  2125  1  0.86443400  0.41928400  0.84332200  1
  C  2126  1  0.84560300  0.40344100  0.85827600  1
  C  2137  1  0.02656600  0.66717400  0.87112900  1
  C  2138  1  0.05448300  0.68404300  0.86545300  1
  C  2139  1  0.07371900  0.69846200  0.88131400  1
  C  2140  1  0.06666300  0.69415900  0.90350200  1
  C  2141  1  0.03989300  0.67731500  0.91050500  1
  C  2142  1  0.01957000  0.66453500  0.89404000  1
  C  2145  1  0.00739600  0.65273900  0.85401200  1
  C  2146  1  0.99901378  0.66558000  0.83326300  1
  C  2147  1  0.98135080  0.64997200  0.81674200  1
  C  2148  1  0.97253980  0.62148000  0.82157900  1
  C  2149  1  0.97775380  0.60883400  0.84191300  1
  C  2150  1  0.99650578  0.62408100  0.85757700  1
  C  2161  1  0.81661900  0.66693400  0.61690600  1
  C  2162  1  0.78817700  0.68387100  0.62243500  1
  C  2163  1  0.76855200  0.69834700  0.60651900  1
  C  2164  1  0.77694700  0.69456800  0.58442500  1
  C  2165  1  0.80460000  0.67812300  0.57763500  1
  C  2166  1  0.82459900  0.66488500  0.59415900  1
  C  2169  1  0.83614000  0.65240100  0.63393400  1
  C  2170  1  0.84523700  0.66609000  0.65401000  1
  C  2171  1  0.86457100  0.65143800  0.67027200  1
  C  2172  1  0.87621100  0.62352700  0.66610200  1
  C  2173  1  0.86898100  0.60980800  0.64625800  1
  C  2174  1  0.84861300  0.62399900  0.63070100  1
  C  2185  1  0.02844100  0.36208700  0.61765000  1
  C  2186  1  0.05683100  0.34519300  0.62312700  1
  C  2187  1  0.07583700  0.33098200  0.60711000  1
  C  2188  1  0.06825500  0.33551800  0.58496900  1
  C  2189  1  0.04120000  0.35266800  0.57807800  1
  C  2190  1  0.02100300  0.36524200  0.59471300  1
  C  2193  1  0.00923200  0.37591500  0.63502400  1
  C  2194  1  0.00178700  0.36294300  0.65578200  1
  C  2195  1  0.98269580  0.37788700  0.67193100  1
  C  2196  1  0.97093480  0.40561500  0.66693700  1
  C  2197  1  0.97791380  0.41918900  0.64717600  1
  C  2198  1  0.99783378  0.40460900  0.63178500  1
  C  2209  1  0.02976100  0.66751300  0.11686000  1
  C  2210  1  0.05694500  0.68535300  0.12257000  1
  C  2211  1  0.07639300  0.69916700  0.10668500  1
  C  2212  1  0.07079100  0.69301700  0.08449100  1
  C  2213  1  0.04483000  0.67525500  0.07752600  1
  C  2214  1  0.02405000  0.66303500  0.09382200  1
  C  2217  1  0.01096700  0.65315100  0.13414300  1
  C  2218  1  0.00271100  0.66552800  0.15507800  1
  C  2219  1  0.98496080  0.64974200  0.17143700  1
  C  2220  1  0.97548480  0.62146300  0.16593000  1
  C  2221  1  0.98136380  0.60914200  0.14549100  1
  C  2222  1  0.99994178  0.62464100  0.13029200  1
  C  2233  1  0.81693300  0.36163400  0.11715700  1
  C  2234  1  0.78929500  0.34407200  0.12277400  1
  C  2235  1  0.76865100  0.33064100  0.10693800  1
  C  2236  1  0.77498500  0.33625800  0.08475600  1
  C  2237  1  0.80148800  0.35335000  0.07781600  1
  C  2238  1  0.82246200  0.36572600  0.09413900  1
  C  2241  1  0.83700400  0.37600000  0.13420500  1
  C  2242  1  0.84620200  0.36318600  0.15487000  1
  C  2243  1  0.86463900  0.37862700  0.17120400  1
  C  2244  1  0.87359700  0.40704300  0.16623600  1
  C  2245  1  0.86797800  0.41973500  0.14598400  1
  C  2246  1  0.84835600  0.40463700  0.13066500  1
  C  2257  1  0.02783700  0.36362000  0.37185000  1
  C  2258  1  0.05469700  0.34516900  0.36610700  1
  C  2259  1  0.07391300  0.33054100  0.38195700  1
  C  2260  1  0.06852600  0.33649600  0.40415200  1
  C  2261  1  0.04286400  0.35489100  0.41107600  1
  C  2262  1  0.02214800  0.36796000  0.39478900  1
  C  2265  1  0.00863500  0.37770100  0.35450000  1
  C  2266  1  0.99977678  0.36365500  0.33447500  1
  C  2267  1  0.98105580  0.37814700  0.31786600  1
  C  2268  1  0.96951380  0.40616300  0.32166200  1
  C  2269  1  0.97669480  0.42021100  0.34135200  1
  C  2270  1  0.99686478  0.40638300  0.35712700  1
  C  2281  1  0.81503900  0.66756900  0.37056000  1
  C  2282  1  0.78695100  0.68521200  0.36516900  1
  C  2283  1  0.76660600  0.69846800  0.38117400  1
  C  2284  1  0.77358900  0.69269300  0.40330600  1
  C  2285  1  0.80039400  0.67528200  0.41009200  1
  C  2286  1  0.82110500  0.66300700  0.39358200  1
  C  2289  1  0.83510200  0.65378600  0.35324400  1
  C  2290  1  0.84328400  0.66672400  0.33255200  1
  C  2291  1  0.86305400  0.65196200  0.31657400  1
  C  2292  1  0.87509000  0.62437300  0.32172900  1
  C  2293  1  0.86776900  0.61072100  0.34138700  1
  C  2294  1  0.84700100  0.62511900  0.35643100  1
  C  2305  1  0.29048700  0.86036900  0.97054300  1
  C  2306  1  0.26929900  0.87605600  0.98491800  1
  C  2307  1  0.27318800  0.87323600  0.00823800  1
  C  2308  1  0.29884600  0.85523900  0.01691900  1
  C  2311  1  0.25056800  0.88808200  0.02188600  1
  C  2312  1  0.22546500  0.90570900  0.01320000  1
  C  2313  1  0.22218700  0.90895600  0.99059400  1
  C  2314  1  0.24389600  0.89441900  0.97665600  1
  C  2319  1  0.28481300  0.85837600  0.94785500  1
  C  2321  1  0.30418000  0.84685500  0.03891000  1
  C  2323  1  0.54512000  0.16887000  0.97047400  1
  C  2324  1  0.56659900  0.15320300  0.98488100  1
  C  2325  1  0.56321200  0.15604100  0.00821000  1
  C  2326  1  0.53778700  0.17408300  0.01690300  1
  C  2329  1  0.58609200  0.14116000  0.02185800  1
  C  2330  1  0.61100000  0.12352000  0.01317400  1
  C  2331  1  0.61380800  0.12027800  0.99056900  1
  C  2332  1  0.59181800  0.13482400  0.97662700  1
  C  2337  1  0.55041400  0.17087900  0.94777200  1
  C  2339  1  0.53294600  0.18259800  0.03889500  1
  C  2341  1  0.29104800  0.16862000  0.51746600  1
  C  2342  1  0.26964700  0.15312500  0.50313300  1
  C  2343  1  0.27300100  0.15588500  0.47981100  1
  C  2344  1  0.29826600  0.17366800  0.47108900  1
  C  2347  1  0.25021700  0.14123800  0.46618800  1
  C  2348  1  0.22548300  0.12382500  0.47490800  1
  C  2349  1  0.22273100  0.12062400  0.49751900  1
  C  2350  1  0.24459300  0.13500400  0.51143300  1
  C  2355  1  0.28593900  0.17054500  0.54014000  1
  C  2357  1  0.30306600  0.18185600  0.44904600  1
  C  2359  1  0.54553400  0.86068900  0.51798500  1
  C  2360  1  0.56663100  0.87607600  0.50355500  1
  C  2361  1  0.56279700  0.87323200  0.48022800  1
  C  2362  1  0.53737900  0.85536900  0.47158000  1
  C  2365  1  0.58523400  0.88788900  0.46655000  1
  C  2366  1  0.61013100  0.90535800  0.47519900  1
  C  2367  1  0.61341200  0.90858100  0.49780200  1
  C  2368  1  0.59189800  0.89420700  0.51177200  1
  C  2373  1  0.55112500  0.85878400  0.54073400  1
  C  2375  1  0.53213200  0.84703000  0.44958600  1
  C  2377  1  0.79540700  0.36024500  0.97045300  1
  C  2378  1  0.77435600  0.37602400  0.98486700  1
  C  2379  1  0.77823800  0.37322700  0.00820600  1
  C  2380  1  0.80378800  0.35514900  0.01692500  1
  C  2383  1  0.75569100  0.38816300  0.02184300  1
  C  2384  1  0.73061500  0.40580100  0.01314400  1
  C  2385  1  0.72735400  0.40903200  0.99053500  1
  C  2386  1  0.74903400  0.39445100  0.97659900  1
  C  2391  1  0.78947400  0.35797100  0.94775100  1
  C  2393  1  0.80906400  0.34658000  0.03892100  1
  C  2395  1  0.05025700  0.66856400  0.97048900  1
  C  2396  1  0.07187300  0.65302200  0.98486200  1
  C  2397  1  0.06850400  0.65586700  0.00818100  1
  C  2398  1  0.04300800  0.67384300  0.01683500  1
  C  2401  1  0.09143800  0.64110000  0.02184800  1
  C  2402  1  0.11637800  0.62349200  0.01315300  1
  C  2403  1  0.11918600  0.62025600  0.99053600  1
  C  2404  1  0.09717600  0.63477900  0.97658200  1
  C  2409  1  0.05533400  0.67064600  0.94780600  1
  C  2411  1  0.03818900  0.68240100  0.03876100  1
  C  2413  1  0.79596300  0.66874500  0.51756100  1
  C  2414  1  0.77470000  0.65315700  0.50319000  1
  C  2415  1  0.77804900  0.65589300  0.47985000  1
  C  2416  1  0.80320300  0.67375900  0.47108900  1
  C  2419  1  0.75533300  0.64116200  0.46623400  1
  C  2420  1  0.73062900  0.62373300  0.47496700  1
  C  2421  1  0.72789500  0.62054700  0.49758300  1
  C  2422  1  0.74972600  0.63497300  0.51149500  1
  C  2427  1  0.79059600  0.67096500  0.54024900  1
  C  2429  1  0.80794700  0.68214100  0.44904700  1
  C  2431  1  0.05066900  0.36101300  0.51797700  1
  C  2432  1  0.07191300  0.37626300  0.50357800  1
  C  2433  1  0.06809300  0.37340600  0.48026200  1
  C  2434  1  0.04260900  0.35561000  0.47165400  1
  C  2437  1  0.09058500  0.38795200  0.46655900  1
  C  2438  1  0.11551200  0.40539100  0.47522200  1
  C  2439  1  0.11880100  0.40860400  0.49783700  1
  C  2440  1  0.09726500  0.39425800  0.51182000  1
  C  2445  1  0.05603400  0.35903300  0.54070600  1
  C  2447  1  0.03736600  0.34723500  0.44972700  1
  C  2449  1  0.44161500  0.03765600  0.85562200  1
  C  2450  1  0.44693500  0.01254600  0.86846800  1
  C  2451  1  0.42511900  0.98851700  0.86604900  1
  C  2452  1  0.39866000  0.99009900  0.85053000  1
  C  2455  1  0.43061300  0.96417900  0.87955500  1
  C  2456  1  0.45691100  0.96298500  0.89456100  1
  C  2457  1  0.47835900  0.98616300  0.89662500  1
  C  2458  1  0.47342500  0.01061100  0.88376500  1
  C  2463  1  0.46049200  0.06265300  0.85728200  1
  C  2465  1  0.37508800  0.96938900  0.84490600  1
  C  2467  1  0.44450400  0.99113500  0.63307500  1
  C  2468  1  0.44971900  0.01605700  0.62015400  1
  C  2469  1  0.42787300  0.04033600  0.62249400  1
  C  2470  1  0.40180500  0.03914000  0.63797300  1
  C  2473  1  0.43281100  0.06457800  0.60893600  1
  C  2474  1  0.45888400  0.06548400  0.59399700  1
  C  2475  1  0.48046100  0.04204000  0.59200600  1
  C  2476  1  0.47586800  0.01760800  0.60485700  1
  C  2481  1  0.46315000  0.96584400  0.63184100  1
  C  2483  1  0.37809800  0.05979100  0.64316400  1
  C  2485  1  0.39449300  0.99166600  0.13266800  1
  C  2486  1  0.38916000  0.01674100  0.11979600  1
  C  2487  1  0.41097800  0.04077000  0.12220500  1
  C  2488  1  0.43743800  0.03920500  0.13772600  1
  C  2491  1  0.40546900  0.06509600  0.10869400  1
  C  2492  1  0.37917100  0.06626400  0.09368200  1
  C  2493  1  0.35772600  0.04308100  0.09162700  1
  C  2494  1  0.36267300  0.01864100  0.10449500  1
  C  2499  1  0.37564300  0.96668400  0.13104200  1
  C  2501  1  0.46103100  0.05990100  0.14334300  1
  C  2503  1  0.39159200  0.03799300  0.35510800  1
  C  2504  1  0.38638900  0.01310700  0.36806200  1
  C  2505  1  0.40823800  0.98883700  0.36572600  1
  C  2506  1  0.43432600  0.99016500  0.35020600  1
  C  2509  1  0.40327900  0.96460500  0.37929600  1
  C  2510  1  0.37720000  0.96372500  0.39423900  1
  C  2511  1  0.35563400  0.98717700  0.39622500  1
  C  2512  1  0.36023500  0.01159300  0.38336000  1
  C  2517  1  0.37299000  0.06326300  0.35630800  1
  C  2519  1  0.45804600  0.96939400  0.34507300  1
  C  2521  1  0.94671980  0.53744600  0.85558600  1
  C  2522  1  0.95206080  0.51236700  0.86846400  1
  C  2523  1  0.93026980  0.48828100  0.86609000  1
  C  2524  1  0.90372080  0.48970000  0.85062200  1
  C  2527  1  0.93588680  0.46397100  0.87958800  1
  C  2528  1  0.96220080  0.46287000  0.89459000  1
  C  2529  1  0.98358580  0.48609700  0.89662900  1
  C  2530  1  0.97858480  0.51050900  0.88374300  1
  C  2535  1  0.96561380  0.56248500  0.85720800  1
  C  2537  1  0.88016900  0.46884200  0.84494700  1
  C  2539  1  0.94963980  0.49135600  0.63310700  1
  C  2540  1  0.95484880  0.51625900  0.62015800  1
  C  2541  1  0.93302780  0.54058500  0.62247200  1
  C  2542  1  0.90686780  0.53939300  0.63795200  1
  C  2545  1  0.93809680  0.56479200  0.60890200  1
  C  2546  1  0.96418280  0.56559800  0.59396400  1
  C  2547  1  0.98569680  0.54211200  0.59199900  1
  C  2548  1  0.98103480  0.51772100  0.60487800  1
  C  2553  1  0.96828280  0.46603300  0.63190100  1
  C  2555  1  0.88311700  0.56026400  0.64315300  1
  C  2557  1  0.89952500  0.49130500  0.13256900  1
  C  2558  1  0.89431600  0.51649800  0.11977000  1
  C  2559  1  0.91615980  0.54052800  0.12223200  1
  C  2560  1  0.94259780  0.53892900  0.13776400  1
  C  2563  1  0.91072880  0.56491500  0.10876400  1
  C  2564  1  0.88446500  0.56616900  0.09373300  1
  C  2565  1  0.86297900  0.54302100  0.09163100  1
  C  2566  1  0.86786100  0.51853200  0.10445400  1
  C  2571  1  0.88049800  0.46629800  0.13083200  1
  C  2573  1  0.96621680  0.55963600  0.14343000  1
  C  2575  1  0.89662700  0.53837100  0.35522200  1
  C  2576  1  0.89154100  0.51335700  0.36809500  1
  C  2577  1  0.91341480  0.48908500  0.36569900  1
  C  2578  1  0.93947280  0.49045100  0.35016700  1
  C  2581  1  0.90852680  0.46479000  0.37922400  1
  C  2582  1  0.88248600  0.46382400  0.39418800  1
  C  2583  1  0.86088100  0.48724000  0.39622300  1
  C  2584  1  0.86541900  0.51171100  0.38340500  1
  C  2589  1  0.87786000  0.56367700  0.35654100  1
  C  2591  1  0.96322980  0.46967500  0.34498100  1
  C  2593  1  0.20049600  0.78002000  0.87154500  1
  C  2594  1  0.19749100  0.75519900  0.88488400  1
  C  2595  1  0.16893600  0.73731800  0.88270000  1
  C  2596  1  0.14335800  0.74547900  0.86769800  1
  C  2599  1  0.16792100  0.71176100  0.89530000  1
  C  2600  1  0.19299700  0.70467400  0.91030100  1
  C  2601  1  0.22016600  0.72271800  0.91291500  1
  C  2602  1  0.22248000  0.74764200  0.90028200  1
  C  2607  1  0.22973900  0.79556100  0.87037300  1
  C  2609  1  0.11363400  0.73109900  0.86339500  1
  C  2611  1  0.63510400  0.24956300  0.87173800  1
  C  2612  1  0.63845300  0.27450600  0.88500300  1
  C  2613  1  0.66727400  0.29225800  0.88316500  1
  C  2614  1  0.69304000  0.28428200  0.86849100  1
  C  2617  1  0.66856000  0.31777300  0.89573900  1
  C  2618  1  0.64325300  0.32517900  0.91028200  1
  C  2619  1  0.61585600  0.30734800  0.91259900  1
  C  2620  1  0.61343500  0.28232100  0.90007300  1
  C  2625  1  0.60539900  0.23412000  0.87036400  1
  C  2627  1  0.72296600  0.29888700  0.86423800  1
  C  2629  1  0.20348100  0.24919900  0.61686000  1
  C  2630  1  0.19998600  0.27401500  0.60350800  1
  C  2631  1  0.17127100  0.29206300  0.60569100  1
  C  2632  1  0.14616800  0.28397400  0.62071000  1
  C  2635  1  0.16970000  0.31763300  0.59308500  1
  C  2636  1  0.19440300  0.32456200  0.57810300  1
  C  2637  1  0.22173000  0.30632200  0.57549100  1
  C  2638  1  0.22459500  0.28138200  0.58813300  1
  C  2643  1  0.23273700  0.23335900  0.61804400  1
  C  2645  1  0.11636600  0.29836500  0.62501400  1
  C  2647  1  0.63733300  0.77957600  0.61672000  1
  C  2648  1  0.64059100  0.75469800  0.60338300  1
  C  2649  1  0.66966100  0.73679300  0.60517700  1
  C  2650  1  0.69564300  0.74470100  0.61981600  1
  C  2653  1  0.67091900  0.71125300  0.59260800  1
  C  2654  1  0.64535500  0.70402800  0.57809300  1
  C  2655  1  0.61770800  0.72207000  0.57579400  1
  C  2656  1  0.61529400  0.74710000  0.58833800  1
  C  2661  1  0.60765000  0.79524100  0.61818400  1
  C  2663  1  0.72581200  0.72999200  0.62396600  1
  C  2665  1  0.63776800  0.24995900  0.11677400  1
  C  2666  1  0.64096200  0.27473000  0.10336700  1
  C  2667  1  0.66990500  0.29236700  0.10516500  1
  C  2668  1  0.69595000  0.28432200  0.11985900  1
  C  2671  1  0.67098400  0.31783200  0.09253900  1
  C  2672  1  0.64536300  0.32526200  0.07799800  1
  C  2673  1  0.61788700  0.30746100  0.07567800  1
  C  2674  1  0.61566900  0.28248000  0.08824400  1
  C  2679  1  0.60813500  0.23459200  0.11819000  1
  C  2681  1  0.72599900  0.29882600  0.12417700  1
  C  2683  1  0.20349800  0.77997300  0.11687000  1
  C  2684  1  0.19998200  0.75523900  0.10345900  1
  C  2685  1  0.17137900  0.73748800  0.10565500  1
  C  2686  1  0.14619800  0.74581900  0.12066400  1
  C  2689  1  0.16996300  0.71191000  0.09307500  1
  C  2690  1  0.19462900  0.70473400  0.07803200  1
  C  2691  1  0.22176900  0.72272700  0.07534200  1
  C  2692  1  0.22450800  0.74763900  0.08798000  1
  C  2697  1  0.23288500  0.79535700  0.11807000  1
  C  2699  1  0.11647800  0.73164200  0.12492200  1
  C  2701  1  0.63480100  0.77928000  0.37132600  1
  C  2702  1  0.63848600  0.75450400  0.38473600  1
  C  2703  1  0.66759500  0.73670300  0.38293800  1
  C  2704  1  0.69316000  0.74466500  0.36821600  1
  C  2707  1  0.66924600  0.71122200  0.39556700  1
  C  2708  1  0.64398800  0.70394700  0.41008700  1
  C  2709  1  0.61634100  0.72193800  0.41240400  1
  C  2710  1  0.61356900  0.74693700  0.39983200  1
  C  2715  1  0.60513700  0.79493100  0.36989000  1
  C  2717  1  0.72329600  0.73015300  0.36391300  1
  C  2719  1  0.20123800  0.24933000  0.37116600  1
  C  2720  1  0.19782000  0.27400500  0.38464100  1
  C  2721  1  0.16896000  0.29191600  0.38248900  1
  C  2722  1  0.14352400  0.28364900  0.36753800  1
  C  2725  1  0.16759100  0.31752800  0.39505600  1
  C  2726  1  0.19253500  0.32452100  0.41006900  1
  C  2727  1  0.21992600  0.30631000  0.41274500  1
  C  2728  1  0.22264600  0.28139100  0.40008800  1
  C  2733  1  0.23061600  0.23372900  0.36987300  1
  C  2735  1  0.11353900  0.29792200  0.36339700  1
  C  2737  1  0.40496900  0.87310600  0.76559900  1
  C  2738  1  0.42768100  0.89420000  0.75796700  1
  C  2739  1  0.44474800  0.89031100  0.73757300  1
  C  2740  1  0.43833100  0.86533300  0.72467800  1
  C  2743  1  0.46737300  0.91184300  0.73112100  1
  C  2744  1  0.47359800  0.93603900  0.74405400  1
  C  2745  1  0.45668800  0.93992700  0.76364900  1
  C  2746  1  0.43367100  0.91952900  0.77027600  1
  C  2751  1  0.39368000  0.87325500  0.78745700  1
  C  2753  1  0.44691200  0.86043900  0.70255700  1
  C  2755  1  0.42906500  0.15463400  0.76577000  1
  C  2756  1  0.40623300  0.13380900  0.75771100  1
  C  2757  1  0.39016900  0.13806500  0.73690100  1
  C  2758  1  0.39864100  0.16249600  0.72416400  1
  C  2761  1  0.36558300  0.11836800  0.73021700  1
  C  2762  1  0.35769500  0.09450000  0.74317800  1
  C  2763  1  0.37423400  0.08974200  0.76304600  1
  C  2764  1  0.39824800  0.10914400  0.77016800  1
  C  2769  1  0.43865100  0.15581800  0.78777700  1
  C  2771  1  0.38191300  0.17480600  0.70625300  1
  C  2773  1  0.43116900  0.15614200  0.22261800  1
  C  2774  1  0.40842500  0.13505900  0.23025900  1
  C  2775  1  0.39136800  0.13893000  0.25066800  1
  C  2776  1  0.39788600  0.16386200  0.26359500  1
  C  2779  1  0.36874300  0.11740300  0.25712500  1
  C  2780  1  0.36248000  0.09322500  0.24417800  1
  C  2781  1  0.37937500  0.08934300  0.22457700  1
  C  2782  1  0.40240600  0.10973200  0.21795100  1
  C  2787  1  0.44241600  0.15600700  0.20073200  1
  C  2789  1  0.38920500  0.16876100  0.28570700  1
  C  2791  1  0.40705100  0.87456900  0.22246900  1
  C  2792  1  0.42985700  0.89540500  0.23054400  1
  C  2793  1  0.44592200  0.89115400  0.25135900  1
  C  2794  1  0.43748700  0.86668900  0.26407100  1
  C  2797  1  0.47049100  0.91086100  0.25804700  1
  C  2798  1  0.47837500  0.93472900  0.24508100  1
  C  2799  1  0.46182700  0.93948800  0.22521400  1
  C  2800  1  0.43782400  0.92007700  0.21809000  1
  C  2805  1  0.39748600  0.87333600  0.20044400  1
  C  2807  1  0.45413600  0.85439900  0.28205000  1
  C  2809  1  0.91013580  0.37312800  0.76571200  1
  C  2810  1  0.93288880  0.39419500  0.75807300  1
  C  2811  1  0.94995180  0.39029900  0.73767200  1
  C  2812  1  0.94349180  0.36532600  0.72478200  1
  C  2815  1  0.97259080  0.41182400  0.73121400  1
  C  2816  1  0.97881780  0.43602800  0.74412900  1
  C  2817  1  0.96191780  0.43992300  0.76372400  1
  C  2818  1  0.93889880  0.41953100  0.77036900  1
  C  2823  1  0.89864800  0.37336100  0.78754400  1
  C  2825  1  0.95205380  0.36039300  0.70266800  1
  C  2827  1  0.93425880  0.65462000  0.76569800  1
  C  2828  1  0.91144580  0.63378800  0.75764400  1
  C  2829  1  0.89538700  0.63803700  0.73683400  1
  C  2830  1  0.90385080  0.66246200  0.72408200  1
  C  2833  1  0.87081000  0.61832700  0.73016600  1
  C  2834  1  0.86293100  0.59447000  0.74314500  1
  C  2835  1  0.87947200  0.58972400  0.76301400  1
  C  2836  1  0.90348480  0.60913100  0.77011900  1
  C  2841  1  0.94378080  0.65581100  0.78770300  1
  C  2843  1  0.88715300  0.67477800  0.70615300  1
  C  2845  1  0.93637180  0.65613800  0.22270200  1
  C  2846  1  0.91364280  0.63504700  0.23032800  1
  C  2847  1  0.89658600  0.63891300  0.25073500  1
  C  2848  1  0.90307580  0.66383900  0.26367200  1
  C  2851  1  0.87398100  0.61737500  0.25719200  1
  C  2852  1  0.86771400  0.59321000  0.24422700  1
  C  2853  1  0.88460400  0.58933900  0.22462100  1
  C  2854  1  0.90763580  0.60972900  0.21800700  1
  C  2859  1  0.94755480  0.65601100  0.20081400  1
  C  2861  1  0.89428100  0.66872800  0.28577200  1
  C  2863  1  0.91222780  0.37456700  0.22236800  1
  C  2864  1  0.93507280  0.39538300  0.23044100  1
  C  2865  1  0.95113280  0.39112800  0.25125700  1
  C  2866  1  0.94268280  0.36665500  0.26395200  1
  C  2869  1  0.97569680  0.41083100  0.25796700  1
  C  2870  1  0.98359180  0.43470800  0.24501700  1
  C  2871  1  0.96705580  0.43947100  0.22514500  1
  C  2872  1  0.94305480  0.42006400  0.21800200  1
  C  2877  1  0.90246780  0.37339500  0.20036700  1
  C  2879  1  0.95926280  0.35441100  0.28195800  1
  N  21  1  0.97339600  0.94236800  0.84880500  1
  N  22  1  0.95925200  0.87139400  0.79585600  1
  N  23  1  0.90063100  0.85388600  0.93209300  1
  N  24  1  0.82715600  0.82172700  0.87698000  1
  N  45  1  0.05291100  0.08365400  0.84390600  1
  N  46  1  0.06337000  0.15805300  0.79603300  1
  N  47  1  0.12449000  0.17522100  0.93193900  1
  N  48  1  0.19708700  0.20796300  0.87694300  1
  N  69  1  0.97864700  0.08677800  0.64155500  1
  N  70  1  0.96619600  0.16332400  0.68852500  1
  N  71  1  0.90218400  0.17459300  0.55585500  1
  N  72  1  0.82972800  0.20738800  0.61096700  1
  N  93  1  0.05385200  0.94477300  0.64491500  1
  N  94  1  0.06745300  0.87130400  0.69297700  1
  N  95  1  0.12550900  0.85487900  0.55659500  1
  N  96  1  0.19934400  0.82138100  0.61150100  1
  N  117  1  0.05296000  0.08692900  0.13943600  1
  N  118  1  0.06694800  0.15801200  0.19225500  1
  N  119  1  0.13550000  0.16803000  0.05630700  1
  N  120  1  0.19990400  0.20855900  0.11135800  1
  N  141  1  0.97334700  0.94579500  0.14451500  1
  N  142  1  0.96295300  0.87109300  0.19212700  1
  N  143  1  0.89268900  0.86180900  0.05622200  1
  N  144  1  0.83004300  0.82155000  0.11153200  1
  N  165  1  0.04773200  0.94237900  0.34668600  1
  N  166  1  0.06007600  0.86577500  0.29981200  1
  N  167  1  0.13377100  0.86192800  0.43230400  1
  N  168  1  0.19727400  0.82075600  0.37723900  1
  N  189  1  0.97241700  0.08424400  0.34314500  1
  N  190  1  0.95881900  0.15796100  0.29533700  1
  N  191  1  0.89207800  0.16670800  0.43171700  1
  N  192  1  0.82781800  0.20760900  0.37658400  1
  N  213  1  0.47759200  0.44184000  0.84937100  1
  N  214  1  0.46423200  0.37118700  0.79592800  1
  N  215  1  0.40508800  0.35296900  0.93195900  1
  N  216  1  0.33395100  0.31444300  0.87820600  1
  N  237  1  0.55822100  0.58343200  0.84376200  1
  N  238  1  0.56851800  0.65792700  0.79591200  1
  N  239  1  0.62885000  0.67458100  0.93225200  1
  N  240  1  0.69477000  0.71500100  0.87760700  1
  N  261  1  0.48275700  0.58736400  0.64088500  1
  N  262  1  0.47108500  0.66338000  0.68848000  1
  N  263  1  0.40665600  0.67556500  0.55598000  1
  N  264  1  0.33637800  0.71448800  0.60978800  1
  N  285  1  0.55915500  0.44501200  0.64505400  1
  N  286  1  0.57244500  0.37147000  0.69308500  1
  N  287  1  0.62983500  0.35552700  0.55627400  1
  N  288  1  0.69720000  0.31445100  0.61070000  1
  N  309  1  0.55829200  0.58669800  0.13957000  1
  N  310  1  0.57210900  0.65788600  0.19238600  1
  N  311  1  0.63980800  0.66759000  0.05620900  1
  N  312  1  0.69734400  0.71574000  0.11059000  1
  N  333  1  0.47780800  0.44515000  0.14412600  1
  N  334  1  0.46794100  0.37082600  0.19208500  1
  N  335  1  0.39657200  0.36079700  0.05642500  1
  N  336  1  0.33671900  0.31449100  0.11030400  1
  N  357  1  0.55308900  0.44261900  0.34658300  1
  N  358  1  0.56509800  0.36601000  0.29964900  1
  N  359  1  0.63811100  0.36233600  0.43240000  1
  N  360  1  0.69478200  0.31373800  0.37792700  1
  N  381  1  0.47687100  0.58488500  0.34350600  1
  N  382  1  0.46368600  0.65818600  0.29534700  1
  N  383  1  0.39597700  0.66771300  0.43150900  1
  N  384  1  0.33433600  0.71456200  0.37792900  1
  N  389  1  0.91229800  0.84109700  0.00165200  1
  N  390  1  0.90862400  0.84327000  0.98036200  1
  N  407  1  0.11415700  0.18817500  0.00160800  1
  N  408  1  0.11735700  0.18596900  0.98031300  1
  N  425  1  0.91191700  0.18768200  0.48633100  1
  N  426  1  0.90875900  0.18554800  0.50762400  1
  N  443  1  0.11417900  0.84145700  0.48686200  1
  N  444  1  0.11777100  0.84372500  0.50815700  1
  N  461  1  0.41725000  0.34106300  0.00162300  1
  N  462  1  0.41356900  0.34320200  0.98032100  1
  N  479  1  0.61932400  0.68792000  0.00158000  1
  N  480  1  0.62249400  0.68566900  0.98030400  1
  N  497  1  0.41687000  0.68771400  0.48636700  1
  N  498  1  0.41370100  0.68561500  0.50767200  1
  N  515  1  0.61935400  0.34171600  0.48689600  1
  N  516  1  0.62291200  0.34403500  0.50817000  1
  N  533  1  0.99118800  0.01501400  0.83906800  1
  N  534  1  0.01077600  0.03698900  0.84138100  1
  N  551  1  0.99434600  0.01483000  0.64953600  1
  N  552  1  0.01381200  0.99223900  0.64723500  1
  N  569  1  0.03508600  0.01429100  0.14918900  1
  N  570  1  0.01549800  0.99232400  0.14689300  1
  N  587  1  0.03201900  0.01491700  0.33872700  1
  N  588  1  0.01239400  0.03703900  0.34098400  1
  N  605  1  0.49628100  0.51463000  0.83913600  1
  N  606  1  0.51584200  0.53666600  0.84137600  1
  N  623  1  0.49938600  0.51460500  0.64943300  1
  N  624  1  0.51897400  0.49241400  0.64721900  1
  N  641  1  0.54014400  0.51394700  0.14916800  1
  N  642  1  0.52052600  0.49196500  0.14681800  1
  N  659  1  0.53706000  0.51528100  0.33875200  1
  N  660  1  0.51741400  0.53742500  0.34106900  1
  N  677  1  0.74383500  0.76978200  0.85593200  1
  N  678  1  0.77032100  0.78573200  0.85746100  1
  N  695  1  0.28215400  0.26008400  0.85658100  1
  N  696  1  0.25551700  0.24414000  0.85782700  1
  N  713  1  0.74706700  0.25961500  0.63244200  1
  N  714  1  0.77369400  0.24352900  0.63090700  1
  N  731  1  0.28486800  0.76894200  0.63172800  1
  N  732  1  0.25799700  0.78499800  0.63054500  1
  N  749  1  0.28521500  0.26019600  0.13182100  1
  N  750  1  0.25845500  0.24438600  0.13064900  1
  N  767  1  0.74707400  0.77004800  0.13246500  1
  N  768  1  0.77366500  0.78581200  0.13095800  1
  N  785  1  0.28199100  0.76885100  0.35628500  1
  N  786  1  0.25509000  0.78479800  0.35747200  1
  N  803  1  0.74431000  0.25938600  0.35572500  1
  N  804  1  0.77114700  0.24351100  0.35715800  1
  N  821  1  0.01023700  0.84739100  0.73312800  1
  N  822  1  0.99537100  0.85036100  0.75208500  1
  N  839  1  0.01649200  0.18025500  0.73330300  1
  N  840  1  0.03059200  0.17700800  0.75245500  1
  N  857  1  0.01601900  0.18186700  0.25510400  1
  N  858  1  0.03084300  0.17890500  0.23613100  1
  N  875  1  0.00973900  0.84895800  0.25495200  1
  N  876  1  0.99563900  0.85220900  0.23579600  1
  N  893  1  0.51539500  0.34739900  0.73323500  1
  N  894  1  0.50052500  0.35039100  0.75218600  1
  N  911  1  0.52171100  0.68021500  0.73322500  1
  N  912  1  0.53580600  0.67698500  0.75237900  1
  N  929  1  0.52121700  0.68185000  0.25519200  1
  N  930  1  0.53604800  0.67889700  0.23622000  1
  N  947  1  0.51492100  0.34893700  0.25484900  1
  N  948  1  0.50080800  0.35221300  0.23570100  1
  N  981  1  0.67585700  0.94236800  0.84880500  1
  N  982  1  0.66171300  0.87139400  0.79585600  1
  N  983  1  0.60309200  0.85388600  0.93209300  1
  N  984  1  0.52961700  0.82172700  0.87698000  1
  N  1005  1  0.75537200  0.08365400  0.84390600  1
  N  1006  1  0.76583100  0.15805300  0.79603300  1
  N  1007  1  0.82695100  0.17522100  0.93193900  1
  N  1008  1  0.89954800  0.20796300  0.87694300  1
  N  1029  1  0.68110800  0.08677800  0.64155500  1
  N  1030  1  0.66865700  0.16332400  0.68852500  1
  N  1031  1  0.60464500  0.17459300  0.55585500  1
  N  1032  1  0.53218900  0.20738800  0.61096700  1
  N  1053  1  0.75631300  0.94477300  0.64491500  1
  N  1054  1  0.76991400  0.87130400  0.69297700  1
  N  1055  1  0.82797000  0.85487900  0.55659500  1
  N  1056  1  0.90180540  0.82138100  0.61150100  1
  N  1077  1  0.75542100  0.08692900  0.13943600  1
  N  1078  1  0.76940900  0.15801200  0.19225500  1
  N  1079  1  0.83796100  0.16803000  0.05630700  1
  N  1080  1  0.90236540  0.20855900  0.11135800  1
  N  1101  1  0.67580800  0.94579500  0.14451500  1
  N  1102  1  0.66541400  0.87109300  0.19212700  1
  N  1103  1  0.59515000  0.86180900  0.05622200  1
  N  1104  1  0.53250400  0.82155000  0.11153200  1
  N  1125  1  0.75019300  0.94237900  0.34668600  1
  N  1126  1  0.76253700  0.86577500  0.29981200  1
  N  1127  1  0.83623200  0.86192800  0.43230400  1
  N  1128  1  0.89973500  0.82075600  0.37723900  1
  N  1149  1  0.67487800  0.08424400  0.34314500  1
  N  1150  1  0.66128000  0.15796100  0.29533700  1
  N  1151  1  0.59453900  0.16670800  0.43171700  1
  N  1152  1  0.53027900  0.20760900  0.37658400  1
  N  1173  1  0.18005300  0.44184000  0.84937100  1
  N  1174  1  0.16669300  0.37118700  0.79592800  1
  N  1175  1  0.10754900  0.35296900  0.93195900  1
  N  1176  1  0.03641200  0.31444300  0.87820600  1
  N  1197  1  0.26068200  0.58343200  0.84376200  1
  N  1198  1  0.27097900  0.65792700  0.79591200  1
  N  1199  1  0.33131100  0.67458100  0.93225200  1
  N  1200  1  0.39723100  0.71500100  0.87760700  1
  N  1221  1  0.18521800  0.58736400  0.64088500  1
  N  1222  1  0.17354600  0.66338000  0.68848000  1
  N  1223  1  0.10911700  0.67556500  0.55598000  1
  N  1224  1  0.03883900  0.71448800  0.60978800  1
  N  1245  1  0.26161600  0.44501200  0.64505400  1
  N  1246  1  0.27490600  0.37147000  0.69308500  1
  N  1247  1  0.33229600  0.35552700  0.55627400  1
  N  1248  1  0.39966100  0.31445100  0.61070000  1
  N  1269  1  0.26075300  0.58669800  0.13957000  1
  N  1270  1  0.27457000  0.65788600  0.19238600  1
  N  1271  1  0.34226900  0.66759000  0.05620900  1
  N  1272  1  0.39980500  0.71574000  0.11059000  1
  N  1293  1  0.18026900  0.44515000  0.14412600  1
  N  1294  1  0.17040200  0.37082600  0.19208500  1
  N  1295  1  0.09903300  0.36079700  0.05642500  1
  N  1296  1  0.03918000  0.31449100  0.11030400  1
  N  1317  1  0.25555000  0.44261900  0.34658300  1
  N  1318  1  0.26755900  0.36601000  0.29964900  1
  N  1319  1  0.34057200  0.36233600  0.43240000  1
  N  1320  1  0.39724300  0.31373800  0.37792700  1
  N  1341  1  0.17933200  0.58488500  0.34350600  1
  N  1342  1  0.16614700  0.65818600  0.29534700  1
  N  1343  1  0.09843800  0.66771300  0.43150900  1
  N  1344  1  0.03679700  0.71456200  0.37792900  1
  N  1349  1  0.61475900  0.84109700  0.00165200  1
  N  1350  1  0.61108500  0.84327000  0.98036200  1
  N  1367  1  0.81661800  0.18817500  0.00160800  1
  N  1368  1  0.81981800  0.18596900  0.98031300  1
  N  1385  1  0.61437800  0.18768200  0.48633100  1
  N  1386  1  0.61122000  0.18554800  0.50762400  1
  N  1403  1  0.81664000  0.84145700  0.48686200  1
  N  1404  1  0.82023200  0.84372500  0.50815700  1
  N  1421  1  0.11971100  0.34106300  0.00162300  1
  N  1422  1  0.11603000  0.34320200  0.98032100  1
  N  1439  1  0.32178500  0.68792000  0.00158000  1
  N  1440  1  0.32495500  0.68566900  0.98030400  1
  N  1457  1  0.11933100  0.68771400  0.48636700  1
  N  1458  1  0.11616200  0.68561500  0.50767200  1
  N  1475  1  0.32181500  0.34171600  0.48689600  1
  N  1476  1  0.32537300  0.34403500  0.50817000  1
  N  1493  1  0.69364900  0.01501400  0.83906800  1
  N  1494  1  0.71323700  0.03698900  0.84138100  1
  N  1511  1  0.69680700  0.01483000  0.64953600  1
  N  1512  1  0.71627300  0.99223900  0.64723500  1
  N  1529  1  0.73754700  0.01429100  0.14918900  1
  N  1530  1  0.71795900  0.99232400  0.14689300  1
  N  1547  1  0.73448000  0.01491700  0.33872700  1
  N  1548  1  0.71485500  0.03703900  0.34098400  1
  N  1565  1  0.19874200  0.51463000  0.83913600  1
  N  1566  1  0.21830300  0.53666600  0.84137600  1
  N  1583  1  0.20184700  0.51460500  0.64943300  1
  N  1584  1  0.22143500  0.49241400  0.64721900  1
  N  1601  1  0.24260500  0.51394700  0.14916800  1
  N  1602  1  0.22298700  0.49196500  0.14681800  1
  N  1619  1  0.23952100  0.51528100  0.33875200  1
  N  1620  1  0.21987500  0.53742500  0.34106900  1
  N  1637  1  0.44629600  0.76978200  0.85593200  1
  N  1638  1  0.47278200  0.78573200  0.85746100  1
  N  1655  1  0.98461540  0.26008400  0.85658100  1
  N  1656  1  0.95797840  0.24414000  0.85782700  1
  N  1673  1  0.44952800  0.25961500  0.63244200  1
  N  1674  1  0.47615500  0.24352900  0.63090700  1
  N  1691  1  0.98732940  0.76894200  0.63172800  1
  N  1692  1  0.96045840  0.78499800  0.63054500  1
  N  1709  1  0.98767640  0.26019600  0.13182100  1
  N  1710  1  0.96091640  0.24438600  0.13064900  1
  N  1727  1  0.44953500  0.77004800  0.13246500  1
  N  1728  1  0.47612600  0.78581200  0.13095800  1
  N  1745  1  0.98445240  0.76885100  0.35628500  1
  N  1746  1  0.95755140  0.78479800  0.35747200  1
  N  1763  1  0.44677100  0.25938600  0.35572500  1
  N  1764  1  0.47360800  0.24351100  0.35715800  1
  N  1781  1  0.71269800  0.84739100  0.73312800  1
  N  1782  1  0.69783200  0.85036100  0.75208500  1
  N  1799  1  0.71895300  0.18025500  0.73330300  1
  N  1800  1  0.73305300  0.17700800  0.75245500  1
  N  1817  1  0.71848000  0.18186700  0.25510400  1
  N  1818  1  0.73330400  0.17890500  0.23613100  1
  N  1835  1  0.71220000  0.84895800  0.25495200  1
  N  1836  1  0.69810000  0.85220900  0.23579600  1
  N  1853  1  0.21785600  0.34739900  0.73323500  1
  N  1854  1  0.20298600  0.35039100  0.75218600  1
  N  1871  1  0.22417200  0.68021500  0.73322500  1
  N  1872  1  0.23826700  0.67698500  0.75237900  1
  N  1889  1  0.22367800  0.68185000  0.25519200  1
  N  1890  1  0.23850900  0.67889700  0.23622000  1
  N  1907  1  0.21738200  0.34893700  0.25484900  1
  N  1908  1  0.20326900  0.35221300  0.23570100  1
  N  1941  1  0.37831900  0.94236800  0.84880500  1
  N  1942  1  0.36417500  0.87139400  0.79585600  1
  N  1943  1  0.30555400  0.85388600  0.93209300  1
  N  1944  1  0.23207900  0.82172700  0.87698000  1
  N  1965  1  0.45783400  0.08365400  0.84390600  1
  N  1966  1  0.46829300  0.15805300  0.79603300  1
  N  1967  1  0.52941300  0.17522100  0.93193900  1
  N  1968  1  0.60201000  0.20796300  0.87694300  1
  N  1989  1  0.38357000  0.08677800  0.64155500  1
  N  1990  1  0.37111900  0.16332400  0.68852500  1
  N  1991  1  0.30710700  0.17459300  0.55585500  1
  N  1992  1  0.23465100  0.20738800  0.61096700  1
  N  2013  1  0.45877500  0.94477300  0.64491500  1
  N  2014  1  0.47237600  0.87130400  0.69297700  1
  N  2015  1  0.53043200  0.85487900  0.55659500  1
  N  2016  1  0.60426700  0.82138100  0.61150100  1
  N  2037  1  0.45788300  0.08692900  0.13943600  1
  N  2038  1  0.47187100  0.15801200  0.19225500  1
  N  2039  1  0.54042300  0.16803000  0.05630700  1
  N  2040  1  0.60482700  0.20855900  0.11135800  1
  N  2061  1  0.37827000  0.94579500  0.14451500  1
  N  2062  1  0.36787600  0.87109300  0.19212700  1
  N  2063  1  0.29761200  0.86180900  0.05622200  1
  N  2064  1  0.23496600  0.82155000  0.11153200  1
  N  2085  1  0.45265500  0.94237900  0.34668600  1
  N  2086  1  0.46499900  0.86577500  0.29981200  1
  N  2087  1  0.53869400  0.86192800  0.43230400  1
  N  2088  1  0.60219700  0.82075600  0.37723900  1
  N  2109  1  0.37734000  0.08424400  0.34314500  1
  N  2110  1  0.36374200  0.15796100  0.29533700  1
  N  2111  1  0.29700100  0.16670800  0.43171700  1
  N  2112  1  0.23274100  0.20760900  0.37658400  1
  N  2133  1  0.88251500  0.44184000  0.84937100  1
  N  2134  1  0.86915500  0.37118700  0.79592800  1
  N  2135  1  0.81001100  0.35296900  0.93195900  1
  N  2136  1  0.73887400  0.31444300  0.87820600  1
  N  2157  1  0.96314380  0.58343200  0.84376200  1
  N  2158  1  0.97344080  0.65792700  0.79591200  1
  N  2159  1  0.03377300  0.67458100  0.93225200  1
  N  2160  1  0.09969300  0.71500100  0.87760700  1
  N  2181  1  0.88768000  0.58736400  0.64088500  1
  N  2182  1  0.87600800  0.66338000  0.68848000  1
  N  2183  1  0.81157900  0.67556500  0.55598000  1
  N  2184  1  0.74130100  0.71448800  0.60978800  1
  N  2205  1  0.96407780  0.44501200  0.64505400  1
  N  2206  1  0.97736780  0.37147000  0.69308500  1
  N  2207  1  0.03475800  0.35552700  0.55627400  1
  N  2208  1  0.10212300  0.31445100  0.61070000  1
  N  2229  1  0.96321480  0.58669800  0.13957000  1
  N  2230  1  0.97703180  0.65788600  0.19238600  1
  N  2231  1  0.04473100  0.66759000  0.05620900  1
  N  2232  1  0.10226700  0.71574000  0.11059000  1
  N  2253  1  0.88273100  0.44515000  0.14412600  1
  N  2254  1  0.87286400  0.37082600  0.19208500  1
  N  2255  1  0.80149500  0.36079700  0.05642500  1
  N  2256  1  0.74164200  0.31449100  0.11030400  1
  N  2277  1  0.95801180  0.44261900  0.34658300  1
  N  2278  1  0.97002080  0.36601000  0.29964900  1
  N  2279  1  0.04303400  0.36233600  0.43240000  1
  N  2280  1  0.09970500  0.31373800  0.37792700  1
  N  2301  1  0.88179400  0.58488500  0.34350600  1
  N  2302  1  0.86860900  0.65818600  0.29534700  1
  N  2303  1  0.80090000  0.66771300  0.43150900  1
  N  2304  1  0.73925900  0.71456200  0.37792900  1
  N  2309  1  0.31722100  0.84109700  0.00165200  1
  N  2310  1  0.31354700  0.84327000  0.98036200  1
  N  2327  1  0.51908000  0.18817500  0.00160800  1
  N  2328  1  0.52228000  0.18596900  0.98031300  1
  N  2345  1  0.31684000  0.18768200  0.48633100  1
  N  2346  1  0.31368200  0.18554800  0.50762400  1
  N  2363  1  0.51910200  0.84145700  0.48686200  1
  N  2364  1  0.52269400  0.84372500  0.50815700  1
  N  2381  1  0.82217300  0.34106300  0.00162300  1
  N  2382  1  0.81849200  0.34320200  0.98032100  1
  N  2399  1  0.02424700  0.68792000  0.00158000  1
  N  2400  1  0.02741700  0.68566900  0.98030400  1
  N  2417  1  0.82179300  0.68771400  0.48636700  1
  N  2418  1  0.81862400  0.68561500  0.50767200  1
  N  2435  1  0.02427700  0.34171600  0.48689600  1
  N  2436  1  0.02783500  0.34403500  0.50817000  1
  N  2453  1  0.39611100  0.01501400  0.83906800  1
  N  2454  1  0.41569900  0.03698900  0.84138100  1
  N  2471  1  0.39926900  0.01483000  0.64953600  1
  N  2472  1  0.41873500  0.99223900  0.64723500  1
  N  2489  1  0.44000900  0.01429100  0.14918900  1
  N  2490  1  0.42042100  0.99232400  0.14689300  1
  N  2507  1  0.43694200  0.01491700  0.33872700  1
  N  2508  1  0.41731700  0.03703900  0.34098400  1
  N  2525  1  0.90120380  0.51463000  0.83913600  1
  N  2526  1  0.92076480  0.53666600  0.84137600  1
  N  2543  1  0.90430880  0.51460500  0.64943300  1
  N  2544  1  0.92389680  0.49241400  0.64721900  1
  N  2561  1  0.94506680  0.51394700  0.14916800  1
  N  2562  1  0.92544880  0.49196500  0.14681800  1
  N  2579  1  0.94198280  0.51528100  0.33875200  1
  N  2580  1  0.92233680  0.53742500  0.34106900  1
  N  2597  1  0.14875800  0.76978200  0.85593200  1
  N  2598  1  0.17524400  0.78573200  0.85746100  1
  N  2615  1  0.68707700  0.26008400  0.85658100  1
  N  2616  1  0.66044000  0.24414000  0.85782700  1
  N  2633  1  0.15199000  0.25961500  0.63244200  1
  N  2634  1  0.17861700  0.24352900  0.63090700  1
  N  2651  1  0.68979100  0.76894200  0.63172800  1
  N  2652  1  0.66292000  0.78499800  0.63054500  1
  N  2669  1  0.69013800  0.26019600  0.13182100  1
  N  2670  1  0.66337800  0.24438600  0.13064900  1
  N  2687  1  0.15199700  0.77004800  0.13246500  1
  N  2688  1  0.17858800  0.78581200  0.13095800  1
  N  2705  1  0.68691400  0.76885100  0.35628500  1
  N  2706  1  0.66001300  0.78479800  0.35747200  1
  N  2723  1  0.14923300  0.25938600  0.35572500  1
  N  2724  1  0.17607000  0.24351100  0.35715800  1
  N  2741  1  0.41516000  0.84739100  0.73312800  1
  N  2742  1  0.40029400  0.85036100  0.75208500  1
  N  2759  1  0.42141500  0.18025500  0.73330300  1
  N  2760  1  0.43551500  0.17700800  0.75245500  1
  N  2777  1  0.42094200  0.18186700  0.25510400  1
  N  2778  1  0.43576600  0.17890500  0.23613100  1
  N  2795  1  0.41466200  0.84895800  0.25495200  1
  N  2796  1  0.40056200  0.85220900  0.23579600  1
  N  2813  1  0.92031780  0.34739900  0.73323500  1
  N  2814  1  0.90544780  0.35039100  0.75218600  1
  N  2831  1  0.92663380  0.68021500  0.73322500  1
  N  2832  1  0.94072880  0.67698500  0.75237900  1
  N  2849  1  0.92613980  0.68185000  0.25519200  1
  N  2850  1  0.94097080  0.67889700  0.23622000  1
  N  2867  1  0.91984380  0.34893700  0.25484900  1
  N  2868  1  0.90573080  0.35221300  0.23570100  1
  O  17  1  0.94365600  0.87516400  0.90013700  1
  O  18  1  0.92513200  0.83557400  0.83029700  1
  O  41  1  0.08110100  0.15325600  0.89992700  1
  O  42  1  0.09739800  0.19382200  0.83081300  1
  O  65  1  0.94569400  0.15189200  0.58810800  1
  O  66  1  0.92918600  0.19424100  0.65516400  1
  O  89  1  0.08230700  0.87687100  0.58895000  1
  O  90  1  0.10329300  0.83548200  0.65898600  1
  O  113  1  0.08577300  0.15097200  0.08765100  1
  O  114  1  0.10086600  0.19380900  0.15771700  1
  O  137  1  0.94268600  0.87999100  0.08770700  1
  O  138  1  0.92945100  0.83542600  0.15709000  1
  O  161  1  0.08410400  0.88110800  0.40054600  1
  O  162  1  0.09678500  0.83487000  0.33325600  1
  O  185  1  0.94143100  0.14807300  0.39984600  1
  O  186  1  0.92356300  0.19377900  0.32963600  1
  O  209  1  0.44706500  0.37474700  0.89977100  1
  O  210  1  0.42981200  0.33497700  0.82986300  1
  O  233  1  0.58588000  0.65165500  0.90004300  1
  O  234  1  0.60098500  0.69408800  0.83073400  1
  O  257  1  0.44905100  0.65227500  0.58848000  1
  O  258  1  0.43408200  0.69491100  0.65559200  1
  O  281  1  0.58710600  0.37858700  0.58886000  1
  O  282  1  0.60695600  0.33515500  0.65902400  1
  O  305  1  0.59095300  0.64896400  0.08764300  1
  O  306  1  0.60448700  0.69404600  0.15780600  1
  O  329  1  0.44568300  0.37978400  0.08808700  1
  O  330  1  0.43410300  0.33477400  0.15753400  1
  O  353  1  0.58962200  0.38333400  0.40060500  1
  O  354  1  0.60025900  0.33470700  0.33302200  1
  O  377  1  0.44429100  0.64813800  0.39946600  1
  O  378  1  0.42804900  0.69438700  0.32911200  1
  O  977  1  0.64611700  0.87516400  0.90013700  1
  O  978  1  0.62759300  0.83557400  0.83029700  1
  O  1001  1  0.78356200  0.15325600  0.89992700  1
  O  1002  1  0.79985900  0.19382200  0.83081300  1
  O  1025  1  0.64815500  0.15189200  0.58810800  1
  O  1026  1  0.63164700  0.19424100  0.65516400  1
  O  1049  1  0.78476800  0.87687100  0.58895000  1
  O  1050  1  0.80575400  0.83548200  0.65898600  1
  O  1073  1  0.78823400  0.15097200  0.08765100  1
  O  1074  1  0.80332700  0.19380900  0.15771700  1
  O  1097  1  0.64514700  0.87999100  0.08770700  1
  O  1098  1  0.63191200  0.83542600  0.15709000  1
  O  1121  1  0.78656500  0.88110800  0.40054600  1
  O  1122  1  0.79924600  0.83487000  0.33325600  1
  O  1145  1  0.64389200  0.14807300  0.39984600  1
  O  1146  1  0.62602400  0.19377900  0.32963600  1
  O  1169  1  0.14952600  0.37474700  0.89977100  1
  O  1170  1  0.13227300  0.33497700  0.82986300  1
  O  1193  1  0.28834100  0.65165500  0.90004300  1
  O  1194  1  0.30344600  0.69408800  0.83073400  1
  O  1217  1  0.15151200  0.65227500  0.58848000  1
  O  1218  1  0.13654300  0.69491100  0.65559200  1
  O  1241  1  0.28956700  0.37858700  0.58886000  1
  O  1242  1  0.30941700  0.33515500  0.65902400  1
  O  1265  1  0.29341400  0.64896400  0.08764300  1
  O  1266  1  0.30694800  0.69404600  0.15780600  1
  O  1289  1  0.14814400  0.37978400  0.08808700  1
  O  1290  1  0.13656400  0.33477400  0.15753400  1
  O  1313  1  0.29208300  0.38333400  0.40060500  1
  O  1314  1  0.30272000  0.33470700  0.33302200  1
  O  1337  1  0.14675200  0.64813800  0.39946600  1
  O  1338  1  0.13051000  0.69438700  0.32911200  1
  O  1937  1  0.34857900  0.87516400  0.90013700  1
  O  1938  1  0.33005500  0.83557400  0.83029700  1
  O  1961  1  0.48602400  0.15325600  0.89992700  1
  O  1962  1  0.50232100  0.19382200  0.83081300  1
  O  1985  1  0.35061700  0.15189200  0.58810800  1
  O  1986  1  0.33410900  0.19424100  0.65516400  1
  O  2009  1  0.48723000  0.87687100  0.58895000  1
  O  2010  1  0.50821600  0.83548200  0.65898600  1
  O  2033  1  0.49069600  0.15097200  0.08765100  1
  O  2034  1  0.50578900  0.19380900  0.15771700  1
  O  2057  1  0.34760900  0.87999100  0.08770700  1
  O  2058  1  0.33437400  0.83542600  0.15709000  1
  O  2081  1  0.48902700  0.88110800  0.40054600  1
  O  2082  1  0.50170800  0.83487000  0.33325600  1
  O  2105  1  0.34635400  0.14807300  0.39984600  1
  O  2106  1  0.32848600  0.19377900  0.32963600  1
  O  2129  1  0.85198800  0.37474700  0.89977100  1
  O  2130  1  0.83473500  0.33497700  0.82986300  1
  O  2153  1  0.99080278  0.65165500  0.90004300  1
  O  2154  1  0.00590800  0.69408800  0.83073400  1
  O  2177  1  0.85397400  0.65227500  0.58848000  1
  O  2178  1  0.83900500  0.69491100  0.65559200  1
  O  2201  1  0.99202878  0.37858700  0.58886000  1
  O  2202  1  0.01187900  0.33515500  0.65902400  1
  O  2225  1  0.99587578  0.64896400  0.08764300  1
  O  2226  1  0.00941000  0.69404600  0.15780600  1
  O  2249  1  0.85060600  0.37978400  0.08808700  1
  O  2250  1  0.83902600  0.33477400  0.15753400  1
  O  2273  1  0.99454478  0.38333400  0.40060500  1
  O  2274  1  0.00518200  0.33470700  0.33302200  1
  O  2297  1  0.84921400  0.64813800  0.39946600  1
  O  2298  1  0.83297200  0.69438700  0.32911200  1
