# generated using pymatgen
data_H13C16N2O
_symmetry_space_group_name_H-M   'P 1'
_cell_length_a   18.97955000
_cell_length_b   89.20150000
_cell_length_c   89.20150000
_cell_angle_alpha   90.00000000
_cell_angle_beta   90.18390000
_cell_angle_gamma   89.81610000
_symmetry_Int_Tables_number   1
_chemical_formula_structural   H13C16N2O
_chemical_formula_sum   'H832 C1024 N128 O64'
_cell_volume   151016.96989877
_cell_formula_units_Z   64
loop_
 _symmetry_equiv_pos_site_id
 _symmetry_equiv_pos_as_xyz
  1  'x, y, z'
loop_
 _atom_site_type_symbol
 _atom_site_label
 _atom_site_symmetry_multiplicity
 _atom_site_fract_x
 _atom_site_fract_y
 _atom_site_fract_z
 _atom_site_occupancy
  C  1  1  0.08918200  0.91671650  0.06023400  1
  C  2  1  0.11047400  0.91494750  0.04508000  1
  C  3  1  0.08800800  0.92499500  0.03373100  1
  C  4  1  0.04332900  0.93707600  0.03755200  1
  C  5  1  0.02129900  0.93922500  0.05249000  1
  C  6  1  0.04517800  0.92919000  0.06367100  1
  C  9  1  0.10804000  0.90587200  0.07157600  1
  C  10  1  0.17522900  0.89876000  0.07216700  1
  C  11  1  0.19070900  0.88735800  0.08271600  1
  C  12  1  0.14073800  0.88442600  0.09412650  1
  C  13  1  0.07305500  0.89109700  0.09387200  1
  C  14  1  0.05743900  0.90142100  0.08236800  1
  C  25  1  0.08334600  0.05145850  0.41262000  1
  C  26  1  0.10499100  0.05333500  0.42776750  1
  C  27  1  0.08248100  0.04346050  0.43920700  1
  C  28  1  0.03739600  0.03146000  0.43549400  1
  C  29  1  0.01508200  0.02920600  0.42056850  1
  C  30  1  0.03905500  0.03904200  0.40928700  1
  C  33  1  0.10173900  0.06219950  0.40119100  1
  C  34  1  0.16883900  0.06924600  0.40050350  1
  C  35  1  0.18369600  0.08057700  0.38987300  1
  C  36  1  0.13313000  0.08349250  0.37849050  1
  C  37  1  0.06557300  0.07686950  0.37883200  1
  C  38  1  0.05059900  0.06663450  0.39041200  1
  C  49  1  0.08584300  0.16047200  0.16957800  1
  C  50  1  0.10649000  0.17564400  0.16765200  1
  C  51  1  0.08352000  0.18707100  0.17753200  1
  C  52  1  0.03901200  0.18330500  0.18959850  1
  C  53  1  0.01763600  0.16835150  0.19189900  1
  C  54  1  0.04203700  0.15709600  0.18204150  1
  C  57  1  0.10475400  0.14905150  0.15884600  1
  C  58  1  0.17183000  0.14843100  0.15177750  1
  C  59  1  0.18717300  0.13780300  0.14045500  1
  C  60  1  0.13720300  0.12636100  0.13757000  1
  C  61  1  0.06969800  0.12663600  0.14422250  1
  C  62  1  0.05416700  0.13821050  0.15444700  1
  C  73  1  0.07869700  0.80733950  0.30546800  1
  C  74  1  0.09876600  0.79212200  0.30752950  1
  C  75  1  0.07701700  0.78076900  0.29744800  1
  C  76  1  0.03450300  0.78466700  0.28501950  1
  C  77  1  0.01368000  0.79967100  0.28258900  1
  C  78  1  0.03671000  0.81084050  0.29269350  1
  C  81  1  0.09667400  0.81871050  0.31630900  1
  C  82  1  0.16331100  0.81925600  0.32363100  1
  C  83  1  0.17789000  0.82983450  0.33504000  1
  C  84  1  0.12758200  0.84130200  0.33780350  1
  C  85  1  0.06086300  0.84123800  0.33068900  1
  C  86  1  0.04590000  0.82965350  0.32043650  1
  C  97  1  0.61938900  0.92228500  0.41161600  1
  C  98  1  0.59761300  0.92038100  0.42670800  1
  C  99  1  0.61180400  0.93143300  0.43772800  1
  C  100  1  0.64783500  0.94463900  0.43359150  1
  C  101  1  0.67092900  0.94672900  0.41871800  1
  C  102  1  0.65479800  0.93579200  0.40785900  1
  C  105  1  0.61405100  0.91038200  0.40078400  1
  C  106  1  0.55144400  0.90196800  0.39825100  1
  C  107  1  0.54772400  0.89074950  0.38698250  1
  C  108  1  0.61067400  0.88716400  0.37920200  1
  C  109  1  0.67174800  0.89602000  0.38056800  1
  C  110  1  0.67350800  0.90706800  0.39176100  1
  C  121  1  0.62798000  0.04648000  0.06174600  1
  C  122  1  0.60652000  0.04850800  0.04661500  1
  C  123  1  0.62106700  0.03750750  0.03555900  1
  C  124  1  0.65694000  0.02421850  0.03970300  1
  C  125  1  0.67955400  0.02199800  0.05461700  1
  C  126  1  0.66337900  0.03291150  0.06550300  1
  C  129  1  0.62280000  0.05833450  0.07262900  1
  C  130  1  0.55989000  0.06663750  0.07538300  1
  C  131  1  0.55639400  0.07772400  0.08679200  1
  C  132  1  0.61976600  0.08130900  0.09446000  1
  C  133  1  0.68121400  0.07254200  0.09287300  1
  C  134  1  0.68277900  0.06162650  0.08155200  1
  C  145  1  0.62265500  0.15944750  0.29863350  1
  C  146  1  0.60217500  0.17463600  0.30067650  1
  C  147  1  0.61730700  0.18566700  0.28970600  1
  C  148  1  0.65280200  0.18144300  0.27644600  1
  C  149  1  0.67457200  0.16647300  0.27422450  1
  C  150  1  0.65770900  0.15561500  0.28509150  1
  C  153  1  0.61723600  0.14856100  0.31047400  1
  C  154  1  0.55425800  0.14581750  0.31867300  1
  C  155  1  0.55055600  0.13435650  0.32969950  1
  C  156  1  0.61381700  0.12663200  0.33333333  1
  C  157  1  0.67534700  0.12823350  0.32469900  1
  C  158  1  0.67708900  0.13959450  0.31383100  1
  C  169  1  0.63291400  0.80821000  0.17370100  1
  C  170  1  0.61095300  0.79314100  0.17165800  1
  C  171  1  0.62481600  0.78205550  0.18268500  1
  C  172  1  0.66131000  0.78605500  0.19593500  1
  C  173  1  0.68324300  0.80095450  0.19829850  1
  C  174  1  0.66786800  0.81187200  0.18733200  1
  C  177  1  0.62797200  0.81915400  0.16188500  1
  C  178  1  0.56529000  0.82197300  0.15349600  1
  C  179  1  0.56194200  0.83341750  0.14244200  1
  C  180  1  0.62526100  0.84107900  0.13899200  1
  C  181  1  0.68640900  0.83945400  0.14786450  1
  C  182  1  0.68785000  0.82808100  0.15873200  1
  C  193  1  0.64202200  0.04975900  0.91189800  1
  C  194  1  0.58375800  0.04629100  0.92125000  1
  C  195  1  0.58734600  0.03584700  0.93311100  1
  C  196  1  0.64910800  0.02715350  0.93499400  1
  C  197  1  0.70784800  0.02961250  0.92557350  1
  C  198  1  0.70435500  0.04119500  0.91473850  1
  C  201  1  0.63587800  0.06077400  0.89977500  1
  C  202  1  0.58005400  0.07153200  0.89898600  1
  C  203  1  0.57378100  0.08229950  0.88742450  1
  C  204  1  0.62300600  0.08186500  0.87553700  1
  C  205  1  0.67919100  0.07138800  0.87563550  1
  C  206  1  0.68517400  0.06133700  0.88779600  1
  C  217  1  0.63204500  0.91895500  0.56070500  1
  C  218  1  0.57320000  0.92272600  0.55153700  1
  C  219  1  0.57650500  0.93323200  0.53974250  1
  C  220  1  0.63868300  0.94166700  0.53776000  1
  C  221  1  0.69805300  0.93890300  0.54702500  1
  C  222  1  0.69470400  0.92726300  0.55779400  1
  C  225  1  0.62612300  0.90789400  0.57275000  1
  C  226  1  0.57069200  0.89712000  0.57334250  1
  C  227  1  0.56449000  0.88632500  0.58486250  1
  C  228  1  0.61339000  0.88674900  0.59688100  1
  C  229  1  0.66925600  0.89723000  0.59694850  1
  C  230  1  0.67516000  0.90732800  0.58483800  1
  C  241  1  0.65611000  0.81054350  0.80358250  1
  C  242  1  0.63645200  0.79535200  0.80588700  1
  C  243  1  0.65967500  0.78374900  0.79624200  1
  C  244  1  0.70366200  0.78735350  0.78404500  1
  C  245  1  0.72421600  0.80230450  0.78139900  1
  C  246  1  0.69953400  0.81373300  0.79102000  1
  C  249  1  0.63481400  0.82225900  0.81378750  1
  C  250  1  0.56705900  0.82258300  0.82055300  1
  C  251  1  0.54914900  0.83334300  0.83155100  1
  C  252  1  0.59609000  0.84545300  0.83408850  1
  C  253  1  0.66260600  0.84596400  0.82698300  1
  C  254  1  0.68244700  0.83386750  0.81772700  1
  C  265  1  0.63723500  0.15959050  0.67144700  1
  C  266  1  0.61544300  0.17471400  0.66957150  1
  C  267  1  0.63881800  0.18614650  0.67939600  1
  C  268  1  0.68423300  0.18237900  0.69139650  1
  C  269  1  0.70653800  0.16743600  0.69362250  1
  C  270  1  0.68238300  0.15618800  0.68373600  1
  C  273  1  0.61936000  0.14830250  0.66058500  1
  C  274  1  0.55045400  0.14677600  0.65446850  1
  C  275  1  0.53529400  0.13620000  0.64307900  1
  C  276  1  0.58947000  0.12613850  0.63869250  1
  C  277  1  0.65901100  0.12758450  0.64421400  1
  C  278  1  0.67273800  0.13859300  0.65513250  1
  C  289  1  0.10728100  0.04341300  0.56485000  1
  C  290  1  0.15582800  0.04527600  0.55296650  1
  C  291  1  0.15854700  0.03544900  0.54058500  1
  C  292  1  0.11112700  0.02325300  0.53980700  1
  C  293  1  0.06021400  0.02116900  0.55123050  1
  C  294  1  0.06081400  0.03096900  0.56369150  1
  C  297  1  0.10620200  0.05353550  0.57757300  1
  C  298  1  0.16716900  0.06125550  0.58287000  1
  C  299  1  0.16532900  0.07128200  0.59517700  1
  C  300  1  0.09955200  0.07377700  0.60223900  1
  C  301  1  0.03879700  0.06566700  0.59798300  1
  C  302  1  0.04227500  0.05630950  0.58531950  1
  C  313  1  0.11352500  0.92314100  0.90938200  1
  C  314  1  0.16307800  0.92206600  0.92126550  1
  C  315  1  0.16669200  0.93270300  0.93293250  1
  C  316  1  0.11910500  0.94493800  0.93299900  1
  C  317  1  0.06685200  0.94622200  0.92165650  1
  C  318  1  0.06652700  0.93560900  0.90986450  1
  C  321  1  0.11174000  0.91204200  0.89748900  1
  C  322  1  0.17261100  0.90376400  0.89293600  1
  C  323  1  0.17043400  0.89256200  0.88169350  1
  C  324  1  0.10382600  0.88892600  0.87550050  1
  C  325  1  0.04351100  0.89741800  0.87896800  1
  C  326  1  0.04771200  0.90878300  0.88988350  1
  C  337  1  0.09892100  0.81015750  0.67096100  1
  C  338  1  0.12011800  0.79500100  0.66895000  1
  C  339  1  0.10669200  0.78398950  0.68002400  1
  C  340  1  0.07091700  0.78812750  0.69328350  1
  C  341  1  0.04954100  0.80310800  0.69561700  1
  C  342  1  0.06492400  0.81396000  0.68463300  1
  C  345  1  0.10453700  0.82100650  0.65906350  1
  C  346  1  0.16628800  0.82277300  0.65019900  1
  C  347  1  0.16991700  0.83346950  0.63844950  1
  C  348  1  0.10745600  0.84154250  0.63495650  1
  C  349  1  0.04874900  0.84151600  0.64461350  1
  C  350  1  0.04691200  0.83077100  0.65611800  1
  C  361  1  0.10242500  0.15823500  0.80081250  1
  C  362  1  0.12357200  0.17340300  0.80257850  1
  C  363  1  0.10882000  0.18431600  0.79143450  1
  C  364  1  0.07280700  0.17999850  0.77824300  1
  C  365  1  0.05026300  0.16506950  0.77627600  1
  C  366  1  0.06678900  0.15432200  0.78732900  1
  C  369  1  0.10935800  0.14752600  0.81282800  1
  C  370  1  0.17205700  0.14580100  0.82150200  1
  C  371  1  0.17708300  0.13520250  0.83333000  1
  C  372  1  0.11506400  0.12724150  0.83713300  1
  C  373  1  0.05536600  0.12720800  0.82768000  1
  C  374  1  0.05219500  0.13783200  0.81606950  1
  C  385  1  0.07590000  0.41733100  0.56246100  1
  C  386  1  0.09476200  0.41491000  0.54724100  1
  C  387  1  0.07031500  0.42442800  0.53561400  1
  C  388  1  0.02599700  0.43662950  0.53923800  1
  C  389  1  0.00629300  0.43940500  0.55422300  1
  C  390  1  0.03209600  0.42988900  0.56565950  1
  C  393  1  0.09806600  0.40721200  0.57420250  1
  C  394  1  0.16621400  0.40053100  0.57451000  1
  C  395  1  0.18495000  0.38962250  0.58532900  1
  C  396  1  0.13831000  0.38709350  0.59748250  1
  C  397  1  0.07132600  0.39408700  0.59798100  1
  C  398  1  0.05081100  0.40326250  0.58585600  1
  C  409  1  0.09636500  0.54927900  0.91163750  1
  C  410  1  0.11790900  0.55116550  0.92677500  1
  C  411  1  0.09458400  0.54136550  0.93820650  1
  C  412  1  0.04945000  0.52938400  0.93443000  1
  C  413  1  0.02740400  0.52714400  0.91947700  1
  C  414  1  0.05153000  0.53699600  0.90822550  1
  C  417  1  0.11396200  0.56015700  0.90036100  1
  C  418  1  0.18262100  0.56632300  0.89887550  1
  C  419  1  0.19738000  0.57775800  0.88834000  1
  C  420  1  0.14308500  0.58213550  0.87827300  1
  C  421  1  0.07374600  0.57658350  0.87968950  1
  C  422  1  0.06041600  0.56561700  0.89065450  1
  C  433  1  0.08586800  0.66039650  0.66973100  1
  C  434  1  0.14436500  0.66978000  0.67301600  1
  C  435  1  0.14148100  0.68175500  0.68333100  1
  C  436  1  0.08026300  0.68375000  0.69208600  1
  C  437  1  0.02133000  0.67432000  0.68981400  1
  C  438  1  0.02408500  0.66333900  0.67836250  1
  C  441  1  0.09133800  0.64816100  0.65882500  1
  C  442  1  0.14670900  0.64722200  0.64804600  1
  C  443  1  0.15239500  0.63555300  0.63738850  1
  C  444  1  0.10299300  0.62370800  0.63795800  1
  C  445  1  0.04722200  0.62394800  0.64846000  1
  C  446  1  0.04180600  0.63621600  0.65839050  1
  C  457  1  0.09480100  0.30856350  0.80182700  1
  C  458  1  0.15219200  0.29879400  0.79860800  1
  C  459  1  0.14792100  0.28681800  0.78831150  1
  C  460  1  0.08641600  0.28517900  0.77950800  1
  C  461  1  0.02854200  0.29497500  0.78170950  1
  C  462  1  0.03264400  0.30595650  0.79314150  1
  C  465  1  0.10157600  0.32079400  0.81273800  1
  C  466  1  0.15815200  0.32168200  0.82331900  1
  C  467  1  0.16470800  0.33333333  0.83402800  1
  C  468  1  0.11512500  0.34517450  0.83366550  1
  C  469  1  0.05819200  0.34499800  0.82338300  1
  C  470  1  0.05192600  0.33277450  0.81342600  1
  C  481  1  0.63354100  0.41976800  0.91058250  1
  C  482  1  0.61278200  0.41802150  0.92577450  1
  C  483  1  0.62760300  0.42916800  0.93666000  1
  C  484  1  0.66328400  0.44233300  0.93229000  1
  C  485  1  0.68562400  0.44426850  0.91734150  1
  C  486  1  0.66891100  0.43322500  0.90662100  1
  C  489  1  0.62668600  0.40774450  0.89988750  1
  C  490  1  0.56398700  0.39915950  0.89811700  1
  C  491  1  0.55907600  0.38735700  0.88748800  1
  C  492  1  0.62125400  0.38346100  0.87958800  1
  C  493  1  0.68095400  0.39283000  0.87959500  1
  C  494  1  0.68397500  0.40443050  0.89022550  1
  C  505  1  0.62225200  0.54857200  0.56201500  1
  C  506  1  0.60205900  0.55030050  0.54675400  1
  C  507  1  0.61682000  0.53904500  0.53598050  1
  C  508  1  0.65171900  0.52578200  0.54052900  1
  C  509  1  0.67337900  0.52386200  0.55555300  1
  C  510  1  0.65695400  0.53503400  0.56616000  1
  C  513  1  0.61557900  0.56067500  0.57261400  1
  C  514  1  0.55296900  0.56937950  0.57422900  1
  C  515  1  0.54817200  0.58127000  0.58475750  1
  C  516  1  0.61035300  0.58510450  0.59273300  1
  C  517  1  0.66996500  0.57562600  0.59288200  1
  C  518  1  0.67288200  0.56394100  0.58233900  1
  C  529  1  0.62507200  0.65726200  0.79668700  1
  C  530  1  0.57860600  0.66947450  0.79910050  1
  C  531  1  0.57675900  0.68211900  0.78959450  1
  C  532  1  0.62341600  0.68288200  0.77725500  1
  C  533  1  0.67118400  0.67094600  0.77444600  1
  C  534  1  0.66993900  0.65828200  0.78398050  1
  C  537  1  0.62581400  0.64436200  0.80656300  1
  C  538  1  0.56494200  0.63915900  0.81432100  1
  C  539  1  0.56670800  0.62668600  0.82415450  1
  C  540  1  0.63242200  0.61943650  0.82646450  1
  C  541  1  0.69302400  0.62362450  0.81831000  1
  C  542  1  0.68956200  0.63638900  0.80908450  1
  C  553  1  0.62304500  0.31156800  0.67509700  1
  C  554  1  0.57376300  0.29970350  0.67401100  1
  C  555  1  0.57049600  0.28799650  0.68460800  1
  C  556  1  0.61825600  0.28786750  0.69681450  1
  C  557  1  0.67029100  0.29918800  0.69811200  1
  C  558  1  0.67021300  0.31101800  0.68753700  1
  C  561  1  0.62437300  0.32350600  0.66403550  1
  C  562  1  0.56332000  0.32809400  0.65578900  1
  C  563  1  0.56508600  0.33937600  0.64462000  1
  C  564  1  0.63150000  0.34557300  0.64098600  1
  C  565  1  0.69198000  0.34206600  0.64944500  1
  C  566  1  0.68816000  0.33111700  0.66077900  1
  C  577  1  0.63688100  0.54806150  0.41103500  1
  C  578  1  0.58032200  0.54479400  0.42093550  1
  C  579  1  0.58600800  0.53469150  0.43304700  1
  C  580  1  0.64816200  0.52609000  0.43467100  1
  C  581  1  0.70506600  0.52828400  0.42468900  1
  C  582  1  0.69962000  0.53954100  0.41353950  1
  C  585  1  0.62816100  0.55871300  0.39865350  1
  C  586  1  0.57146300  0.56926700  0.39811100  1
  C  587  1  0.56113100  0.57948200  0.38620900  1
  C  588  1  0.60655900  0.57859600  0.37368300  1
  C  589  1  0.66398200  0.56841900  0.37358650  1
  C  590  1  0.67493900  0.55910700  0.38619800  1
  C  601  1  0.63920000  0.41957200  0.06182000  1
  C  602  1  0.58315800  0.42290150  0.05170100  1
  C  603  1  0.58942800  0.43297000  0.03958300  1
  C  604  1  0.65163900  0.44148300  0.03814800  1
  C  605  1  0.70806600  0.43923300  0.04832950  1
  C  606  1  0.70204400  0.42801000  0.05948200  1
  C  609  1  0.63047800  0.40876600  0.07407300  1
  C  610  1  0.57317200  0.39843600  0.07460800  1
  C  611  1  0.56425200  0.38779950  0.08616400  1
  C  612  1  0.61234500  0.38788800  0.09832500  1
  C  613  1  0.66995200  0.39793600  0.09856000  1
  C  614  1  0.67841100  0.40789250  0.08637600  1
  C  625  1  0.63943100  0.31076850  0.30095750  1
  C  626  1  0.58283900  0.30090700  0.29753100  1
  C  627  1  0.58866400  0.28879500  0.28743800  1
  C  628  1  0.65107800  0.28712750  0.27901200  1
  C  629  1  0.70808800  0.29706600  0.28137600  1
  C  630  1  0.70242700  0.30821100  0.29262400  1
  C  633  1  0.63057500  0.32315650  0.31158400  1
  C  634  1  0.57370600  0.32373250  0.32201900  1
  C  635  1  0.56349100  0.33562550  0.33224300  1
  C  636  1  0.60914800  0.34811700  0.33145650  1
  C  637  1  0.66657700  0.34820100  0.32135900  1
  C  638  1  0.67745200  0.33559300  0.31205600  1
  C  649  1  0.63976300  0.65771700  0.17207650  1
  C  650  1  0.58271000  0.66758200  0.17531700  1
  C  651  1  0.58729100  0.67953600  0.18562100  1
  C  652  1  0.64872600  0.68103100  0.19445600  1
  C  653  1  0.70604800  0.67107550  0.19230500  1
  C  654  1  0.70175000  0.66009900  0.18086650  1
  C  657  1  0.63273200  0.64563300  0.16101900  1
  C  658  1  0.57616300  0.64510450  0.15043500  1
  C  659  1  0.56853100  0.63368300  0.13960500  1
  C  660  1  0.61738700  0.62166200  0.13969200  1
  C  661  1  0.67431100  0.62141900  0.14999850  1
  C  662  1  0.68150300  0.63348450  0.16015650  1
  C  673  1  0.11320800  0.54545150  0.06462700  1
  C  674  1  0.15985400  0.54670900  0.05228300  1
  C  675  1  0.16196700  0.53618750  0.04049600  1
  C  676  1  0.11498900  0.52392700  0.04065300  1
  C  677  1  0.06486400  0.52252500  0.05233400  1
  C  678  1  0.06659400  0.53296400  0.06428500  1
  C  681  1  0.11426200  0.55636400  0.07677100  1
  C  682  1  0.17521800  0.56508350  0.08026000  1
  C  683  1  0.17509600  0.57663850  0.09111700  1
  C  684  1  0.11096500  0.57955800  0.09861400  1
  C  685  1  0.05306400  0.56971400  0.09742900  1
  C  686  1  0.05411300  0.55886600  0.08594100  1
  C  697  1  0.10049500  0.41985800  0.40918100  1
  C  698  1  0.14668800  0.41824900  0.42161800  1
  C  699  1  0.14903700  0.42864750  0.43351500  1
  C  700  1  0.10337100  0.44120100  0.43326000  1
  C  701  1  0.05415000  0.44301450  0.42138000  1
  C  702  1  0.05517800  0.43261150  0.40939800  1
  C  705  1  0.10006800  0.40890000  0.39712500  1
  C  706  1  0.16064600  0.40015000  0.39333900  1
  C  707  1  0.15941100  0.38862900  0.38241200  1
  C  708  1  0.09377200  0.38540200  0.37553000  1
  C  709  1  0.03493500  0.39478000  0.37770450  1
  C  710  1  0.03815800  0.40626350  0.38852500  1
  C  721  1  0.11132200  0.31309050  0.17483750  1
  C  722  1  0.15767400  0.30065400  0.17343300  1
  C  723  1  0.15970600  0.28877900  0.18386100  1
  C  724  1  0.11305600  0.28896050  0.19618050  1
  C  725  1  0.06329300  0.30076000  0.19773850  1
  C  726  1  0.06504100  0.31277950  0.18738100  1
  C  729  1  0.11225400  0.32529000  0.16399450  1
  C  730  1  0.17311000  0.32877550  0.15527600  1
  C  731  1  0.17279400  0.33971600  0.14379400  1
  C  732  1  0.10853500  0.34728200  0.14094100  1
  C  733  1  0.05060500  0.34603550  0.15076200  1
  C  734  1  0.05190700  0.33448900  0.16154400  1
  C  745  1  0.09824600  0.65543300  0.30136050  1
  C  746  1  0.14592200  0.66759800  0.30258700  1
  C  747  1  0.14970700  0.67913700  0.29182300  1
  C  748  1  0.10307600  0.67898100  0.27942550  1
  C  749  1  0.05317000  0.66728000  0.27787500  1
  C  750  1  0.05291300  0.65558600  0.28860400  1
  C  753  1  0.09695000  0.64362800  0.31259550  1
  C  754  1  0.15712500  0.63985000  0.32151100  1
  C  755  1  0.15520600  0.62919650  0.33327100  1
  C  756  1  0.08937200  0.62251100  0.33651650  1
  C  757  1  0.03096100  0.62461700  0.32698550  1
  C  758  1  0.03475600  0.63522650  0.31531600  1
  C  769  1  0.95145200  0.87570700  0.12320700  1
  C  770  1  0.94692900  0.86426800  0.13433300  1
  C  771  1  0.87994500  0.86029100  0.13983000  1
  C  772  1  0.81746700  0.86745600  0.13491900  1
  C  773  1  0.82278600  0.87989850  0.12495700  1
  C  775  1  0.88967700  0.88369350  0.11922750  1
  C  777  1  0.76023100  0.88852300  0.11950700  1
  C  781  1  0.00940300  0.85573250  0.13998700  1
  C  785  1  0.01493400  0.87862200  0.11558350  1
  C  787  1  0.75179600  0.86141900  0.13906600  1
  C  789  1  0.94228400  0.09208650  0.34949400  1
  C  790  1  0.93688600  0.10346000  0.33830850  1
  C  791  1  0.86950800  0.10741550  0.33286200  1
  C  792  1  0.80747700  0.10029100  0.33788100  1
  C  793  1  0.81364000  0.08790450  0.34790450  1
  C  795  1  0.88092800  0.08413550  0.35358950  1
  C  797  1  0.75159500  0.07931950  0.35345850  1
  C  801  1  0.99883000  0.11195350  0.33254000  1
  C  805  1  0.00626100  0.08919600  0.35705850  1
  C  807  1  0.74144300  0.10631000  0.33375400  1
  C  809  1  0.94758200  0.09722050  0.12905900  1
  C  810  1  0.94252900  0.08602250  0.11769800  1
  C  811  1  0.87529800  0.08060100  0.11371500  1
  C  812  1  0.81309600  0.08565200  0.12080800  1
  C  813  1  0.81892100  0.09569550  0.13318050  1
  C  815  1  0.88605400  0.10135350  0.13697300  1
  C  817  1  0.75668000  0.10129900  0.14172500  1
  C  821  1  0.00468200  0.08022600  0.10923600  1
  C  825  1  0.01133500  0.10477800  0.13195600  1
  C  827  1  0.74718500  0.08153850  0.11478000  1
  C  829  1  0.93821900  0.87123350  0.34462300  1
  C  830  1  0.93280600  0.88276300  0.35564150  1
  C  831  1  0.86529800  0.88809050  0.35957950  1
  C  832  1  0.80314800  0.88265700  0.35272900  1
  C  833  1  0.80918200  0.87228450  0.34064000  1
  C  835  1  0.87658400  0.86667650  0.33694500  1
  C  837  1  0.74697500  0.86627700  0.33233550  1
  C  841  1  0.99488600  0.88895000  0.36387100  1
  C  845  1  0.00246000  0.86374250  0.34188850  1
  C  847  1  0.73721700  0.88673600  0.35874300  1
  C  849  1  0.80445600  0.08218900  0.84590100  1
  C  850  1  0.80898900  0.09290300  0.83407000  1
  C  851  1  0.87459700  0.09974500  0.83118900  1
  C  852  1  0.93641700  0.09592050  0.83922100  1
  C  853  1  0.93339000  0.08399100  0.84984400  1
  C  855  1  0.86732100  0.07754700  0.85311300  1
  C  857  1  0.99611100  0.07867600  0.85850450  1
  C  861  1  0.74641400  0.09817000  0.82533850  1
  C  865  1  0.73879700  0.07750550  0.85162100  1
  C  867  1  0.99823000  0.10440350  0.83710100  1
  C  869  1  0.79496900  0.88638500  0.62682200  1
  C  870  1  0.80029400  0.87556100  0.63855300  1
  C  871  1  0.86642800  0.86883200  0.64146350  1
  C  872  1  0.92795500  0.87286300  0.63355500  1
  C  873  1  0.92405700  0.88491450  0.62307450  1
  C  875  1  0.85751400  0.89125400  0.61977600  1
  C  877  1  0.98639300  0.89046400  0.61457500  1
  C  881  1  0.73811000  0.87006100  0.64712800  1
  C  885  1  0.72897600  0.89098400  0.62103600  1
  C  887  1  0.99030200  0.86443350  0.63560800  1
  C  889  1  0.75917200  0.87908900  0.84181250  1
  C  890  1  0.74727800  0.89275200  0.84970800  1
  C  891  1  0.80256100  0.89884200  0.85841950  1
  C  892  1  0.86991300  0.89205000  0.85952300  1
  C  893  1  0.88292000  0.87891100  0.85073400  1
  C  895  1  0.82736200  0.87273850  0.84218100  1
  C  897  1  0.95151800  0.87076400  0.85028600  1
  C  901  1  0.67768900  0.90058800  0.84976500  1
  C  905  1  0.70392000  0.87106450  0.83488200  1
  C  907  1  0.91851300  0.89890900  0.86947500  1
  C  909  1  0.77639400  0.09899000  0.62627650  1
  C  910  1  0.78121200  0.08953500  0.61343050  1
  C  911  1  0.84185100  0.08052800  0.61162100  1
  C  912  1  0.89765400  0.08044150  0.62216700  1
  C  913  1  0.89038900  0.08903800  0.63555200  1
  C  915  1  0.83006200  0.09817300  0.63728500  1
  C  917  1  0.94543200  0.08945600  0.64753500  1
  C  921  1  0.72572200  0.08894900  0.60154350  1
  C  925  1  0.71933200  0.10893650  0.62834650  1
  C  927  1  0.96140700  0.07315750  0.61851750  1
  C  929  1  0.97528600  0.37919350  0.63109850  1
  C  930  1  0.98738600  0.37130350  0.64476700  1
  C  931  1  0.93237600  0.36258250  0.65084800  1
  C  932  1  0.86508000  0.36147000  0.64404700  1
  C  933  1  0.85184400  0.37024700  0.63089800  1
  C  935  1  0.90714000  0.37880550  0.62473150  1
  C  937  1  0.78327000  0.37067600  0.62273400  1
  C  941  1  0.05693600  0.37126850  0.65262050  1
  C  945  1  0.03033000  0.38614200  0.62308900  1
  C  947  1  0.81676400  0.35152200  0.65090700  1
  C  949  1  0.95579600  0.59475650  0.85124050  1
  C  950  1  0.95075200  0.60768000  0.84188700  1
  C  951  1  0.89004100  0.60960500  0.83290800  1
  C  952  1  0.83433800  0.59911200  0.83276500  1
  C  953  1  0.84183800  0.58565400  0.84125400  1
  C  955  1  0.90226900  0.58379500  0.85035150  1
  C  957  1  0.78693400  0.57371400  0.84159400  1
  C  961  1  0.00606100  0.61953450  0.84138150  1
  C  965  1  0.01293300  0.59257450  0.86116050  1
  C  967  1  0.77045300  0.60288500  0.82554850  1
  C  969  1  0.92155400  0.59413400  0.63795400  1
  C  970  1  0.91681700  0.58220700  0.62734400  1
  C  971  1  0.85110300  0.57927950  0.62047650  1
  C  972  1  0.78937000  0.58735700  0.62418350  1
  C  973  1  0.79260300  0.59807700  0.63602900  1
  C  975  1  0.85878300  0.60139750  0.64248500  1
  C  977  1  0.72997700  0.60678500  0.64123300  1
  C  981  1  0.97928200  0.57341800  0.62219950  1
  C  985  1  0.98730400  0.59988600  0.64262900  1
  C  987  1  0.72743600  0.58518000  0.61567050  1
  C  989  1  0.93198600  0.37464050  0.83443000  1
  C  990  1  0.92722600  0.38644850  0.84517400  1
  C  991  1  0.86163400  0.38929450  0.85207550  1
  C  992  1  0.80003500  0.38125500  0.84828000  1
  C  993  1  0.80323800  0.37065350  0.83633100  1
  C  995  1  0.86931000  0.36741300  0.82983150  1
  C  997  1  0.74073100  0.36199200  0.83104350  1
  C  1001  1  0.98955900  0.39519350  0.85040700  1
  C  1005  1  0.99776800  0.36897800  0.82964150  1
  C  1007  1  0.73825800  0.38336600  0.85679600  1
  C  1009  1  0.76302900  0.58060350  0.34060500  1
  C  1010  1  0.75138800  0.58848850  0.32691000  1
  C  1011  1  0.80360200  0.59848900  0.32171600  1
  C  1012  1  0.86766600  0.60101550  0.32948750  1
  C  1013  1  0.88137900  0.59216800  0.34256800  1
  C  1015  1  0.82903200  0.58221300  0.34777450  1
  C  1017  1  0.94726800  0.59309850  0.35163550  1
  C  1021  1  0.68455700  0.58724000  0.31814550  1
  C  1025  1  0.70835400  0.57285050  0.34802500  1
  C  1027  1  0.91248100  0.61225100  0.32354850  1
  C  1029  1  0.79050400  0.38753750  0.12990700  1
  C  1030  1  0.79418900  0.37671550  0.14167800  1
  C  1031  1  0.86079800  0.37097500  0.14592300  1
  C  1032  1  0.92406700  0.37610800  0.13942600  1
  C  1033  1  0.92079000  0.38809900  0.12885300  1
  C  1035  1  0.85404300  0.39332600  0.12409250  1
  C  1037  1  0.98457500  0.39463350  0.12163350  1
  C  1041  1  0.73047600  0.37019500  0.14893050  1
  C  1045  1  0.72583800  0.39142700  0.12303500  1
  C  1047  1  0.98795000  0.36867100  0.14274500  1
  C  1049  1  0.76603200  0.38117000  0.33359700  1
  C  1050  1  0.75454600  0.39485000  0.34150100  1
  C  1051  1  0.80700000  0.40003100  0.35152000  1
  C  1052  1  0.87119900  0.39227450  0.35402650  1
  C  1053  1  0.88477700  0.37922650  0.34514100  1
  C  1055  1  0.83213800  0.37401850  0.33518500  1
  C  1057  1  0.95080700  0.37019200  0.34604200  1
  C  1061  1  0.68764200  0.40360400  0.34026200  1
  C  1065  1  0.71113800  0.37374800  0.32584450  1
  C  1067  1  0.91621900  0.39818100  0.36529950  1
  C  1069  1  0.79524300  0.59029100  0.13949150  1
  C  1070  1  0.79842800  0.57854000  0.12864500  1
  C  1071  1  0.86467100  0.57442650  0.12271100  1
  C  1072  1  0.92813500  0.58103350  0.12767300  1
  C  1073  1  0.92550800  0.59160200  0.13967300  1
  C  1075  1  0.85906200  0.59623150  0.14509250  1
  C  1077  1  0.98958000  0.59894200  0.14603150  1
  C  1081  1  0.73442200  0.57117600  0.12229800  1
  C  1085  1  0.73066000  0.59703950  0.14356450  1
  C  1087  1  0.99150600  0.57779950  0.12008850  1
  C  1089  1  0.32519700  0.86110100  0.09620700  1
  C  1090  1  0.32946100  0.84652200  0.10282000  1
  C  1091  1  0.38398700  0.84328700  0.11323500  1
  C  1092  1  0.43401100  0.85412200  0.11763150  1
  C  1093  1  0.43160200  0.86850000  0.11052800  1
  C  1095  1  0.37800200  0.87159900  0.09991000  1
  C  1097  1  0.48358000  0.88063800  0.11375450  1
  C  1101  1  0.27756500  0.83446550  0.09938200  1
  C  1105  1  0.26604300  0.86587900  0.08770300  1
  C  1107  1  0.48669400  0.85043100  0.12829850  1
  C  1109  1  0.31648300  0.10669000  0.37597900  1
  C  1110  1  0.32021300  0.12130350  0.36944400  1
  C  1111  1  0.37369700  0.12451250  0.35887100  1
  C  1112  1  0.42310200  0.11361600  0.35422050  1
  C  1113  1  0.42108600  0.09917350  0.36119200  1
  C  1115  1  0.36863400  0.09610500  0.37198600  1
  C  1117  1  0.47238900  0.08693900  0.35766300  1
  C  1121  1  0.26892400  0.13344300  0.37316500  1
  C  1125  1  0.25834400  0.10199850  0.38472900  1
  C  1127  1  0.47506900  0.11731700  0.34348950  1
  C  1129  1  0.32074000  0.12407200  0.11431900  1
  C  1130  1  0.32463900  0.11745550  0.09974300  1
  C  1131  1  0.37873500  0.10694550  0.09655800  1
  C  1132  1  0.42864700  0.10244700  0.10744200  1
  C  1133  1  0.42650100  0.10951800  0.12183500  1
  C  1135  1  0.37338000  0.12024150  0.12488200  1
  C  1137  1  0.47829600  0.10615650  0.13404300  1
  C  1141  1  0.27285000  0.12100950  0.08762800  1
  C  1145  1  0.26202300  0.13271050  0.11902900  1
  C  1147  1  0.48109300  0.09174000  0.10377900  1
  C  1149  1  0.31222000  0.84371500  0.36087900  1
  C  1150  1  0.31706100  0.85057700  0.37533000  1
  C  1151  1  0.37088800  0.86119100  0.37819100  1
  C  1152  1  0.41958800  0.86555100  0.36709750  1
  C  1153  1  0.41659000  0.85822950  0.35283800  1
  C  1155  1  0.36377200  0.84740900  0.35012000  1
  C  1157  1  0.46716200  0.86142200  0.34044150  1
  C  1161  1  0.26649800  0.84718800  0.38763400  1
  C  1165  1  0.25357800  0.83492250  0.35648500  1
  C  1167  1  0.47176000  0.87637400  0.37042650  1
  C  1169  1  0.44259200  0.11038500  0.87442500  1
  C  1170  1  0.43640200  0.12400700  0.86607900  1
  C  1171  1  0.37295900  0.12721500  0.85824900  1
  C  1172  1  0.31577000  0.11713250  0.85801650  1
  C  1173  1  0.32043900  0.10391100  0.86705300  1
  C  1175  1  0.38299700  0.10096600  0.87518900  1
  C  1177  1  0.26194900  0.09280200  0.86835100  1
  C  1181  1  0.49528600  0.13497400  0.86498800  1
  C  1185  1  0.50757800  0.10518350  0.88037900  1
  C  1187  1  0.25567500  0.12015500  0.84905400  1
  C  1189  1  0.43394700  0.85817450  0.59745250  1
  C  1190  1  0.42813400  0.84456550  0.60581200  1
  C  1191  1  0.36461200  0.84133650  0.61347900  1
  C  1192  1  0.30696500  0.85138100  0.61352650  1
  C  1193  1  0.31119300  0.86455000  0.60442000  1
  C  1195  1  0.37388600  0.86752550  0.59646100  1
  C  1197  1  0.25214500  0.87558400  0.60289700  1
  C  1201  1  0.48751100  0.83365200  0.60711300  1
  C  1205  1  0.49891400  0.86342000  0.59169500  1
  C  1207  1  0.24700100  0.84840400  0.62243300  1
  C  1209  1  0.41016200  0.84613050  0.85657400  1
  C  1210  1  0.40360800  0.85352100  0.87071800  1
  C  1211  1  0.34743600  0.86374700  0.87301900  1
  C  1212  1  0.29738200  0.86706950  0.86173550  1
  C  1213  1  0.30206100  0.85916800  0.84783000  1
  C  1215  1  0.35779200  0.84884900  0.84560050  1
  C  1217  1  0.25070100  0.86137350  0.83529650  1
  C  1221  1  0.45481600  0.85116600  0.88323300  1
  C  1225  1  0.47107100  0.83779800  0.85266350  1
  C  1227  1  0.24259700  0.87746600  0.86464700  1
  C  1229  1  0.39476100  0.11990850  0.62000150  1
  C  1230  1  0.38759100  0.11280800  0.60571200  1
  C  1231  1  0.33506100  0.10175350  0.60362500  1
  C  1232  1  0.28924200  0.09730400  0.61524150  1
  C  1233  1  0.29456800  0.10483400  0.62934800  1
  C  1235  1  0.34673200  0.11595700  0.63139550  1
  C  1237  1  0.24720300  0.10147300  0.64224500  1
  C  1241  1  0.43447000  0.11633100  0.59278700  1
  C  1245  1  0.45257200  0.12931550  0.62348750  1
  C  1247  1  0.23750200  0.08623050  0.61244200  1
  C  1249  1  0.32481200  0.36465100  0.59819100  1
  C  1250  1  0.33177800  0.35048250  0.60553850  1
  C  1251  1  0.38790700  0.34815400  0.61578850  1
  C  1252  1  0.43754400  0.35943150  0.61918100  1
  C  1253  1  0.43241900  0.37336950  0.61133500  1
  C  1255  1  0.37673300  0.37562850  0.60099100  1
  C  1257  1  0.48328400  0.38591000  0.61362650  1
  C  1261  1  0.28106900  0.33795950  0.60310250  1
  C  1265  1  0.26388300  0.36856900  0.58982500  1
  C  1267  1  0.49236400  0.35647900  0.62958400  1
  C  1269  1  0.33699800  0.60116700  0.87231300  1
  C  1270  1  0.34367900  0.61556000  0.86541800  1
  C  1271  1  0.39646900  0.61785300  0.85447200  1
  C  1272  1  0.44293400  0.60633550  0.84990750  1
  C  1273  1  0.43807300  0.59212100  0.85723900  1
  C  1275  1  0.38573500  0.58987700  0.86827600  1
  C  1277  1  0.48615700  0.57930900  0.85376650  1
  C  1281  1  0.29604000  0.62838900  0.86905700  1
  C  1285  1  0.27906800  0.59748900  0.88158750  1
  C  1287  1  0.49470800  0.60931100  0.83890150  1
  C  1289  1  0.28271400  0.62231900  0.60936000  1
  C  1290  1  0.28853600  0.61386950  0.59580250  1
  C  1291  1  0.35206300  0.60609900  0.59261100  1
  C  1292  1  0.40971400  0.60602150  0.60265450  1
  C  1293  1  0.40537400  0.61516100  0.61580500  1
  C  1295  1  0.34271500  0.62323750  0.61872850  1
  C  1297  1  0.46432600  0.61662600  0.62686200  1
  C  1301  1  0.22918300  0.61261100  0.58488700  1
  C  1305  1  0.21780700  0.62824100  0.61455750  1
  C  1307  1  0.46989600  0.59709700  0.59967650  1
  C  1309  1  0.29540000  0.34638400  0.86210700  1
  C  1310  1  0.30098700  0.35461800  0.87580700  1
  C  1311  1  0.36396000  0.36249200  0.87911950  1
  C  1312  1  0.42124400  0.36288650  0.86906900  1
  C  1313  1  0.41717100  0.35397750  0.85575500  1
  C  1315  1  0.35508800  0.34579850  0.85270050  1
  C  1317  1  0.47583500  0.35285150  0.84466200  1
  C  1321  1  0.24197100  0.35552600  0.88676700  1
  C  1325  1  0.23084300  0.34034000  0.85686100  1
  C  1327  1  0.48092400  0.37184900  0.87223450  1
  C  1329  1  0.42474700  0.60657950  0.37389350  1
  C  1330  1  0.41563800  0.61958200  0.36473400  1
  C  1331  1  0.35003400  0.62211600  0.35752900  1
  C  1332  1  0.29311600  0.61203500  0.35884400  1
  C  1333  1  0.30076500  0.59955000  0.36877000  1
  C  1335  1  0.36584100  0.59720300  0.37617100  1
  C  1337  1  0.24311800  0.58854800  0.37160050  1
  C  1341  1  0.47355700  0.63051750  0.36207100  1
  C  1345  1  0.49170500  0.60187550  0.37919600  1
  C  1347  1  0.23066200  0.61440250  0.35044450  1
  C  1349  1  0.42946700  0.36137000  0.09954600  1
  C  1350  1  0.42219200  0.34809350  0.10836100  1
  C  1351  1  0.36005100  0.34591250  0.11684400  1
  C  1352  1  0.30506400  0.35661700  0.11718200  1
  C  1353  1  0.31050200  0.36946100  0.10767500  1
  C  1355  1  0.37190100  0.37145100  0.09897400  1
  C  1357  1  0.25418400  0.38115550  0.10654500  1
  C  1361  1  0.47868400  0.33646750  0.10932800  1
  C  1365  1  0.49433400  0.36556500  0.09294900  1
  C  1367  1  0.24632300  0.35443800  0.12666850  1
  C  1369  1  0.42791000  0.34808600  0.35928650  1
  C  1370  1  0.41936200  0.35702550  0.37244850  1
  C  1371  1  0.35420700  0.36436850  0.37503850  1
  C  1372  1  0.29729200  0.36345400  0.36483600  1
  C  1373  1  0.30441100  0.35378950  0.35214200  1
  C  1375  1  0.36893500  0.34620700  0.34976200  1
  C  1377  1  0.24668000  0.35138000  0.34097800  1
  C  1381  1  0.47739900  0.35927750  0.38352600  1
  C  1385  1  0.49448700  0.34263050  0.35459400  1
  C  1387  1  0.23527300  0.37195200  0.36730300  1
  C  1389  1  0.43350400  0.62049800  0.11290600  1
  C  1390  1  0.42581100  0.61165950  0.09964700  1
  C  1391  1  0.36322200  0.60332350  0.09740200  1
  C  1392  1  0.30815700  0.60317050  0.10801900  1
  C  1393  1  0.31399500  0.61272450  0.12082550  1
  C  1395  1  0.37588500  0.62126600  0.12288500  1
  C  1397  1  0.25765000  0.61405700  0.13241600  1
  C  1401  1  0.48233700  0.61049850  0.08812300  1
  C  1405  1  0.49870800  0.62693950  0.11719000  1
  C  1407  1  0.24899200  0.59379850  0.10580600  1
  C  1409  1  0.15777300  0.92001900  0.99615750  1
  C  1410  1  0.15614100  0.90973000  0.98394750  1
  C  1411  1  0.18033000  0.91448500  0.96971150  1
  C  1412  1  0.20481800  0.92921100  0.96718100  1
  C  1413  1  0.20354800  0.93970900  0.97915850  1
  C  1415  1  0.18003900  0.93491400  0.99338250  1
  C  1417  1  0.22813400  0.95550750  0.97783250  1
  C  1421  1  0.13206800  0.89390100  0.98522450  1
  C  1425  1  0.14413800  0.91581000  0.01092000  1
  C  1427  1  0.24553200  0.93179700  0.95458850  1
  C  1429  1  0.15122500  0.04863800  0.47690600  1
  C  1430  1  0.14778900  0.05893600  0.48908850  1
  C  1431  1  0.17106600  0.05424100  0.50345700  1
  C  1432  1  0.19637300  0.03956000  0.50614400  1
  C  1433  1  0.19703800  0.02906500  0.49416600  1
  C  1435  1  0.17431200  0.03378850  0.47981750  1
  C  1437  1  0.22303900  0.01334700  0.49563400  1
  C  1441  1  0.12278300  0.07472200  0.48765450  1
  C  1445  1  0.13817200  0.05278100  0.46207900  1
  C  1447  1  0.23696400  0.03721200  0.51886300  1
  C  1449  1  0.15039600  0.22480900  0.17201000  1
  C  1450  1  0.14796900  0.23681600  0.16148900  1
  C  1451  1  0.17139800  0.25120250  0.16598900  1
  C  1452  1  0.19586700  0.25409700  0.18068450  1
  C  1453  1  0.19529300  0.24231500  0.19140600  1
  C  1455  1  0.17247800  0.22794100  0.18687700  1
  C  1457  1  0.22017300  0.24400450  0.20718200  1
  C  1461  1  0.12397900  0.23516450  0.14565600  1
  C  1465  1  0.13789800  0.20992400  0.16805000  1
  C  1467  1  0.23693200  0.26670450  0.18294600  1
  C  1469  1  0.14300500  0.74291150  0.30334050  1
  C  1470  1  0.13929600  0.73085400  0.31378200  1
  C  1471  1  0.16283100  0.71643300  0.30934200  1
  C  1472  1  0.18861100  0.71356500  0.29476900  1
  C  1473  1  0.18947000  0.72540650  0.28411800  1
  C  1475  1  0.16663100  0.73981200  0.28860000  1
  C  1477  1  0.21563600  0.72372900  0.26846750  1
  C  1481  1  0.11368200  0.73247250  0.32947100  1
  C  1485  1  0.12996000  0.75779750  0.30727100  1
  C  1487  1  0.22880000  0.70076000  0.29260550  1
  C  1489  1  0.55593400  0.92553200  0.47632000  1
  C  1490  1  0.55936400  0.91502700  0.48835200  1
  C  1491  1  0.54206800  0.91982700  0.50304950  1
  C  1492  1  0.52331800  0.93483100  0.50626750  1
  C  1493  1  0.52313200  0.94550900  0.49444050  1
  C  1495  1  0.53897500  0.94064100  0.47975400  1
  C  1497  1  0.50533500  0.96167800  0.49644600  1
  C  1501  1  0.57901300  0.89894700  0.48650950  1
  C  1505  1  0.56437100  0.92150100  0.46127150  1
  C  1507  1  0.49096700  0.93802400  0.51985600  1
  C  1509  1  0.56702100  0.04365550  0.99678200  1
  C  1510  1  0.57035700  0.05420450  0.98479400  1
  C  1511  1  0.55347000  0.04946200  0.97003800  1
  C  1512  1  0.53531300  0.03446550  0.96670950  1
  C  1513  1  0.53535200  0.02374700  0.97849600  1
  C  1515  1  0.55077200  0.02855200  0.99323900  1
  C  1517  1  0.51804200  0.00759100  0.97637800  1
  C  1521  1  0.58938000  0.07028300  0.98674300  1
  C  1525  1  0.57484100  0.04763850  0.01187500  1
  C  1527  1  0.50247300  0.03139900  0.95311300  1
  C  1529  1  0.56675800  0.22470200  0.29562900  1
  C  1530  1  0.57004400  0.23674100  0.30612650  1
  C  1531  1  0.55442600  0.25152050  0.30122900  1
  C  1532  1  0.53766900  0.25483700  0.28613500  1
  C  1533  1  0.53789500  0.24298750  0.27547750  1
  C  1535  1  0.55200000  0.22822750  0.28043000  1
  C  1537  1  0.52190900  0.24506200  0.25923100  1
  C  1541  1  0.58763000  0.23482650  0.32230600  1
  C  1545  1  0.57306800  0.20959500  0.29972600  1
  C  1547  1  0.50506600  0.26841500  0.28284700  1
  C  1549  1  0.56936100  0.74339700  0.17684100  1
  C  1550  1  0.57223300  0.73127500  0.16643300  1
  C  1551  1  0.55517200  0.71661200  0.17136850  1
  C  1552  1  0.53736600  0.71349750  0.18642550  1
  C  1553  1  0.53791400  0.72541100  0.19700200  1
  C  1555  1  0.55345900  0.74006100  0.19200400  1
  C  1557  1  0.52092600  0.72352300  0.21319950  1
  C  1561  1  0.59091100  0.73299000  0.15031300  1
  C  1565  1  0.57752500  0.75842900  0.17268650  1
  C  1567  1  0.50383800  0.70006650  0.18967100  1
  C  1569  1  0.59163600  0.74617400  0.80223850  1
  C  1570  1  0.59669100  0.73406900  0.81260600  1
  C  1571  1  0.57164700  0.71974650  0.80829100  1
  C  1572  1  0.54284600  0.71701600  0.79391900  1
  C  1573  1  0.54049000  0.72891450  0.78332900  1
  C  1575  1  0.56507200  0.74321600  0.78767100  1
  C  1577  1  0.51092400  0.72741200  0.76790300  1
  C  1581  1  0.62517900  0.73555750  0.82811550  1
  C  1585  1  0.60580600  0.76100600  0.80613700  1
  C  1587  1  0.50109900  0.70443850  0.79206500  1
  C  1589  1  0.57333600  0.22404150  0.67349600  1
  C  1590  1  0.57690400  0.23596600  0.66290100  1
  C  1591  1  0.55465200  0.25050200  0.66726500  1
  C  1592  1  0.53039400  0.25361300  0.68190700  1
  C  1593  1  0.52984900  0.24190450  0.69270350  1
  C  1595  1  0.55138300  0.22738300  0.68830100  1
  C  1597  1  0.50516600  0.24384150  0.70843200  1
  C  1601  1  0.60103700  0.23410100  0.64713000  1
  C  1605  1  0.58515000  0.20908000  0.66968600  1
  C  1607  1  0.49067700  0.26649100  0.68402100  1
  C  1609  1  0.16210900  0.74524400  0.67434400  1
  C  1610  1  0.15832500  0.73307500  0.66400900  1
  C  1611  1  0.17536700  0.71840200  0.66900000  1
  C  1612  1  0.19410700  0.71532150  0.68404100  1
  C  1613  1  0.19458700  0.72729950  0.69455100  1
  C  1615  1  0.17902900  0.74195900  0.68949550  1
  C  1617  1  0.21249100  0.72546600  0.71073700  1
  C  1621  1  0.13858000  0.73474300  0.64791100  1
  C  1625  1  0.15383800  0.76026550  0.67012550  1
  C  1627  1  0.22684700  0.70176600  0.68736750  1
  C  1629  1  0.16403100  0.22305200  0.79699050  1
  C  1630  1  0.16160400  0.23516000  0.80741950  1
  C  1631  1  0.17923700  0.24979900  0.80251300  1
  C  1632  1  0.19730500  0.25290300  0.78746900  1
  C  1633  1  0.19632900  0.24100950  0.77687000  1
  C  1635  1  0.18010200  0.22638000  0.78183550  1
  C  1637  1  0.21356600  0.24289600  0.76068600  1
  C  1641  1  0.14288200  0.23344600  0.82353800  1
  C  1645  1  0.15577100  0.20802950  0.80115600  1
  C  1647  1  0.23124900  0.26629900  0.78426950  1
  C  1649  1  0.13572400  0.41791100  0.49786200  1
  C  1650  1  0.13231400  0.40717050  0.48606200  1
  C  1651  1  0.15644000  0.41122350  0.47160250  1
  C  1652  1  0.18267800  0.42568600  0.46843850  1
  C  1653  1  0.18308000  0.43665000  0.47999950  1
  C  1655  1  0.15944200  0.43256750  0.49444200  1
  C  1657  1  0.20993500  0.45220750  0.47802650  1
  C  1661  1  0.10665500  0.39152750  0.48802200  1
  C  1665  1  0.12310400  0.41430000  0.51283350  1
  C  1667  1  0.22462600  0.42738950  0.45587450  1
  C  1669  1  0.15888500  0.54725350  0.97619100  1
  C  1670  1  0.15546500  0.55791600  0.98806300  1
  C  1671  1  0.17719500  0.55355100  0.00264300  1
  C  1672  1  0.20077200  0.53884700  0.00585400  1
  C  1673  1  0.20111500  0.52799350  0.99419750  1
  C  1675  1  0.18007200  0.53239050  0.97963300  1
  C  1677  1  0.22523200  0.51220400  0.99623500  1
  C  1681  1  0.13210400  0.57375900  0.98609500  1
  C  1685  1  0.14772600  0.55104200  0.96119400  1
  C  1687  1  0.24068900  0.53673000  0.01870800  1
  C  1689  1  0.57398400  0.42389400  0.97555000  1
  C  1690  1  0.57604000  0.41354800  0.98773550  1
  C  1691  1  0.55887400  0.41862200  0.00235400  1
  C  1692  1  0.54169600  0.43375150  0.00538100  1
  C  1693  1  0.54315300  0.44426150  0.99340600  1
  C  1695  1  0.55885500  0.43913400  0.97879700  1
  C  1697  1  0.52685100  0.46052700  0.99518350  1
  C  1701  1  0.59384000  0.39734650  0.98612500  1
  C  1705  1  0.58158800  0.41959300  0.96053600  1
  C  1707  1  0.50763600  0.43719200  0.01871500  1
  C  1709  1  0.56547800  0.54415800  0.49685800  1
  C  1710  1  0.56793300  0.55441200  0.48460200  1
  C  1711  1  0.55197900  0.54921300  0.46995000  1
  C  1712  1  0.53570000  0.53404550  0.46697500  1
  C  1713  1  0.53677000  0.52363000  0.47902950  1
  C  1715  1  0.55120200  0.52888500  0.49366300  1
  C  1717  1  0.52132600  0.50734150  0.47730100  1
  C  1721  1  0.58496400  0.57063450  0.48615700  1
  C  1725  1  0.57214000  0.54857200  0.51186800  1
  C  1727  1  0.50278900  0.53050100  0.45350500  1
  C  1729  1  0.91444600  0.97128700  0.06389600  1
  C  1730  1  0.87494500  0.97754200  0.07597400  1
  C  1731  1  0.83201800  0.99031800  0.07331900  1
  C  1732  1  0.82571600  0.99691200  0.05897900  1
  C  1733  1  0.86332700  0.99052100  0.04678600  1
  C  1735  1  0.90717000  0.97797700  0.04953100  1
  C  1737  1  0.86000000  0.99619700  0.03106650  1
  C  1741  1  0.87531200  0.97154000  0.09157100  1
  C  1745  1  0.96276400  0.95950700  0.06574800  1
  C  1747  1  0.78757700  0.01008050  0.05737800  1
  C  1749  1  0.90647900  0.99723100  0.40986950  1
  C  1750  1  0.87067000  0.98997700  0.39779850  1
  C  1751  1  0.82695100  0.97748700  0.40087400  1
  C  1752  1  0.81604500  0.97215800  0.41559650  1
  C  1753  1  0.84966200  0.97959500  0.42774450  1
  C  1755  1  0.89436900  0.99182650  0.42461100  1
  C  1757  1  0.84134800  0.97533800  0.44381600  1
  C  1761  1  0.87592200  0.99457900  0.38177500  1
  C  1765  1  0.95581200  0.00872800  0.40775900  1
  C  1767  1  0.77801900  0.95910300  0.41774200  1
  C  1769  1  0.91002200  0.15725200  0.22383400  1
  C  1770  1  0.87180800  0.14518300  0.23041650  1
  C  1771  1  0.82850200  0.14802550  0.24303750  1
  C  1772  1  0.82048400  0.16253450  0.24915700  1
  C  1773  1  0.85669400  0.17470750  0.24241650  1
  C  1775  1  0.90093700  0.17178500  0.23004000  1
  C  1777  1  0.85153500  0.19058950  0.24755300  1
  C  1781  1  0.87396500  0.12940200  0.22493300  1
  C  1785  1  0.95878100  0.15527400  0.21221000  1
  C  1787  1  0.78233600  0.16437050  0.26224900  1
  C  1789  1  0.91098900  0.81142250  0.25002200  1
  C  1790  1  0.86626400  0.82309300  0.24453700  1
  C  1791  1  0.82567100  0.82057900  0.23141000  1
  C  1792  1  0.82701600  0.80675500  0.22369000  1
  C  1793  1  0.87033200  0.79495800  0.22924550  1
  C  1795  1  0.91161700  0.79757700  0.24219050  1
  C  1797  1  0.87548300  0.77978350  0.22230700  1
  C  1801  1  0.85856600  0.83808100  0.25174700  1
  C  1805  1  0.95656000  0.81324900  0.26225100  1
  C  1807  1  0.78986000  0.80539400  0.21037900  1
  C  1809  1  0.82619300  0.99749900  0.92338650  1
  C  1810  1  0.84243400  0.98673000  0.91209400  1
  C  1811  1  0.89632400  0.97601700  0.91478650  1
  C  1812  1  0.93614300  0.97569700  0.92823450  1
  C  1813  1  0.92214900  0.98694600  0.93921200  1
  C  1815  1  0.86715000  0.99745500  0.93666400  1
  C  1817  1  0.96159000  0.98838700  0.95362200  1
  C  1821  1  0.80524000  0.98579300  0.89737550  1
  C  1825  1  0.76609200  0.00656300  0.92263600  1
  C  1827  1  0.98211600  0.96366500  0.93090300  1
  C  1829  1  0.81842600  0.97054900  0.54895000  1
  C  1830  1  0.83591900  0.98118600  0.56028150  1
  C  1831  1  0.89025700  0.99169700  0.55757400  1
  C  1832  1  0.92932200  0.99194900  0.54407400  1
  C  1833  1  0.91398500  0.98082650  0.53305050  1
  C  1835  1  0.85858000  0.97050800  0.53561800  1
  C  1837  1  0.95238700  0.97934500  0.51856900  1
  C  1841  1  0.79957900  0.98219900  0.57504600  1
  C  1845  1  0.75782600  0.96173600  0.54975100  1
  C  1847  1  0.97575200  0.00384400  0.54143300  1
  C  1849  1  0.82625800  0.81272000  0.74845800  1
  C  1850  1  0.86242700  0.82457900  0.74102900  1
  C  1851  1  0.90282300  0.82131350  0.72807400  1
  C  1852  1  0.90986200  0.80659600  0.72239800  1
  C  1853  1  0.87566000  0.79464850  0.72997300  1
  C  1855  1  0.83441200  0.79798100  0.74270100  1
  C  1857  1  0.87981900  0.77857900  0.72542300  1
  C  1861  1  0.86087400  0.84055250  0.74592800  1
  C  1865  1  0.77990800  0.81505700  0.76045600  1
  C  1867  1  0.94507400  0.80430600  0.70899600  1
  C  1869  1  0.81526800  0.15623500  0.72551450  1
  C  1870  1  0.85326600  0.14410400  0.73218300  1
  C  1871  1  0.89644000  0.14688500  0.74488150  1
  C  1872  1  0.90457400  0.16139400  0.75098200  1
  C  1873  1  0.86875900  0.17363100  0.74412800  1
  C  1875  1  0.82458500  0.17076900  0.73168450  1
  C  1877  1  0.87423900  0.18952400  0.74920600  1
  C  1881  1  0.85095800  0.12831900  0.72671950  1
  C  1885  1  0.76636600  0.15431750  0.71385700  1
  C  1887  1  0.94259300  0.16319700  0.76413350  1
  C  1889  1  0.90345200  0.47222100  0.56505400  1
  C  1890  1  0.86689500  0.47923900  0.57713400  1
  C  1891  1  0.82499600  0.49211300  0.57422500  1
  C  1892  1  0.81690000  0.49807800  0.55964850  1
  C  1893  1  0.85147000  0.49091100  0.54747300  1
  C  1895  1  0.89428700  0.47827000  0.55045600  1
  C  1897  1  0.84602700  0.49584000  0.53152650  1
  C  1901  1  0.86946300  0.47396200  0.59298250  1
  C  1905  1  0.95102300  0.46033650  0.56706950  1
  C  1907  1  0.78010800  0.51137200  0.55770600  1
  C  1909  1  0.91891200  0.49522900  0.90854900  1
  C  1910  1  0.88324600  0.48801050  0.89643600  1
  C  1911  1  0.84017600  0.47539700  0.89942450  1
  C  1912  1  0.82977800  0.46990600  0.91410400  1
  C  1913  1  0.86312700  0.47732400  0.92630050  1
  C  1915  1  0.90719600  0.48967900  0.92324900  1
  C  1917  1  0.85524200  0.47293100  0.94234700  1
  C  1921  1  0.88802800  0.49277600  0.88045350  1
  C  1925  1  0.96789600  0.50680550  0.90650900  1
  C  1927  1  0.79234000  0.45676150  0.91618050  1
  C  1929  1  0.90534100  0.67230500  0.72214700  1
  C  1930  1  0.88758500  0.66078400  0.73253100  1
  C  1931  1  0.83559000  0.66362150  0.74355400  1
  C  1932  1  0.79928600  0.67747500  0.74459000  1
  C  1933  1  0.81479800  0.68874100  0.73374850  1
  C  1935  1  0.86777400  0.68600800  0.72289250  1
  C  1937  1  0.77911500  0.70364300  0.73313250  1
  C  1941  1  0.92146600  0.64568100  0.73276200  1
  C  1945  1  0.96445800  0.67130750  0.71290050  1
  C  1947  1  0.75584200  0.68017850  0.75697350  1
  C  1949  1  0.91098700  0.29720100  0.74943700  1
  C  1950  1  0.89535700  0.30844250  0.73854900  1
  C  1951  1  0.84142800  0.30583000  0.72784000  1
  C  1952  1  0.80103300  0.29251350  0.72762800  1
  C  1953  1  0.81445300  0.28159800  0.73898700  1
  C  1955  1  0.86942900  0.28406600  0.74950300  1
  C  1957  1  0.77441200  0.26733100  0.74053350  1
  C  1961  1  0.93325100  0.32301850  0.73748300  1
  C  1965  1  0.97095800  0.29785200  0.75854900  1
  C  1967  1  0.75511500  0.28987600  0.71559000  1
  C  1969  1  0.82069100  0.49581300  0.42214900  1
  C  1970  1  0.83587100  0.48492800  0.41090050  1
  C  1971  1  0.88792600  0.47384700  0.41373100  1
  C  1972  1  0.92677000  0.47325600  0.42729350  1
  C  1973  1  0.91403200  0.48460950  0.43822650  1
  C  1975  1  0.86090600  0.49550300  0.43552700  1
  C  1977  1  0.95277700  0.48575100  0.45274750  1
  C  1981  1  0.79919800  0.48422650  0.39611100  1
  C  1985  1  0.76165400  0.50517400  0.42133150  1
  C  1987  1  0.97031400  0.46087750  0.43013550  1
  C  1989  1  0.82548800  0.47127600  0.05085450  1
  C  1990  1  0.84089000  0.48216850  0.06208300  1
  C  1991  1  0.89435800  0.49289300  0.05942200  1
  C  1992  1  0.93438900  0.49311000  0.04605900  1
  C  1993  1  0.92124000  0.48175300  0.03515400  1
  C  1995  1  0.86678200  0.47121150  0.03768100  1
  C  1997  1  0.96096800  0.48025350  0.02083500  1
  C  2001  1  0.80311200  0.48323900  0.07667500  1
  C  2005  1  0.76568500  0.46221250  0.05150800  1
  C  2007  1  0.97944300  0.50519200  0.04334000  1
  C  2009  1  0.82543600  0.29954000  0.24932300  1
  C  2010  1  0.84103800  0.31081600  0.23851550  1
  C  2011  1  0.89409500  0.30808350  0.22769850  1
  C  2012  1  0.93353200  0.29459350  0.22730050  1
  C  2013  1  0.92025700  0.28362900  0.23857900  1
  C  2015  1  0.86616700  0.28623100  0.24920750  1
  C  2017  1  0.95944200  0.26917200  0.23990500  1
  C  2021  1  0.80385700  0.32554150  0.23763150  1
  C  2025  1  0.76576300  0.30027800  0.25842700  1
  C  2027  1  0.97824700  0.29184600  0.21514900  1
  C  2029  1  0.82032000  0.66825950  0.22496950  1
  C  2030  1  0.83598700  0.65684800  0.23567500  1
  C  2031  1  0.88759800  0.65957500  0.24685800  1
  C  2032  1  0.92548500  0.67319350  0.24771900  1
  C  2033  1  0.91221400  0.68430700  0.23655500  1
  C  2035  1  0.85959000  0.68170050  0.22555000  1
  C  2037  1  0.94989500  0.69892550  0.23573200  1
  C  2041  1  0.80027500  0.64199200  0.23608750  1
  C  2045  1  0.76171700  0.66747850  0.21549300  1
  C  2047  1  0.96833800  0.67590700  0.26021100  1
  H  7  1  0.14146100  0.90603400  0.04213600  1
  H  16  1  0.00748500  0.90579300  0.08191600  1
  H  17  1  0.05457100  0.95491800  0.02628200  1
  H  18  1  0.18394900  0.88374600  0.11327300  1
  H  19  1  0.02903800  0.93095100  0.07446000  1
  H  20  1  0.21284900  0.90146600  0.06444300  1
  H  31  1  0.13615100  0.06221650  0.43064250  1
  H  40  1  0.00069400  0.06232000  0.39092700  1
  H  41  1  0.04800200  0.01370400  0.44696600  1
  H  42  1  0.17545000  0.08409600  0.35931150  1
  H  43  1  0.02252500  0.03720900  0.39851700  1
  H  44  1  0.20682600  0.06655700  0.40822100  1
  H  55  1  0.13723600  0.17854100  0.15872700  1
  H  64  1  0.00428000  0.13867800  0.15878300  1
  H  65  1  0.04951300  0.19482800  0.20731200  1
  H  66  1  0.18063100  0.10724000  0.13691300  1
  H  67  1  0.02625700  0.14630200  0.18389850  1
  H  68  1  0.20940700  0.15619700  0.15444150  1
  H  79  1  0.12826700  0.78915100  0.31667400  1
  H  88  1  0.99648300  0.82931550  0.31578900  1
  H  89  1  0.04790000  0.77314900  0.26739600  1
  H  90  1  0.17203600  0.86017500  0.33958200  1
  H  91  1  0.02158800  0.82168450  0.29074550  1
  H  92  1  0.20111900  0.81146600  0.32107800  1
  H  103  1  0.57401300  0.91058900  0.42987350  1
  H  112  1  0.71954500  0.91286600  0.39323600  1
  H  113  1  0.62537600  0.96246400  0.44405750  1
  H  114  1  0.63057500  0.86632150  0.38070650  1
  H  115  1  0.67199600  0.93752300  0.39712650  1
  H  116  1  0.50683600  0.90456700  0.40413250  1
  H  127  1  0.58304600  0.05835800  0.04345600  1
  H  136  1  0.72895000  0.05586300  0.07994700  1
  H  137  1  0.63506200  0.00658000  0.02889000  1
  H  138  1  0.63828300  0.10219550  0.09315100  1
  H  139  1  0.68051600  0.03111300  0.07625600  1
  H  140  1  0.51497100  0.06402250  0.06958300  1
  H  151  1  0.57905800  0.17784900  0.31051700  1
  H  160  1  0.72330400  0.14119600  0.30814400  1
  H  161  1  0.63140400  0.19225250  0.25874900  1
  H  162  1  0.63214200  0.12779300  0.35427800  1
  H  163  1  0.67428800  0.14482400  0.28330600  1
  H  164  1  0.50943500  0.15165600  0.31600750  1
  H  175  1  0.58733300  0.79005150  0.16181150  1
  H  184  1  0.73385000  0.82644200  0.16456500  1
  H  185  1  0.71697600  0.76988850  0.20317700  1
  H  186  1  0.64466900  0.83979050  0.11813850  1
  H  187  1  0.68475500  0.82260600  0.18921000  1
  H  188  1  0.52039900  0.81618150  0.15601550  1
  H  199  1  0.53575600  0.05110900  0.91927600  1
  H  208  1  0.72552200  0.05376850  0.88729700  1
  H  209  1  0.62574000  0.00758450  0.94157150  1
  H  210  1  0.57917400  0.08742700  0.85730200  1
  H  211  1  0.74870000  0.04294050  0.90855700  1
  H  212  1  0.54422300  0.07231850  0.90745300  1
  H  223  1  0.52509300  0.91808000  0.55361300  1
  H  232  1  0.71514200  0.91493200  0.58544300  1
  H  233  1  0.61558200  0.96132100  0.53125050  1
  H  234  1  0.56928000  0.88124300  0.61502100  1
  H  235  1  0.73938200  0.92526000  0.56387500  1
  H  236  1  0.53517700  0.89636650  0.56476200  1
  H  247  1  0.60557900  0.79258900  0.81483300  1
  H  256  1  0.73227800  0.83388600  0.81335450  1
  H  257  1  0.69248200  0.77547700  0.76658000  1
  H  258  1  0.54227900  0.86285300  0.83839500  1
  H  259  1  0.71410200  0.82453400  0.78879550  1
  H  260  1  0.53135400  0.81435200  0.81813200  1
  H  271  1  0.58391300  0.17755400  0.66068850  1
  H  280  1  0.72347500  0.13972300  0.65892750  1
  H  281  1  0.67440100  0.19393350  0.70909800  1
  H  282  1  0.55827200  0.10593250  0.63933800  1
  H  283  1  0.69942000  0.14541300  0.68537700  1
  H  284  1  0.51085500  0.15367500  0.65811050  1
  H  295  1  0.19127700  0.05389200  0.55332250  1
  H  304  1  0.99636700  0.05149800  0.58172400  1
  H  305  1  0.14539100  0.00475550  0.53239900  1
  H  306  1  0.07977200  0.09464650  0.60362300  1
  H  307  1  0.02695200  0.02868000  0.57229150  1
  H  308  1  0.21488900  0.05938100  0.57791900  1
  H  319  1  0.19864900  0.91342300  0.92146450  1
  H  328  1  0.00205700  0.91410000  0.89280000  1
  H  329  1  0.15388400  0.96384000  0.93909750  1
  H  330  1  0.09371400  0.86786500  0.87384800  1
  H  331  1  0.03156300  0.93729200  0.90127350  1
  H  332  1  0.22079600  0.90630700  0.89739600  1
  H  343  1  0.14319800  0.79178950  0.65910700  1
  H  352  1  0.00205700  0.83012700  0.66243800  1
  H  353  1  0.02031300  0.77120600  0.70034800  1
  H  354  1  0.08270800  0.83850100  0.61453450  1
  H  355  1  0.04889700  0.82476250  0.68654450  1
  H  356  1  0.21029200  0.81658350  0.65269600  1
  H  367  1  0.14731500  0.17671200  0.81233800  1
  H  376  1  0.00668200  0.13843800  0.80989600  1
  H  377  1  0.09457300  0.19037900  0.76035600  1
  H  378  1  0.09243000  0.13048900  0.85760600  1
  H  379  1  0.05018200  0.14354400  0.78563000  1
  H  380  1  0.21573700  0.15191600  0.81878500  1
  H  391  1  0.12580300  0.40594700  0.54447950  1
  H  400  1  0.00070300  0.40756200  0.58587300  1
  H  401  1  0.03545200  0.45398800  0.52716100  1
  H  402  1  0.19253300  0.38302900  0.61489700  1
  H  403  1  0.01797900  0.43216750  0.57648050  1
  H  404  1  0.20159600  0.40294400  0.56622700  1
  H  415  1  0.14912800  0.56005000  0.92962900  1
  H  424  1  0.00981200  0.56180800  0.89176900  1
  H  425  1  0.05933900  0.51169350  0.94602050  1
  H  426  1  0.17437000  0.58154700  0.85807000  1
  H  427  1  0.03459600  0.53535050  0.89744700  1
  H  428  1  0.22230700  0.56269500  0.90578700  1
  H  439  1  0.19208400  0.66774400  0.66816150  1
  H  448  1  0.00171200  0.63582550  0.66597050  1
  H  449  1  0.10427400  0.69042200  0.71161450  1
  H  450  1  0.14631900  0.60540650  0.63249550  1
  H  451  1  0.97962200  0.65713900  0.67676550  1
  H  452  1  0.18264800  0.65565150  0.64715450  1
  H  463  1  0.20014600  0.30050500  0.80351100  1
  H  472  1  0.01081900  0.33322200  0.80604600  1
  H  473  1  0.10972100  0.27821800  0.76006100  1
  H  474  1  0.15891100  0.36345650  0.83888400  1
  H  475  1  0.98880400  0.31240750  0.79466800  1
  H  476  1  0.19439800  0.31324950  0.82406100  1
  H  487  1  0.58927200  0.40827950  0.92911700  1
  H  496  1  0.72946100  0.41055150  0.89085350  1
  H  497  1  0.64115500  0.46029450  0.94255900  1
  H  498  1  0.64382600  0.36295400  0.88283300  1
  H  499  1  0.68526500  0.43489550  0.89582400  1
  H  500  1  0.52021800  0.40194300  0.90419850  1
  H  511  1  0.57912200  0.56010400  0.54328500  1
  H  520  1  0.71827200  0.55772100  0.58182100  1
  H  521  1  0.62934200  0.50786600  0.53022650  1
  H  522  1  0.63311400  0.60554400  0.58934900  1
  H  523  1  0.67298600  0.53338800  0.57700900  1
  H  524  1  0.50920100  0.56663500  0.56809650  1
  H  535  1  0.54407800  0.66916100  0.80788750  1
  H  544  1  0.73534400  0.63992250  0.80421000  1
  H  545  1  0.64393400  0.70261200  0.77106500  1
  H  546  1  0.65271200  0.61779500  0.84729650  1
  H  547  1  0.70192400  0.64942550  0.78129950  1
  H  548  1  0.51741600  0.64432000  0.81260700  1
  H  559  1  0.53808500  0.29955350  0.66538800  1
  H  568  1  0.73394200  0.32817650  0.66606750  1
  H  569  1  0.58395100  0.28176650  0.71574000  1
  H  570  1  0.64141600  0.34729350  0.61992750  1
  H  571  1  0.70499300  0.31959250  0.68923250  1
  H  572  1  0.51527700  0.32362900  0.65832900  1
  H  583  1  0.53178900  0.54944350  0.41916650  1
  H  592  1  0.71612500  0.55175900  0.38558150  1
  H  593  1  0.62683600  0.50659350  0.44176050  1
  H  594  1  0.55647900  0.58379500  0.35603550  1
  H  595  1  0.74256500  0.54103700  0.40686350  1
  H  596  1  0.53805300  0.57035600  0.40698450  1
  H  607  1  0.53462600  0.41827450  0.05324200  1
  H  616  1  0.71983200  0.41512100  0.08705800  1
  H  617  1  0.63065200  0.46095500  0.03084400  1
  H  618  1  0.56549900  0.38298400  0.11632800  1
  H  619  1  0.74484600  0.42645350  0.06625100  1
  H  620  1  0.53799800  0.39781950  0.06596900  1
  H  631  1  0.53421400  0.30270700  0.30206200  1
  H  640  1  0.71865500  0.33620050  0.30476700  1
  H  641  1  0.63012700  0.28003000  0.25947100  1
  H  642  1  0.55928400  0.36578200  0.33663200  1
  H  643  1  0.74544700  0.31484600  0.29426200  1
  H  644  1  0.54013900  0.31488100  0.32302700  1
  H  655  1  0.53462900  0.66595500  0.17044500  1
  H  664  1  0.72247200  0.63280150  0.16755700  1
  H  665  1  0.62588200  0.68787900  0.21396700  1
  H  666  1  0.57212400  0.60368200  0.13401000  1
  H  667  1  0.74512200  0.65348650  0.17941450  1
  H  668  1  0.54048400  0.65365200  0.14980200  1
  H  679  1  0.19486000  0.55538400  0.05181700  1
  H  688  1  0.00914300  0.55281150  0.08431800  1
  H  689  1  0.14880700  0.50500750  0.03425900  1
  H  690  1  0.08334400  0.59989600  0.09607600  1
  H  691  1  0.03352400  0.53107250  0.07309800  1
  H  692  1  0.22183700  0.56297650  0.07495600  1
  H  703  1  0.18077100  0.40934900  0.42208850  1
  H  712  1  0.99304700  0.41216300  0.39058000  1
  H  713  1  0.13879500  0.45984550  0.43996200  1
  H  714  1  0.07827100  0.36449600  0.37433700  1
  H  715  1  0.02254800  0.43466750  0.40048150  1
  H  716  1  0.20800800  0.40242050  0.39832400  1
  H  727  1  0.19244800  0.30017500  0.16471300  1
  H  736  1  0.00694200  0.33282800  0.16757700  1
  H  737  1  0.14729200  0.28231600  0.21499400  1
  H  738  1  0.08095200  0.34491700  0.12058250  1
  H  739  1  0.03224200  0.32166300  0.18936800  1
  H  740  1  0.21976600  0.32340000  0.15733000  1
  H  751  1  0.18042000  0.66807950  0.31140500  1
  H  760  1  0.98992300  0.63723600  0.30928800  1
  H  761  1  0.08740600  0.69828900  0.27136500  1
  H  762  1  0.07282700  0.62167600  0.35739650  1
  H  763  1  0.01954400  0.64680100  0.28674500  1
  H  764  1  0.20477300  0.64461900  0.31919950  1
  H  774  1  0.87667000  0.85159100  0.14728350  1
  H  776  1  0.89279100  0.89213500  0.11147800  1
  H  778  1  0.73156300  0.89313200  0.12904950  1
  H  779  1  0.72536400  0.88116800  0.11314150  1
  H  780  1  0.77418900  0.89789800  0.11223000  1
  H  782  1  0.04834000  0.86351850  0.14448900  1
  H  783  1  0.03298000  0.84931500  0.13086500  1
  H  784  1  0.99646400  0.84783750  0.14891900  1
  H  786  1  0.05720600  0.87225900  0.11833550  1
  H  788  1  0.70711100  0.86677050  0.13562100  1
  H  794  1  0.86562500  0.11607800  0.32536550  1
  H  796  1  0.88469000  0.07572600  0.36137000  1
  H  798  1  0.72260600  0.07465200  0.34396900  1
  H  799  1  0.71682100  0.08671800  0.35980400  1
  H  800  1  0.76617200  0.06999100  0.36078400  1
  H  802  1  0.03772700  0.10413700  0.32803800  1
  H  803  1  0.02272800  0.11841600  0.34160250  1
  H  804  1  0.98520400  0.11980350  0.32358000  1
  H  806  1  0.04823300  0.09552600  0.35421550  1
  H  808  1  0.69705000  0.10096700  0.33722300  1
  H  814  1  0.87164400  0.07308800  0.10506700  1
  H  816  1  0.88954800  0.10915600  0.14536350  1
  H  818  1  0.72782000  0.09183400  0.14639800  1
  H  819  1  0.72186600  0.10764800  0.13429750  1
  H  820  1  0.77101700  0.10863600  0.15104600  1
  H  822  1  0.04360100  0.07571400  0.11707350  1
  H  823  1  0.02845000  0.08927700  0.10278100  1
  H  824  1  0.99132600  0.07126850  0.10138500  1
  H  826  1  0.05353900  0.10189600  0.12568600  1
  H  828  1  0.70270100  0.08504400  0.12010500  1
  H  834  1  0.86144400  0.89583000  0.36802100  1
  H  836  1  0.88031600  0.85864800  0.32877550  1
  H  838  1  0.71703000  0.87552850  0.32742800  1
  H  839  1  0.71313000  0.86005450  0.33998400  1
  H  840  1  0.76144600  0.85871300  0.32321100  1
  H  842  1  0.03290800  0.89337400  0.35586950  1
  H  843  1  0.01988800  0.88013400  0.37051800  1
  H  844  1  0.98114200  0.89806300  0.37151300  1
  H  846  1  0.04508200  0.86711900  0.34779700  1
  H  848  1  0.69275800  0.88301600  0.35354000  1
  H  854  1  0.87679800  0.10803900  0.82326500  1
  H  856  1  0.86475500  0.06960400  0.86138400  1
  H  858  1  0.03681100  0.07483300  0.85077600  1
  H  859  1  0.01697400  0.08780400  0.86533050  1
  H  860  1  0.98431400  0.06936150  0.86603100  1
  H  862  1  0.72008700  0.08858400  0.82021400  1
  H  863  1  0.70959200  0.10394900  0.83274200  1
  H  864  1  0.76001500  0.10591700  0.81632350  1
  H  866  1  0.69432800  0.08118550  0.84644150  1
  H  868  1  0.04313900  0.10083600  0.84225750  1
  H  874  1  0.86922900  0.86044100  0.64928450  1
  H  876  1  0.85437000  0.89929400  0.61160000  1
  H  878  1  0.02684600  0.89426000  0.62241300  1
  H  879  1  0.00785900  0.88147500  0.60764000  1
  H  880  1  0.97394200  0.89986900  0.60717300  1
  H  882  1  0.71096000  0.87953200  0.65230250  1
  H  883  1  0.70181500  0.86426600  0.63960800  1
  H  884  1  0.75229800  0.86225850  0.65609050  1
  H  886  1  0.68487400  0.88711400  0.62610900  1
  H  888  1  0.03488600  0.86809000  0.63048450  1
  H  894  1  0.79261200  0.90840700  0.86444900  1
  H  896  1  0.83648600  0.86302500  0.83636600  1
  H  898  1  0.99255400  0.87830300  0.84632100  1
  H  899  1  0.96436000  0.86661350  0.86146400  1
  H  900  1  0.95164200  0.86107450  0.84279000  1
  H  902  1  0.66178200  0.90316300  0.83827950  1
  H  903  1  0.63801500  0.89343300  0.85491800  1
  H  904  1  0.67845300  0.91114100  0.85597500  1
  H  906  1  0.65473600  0.87558400  0.83510650  1
  H  908  1  0.90409800  0.90817500  0.87552800  1
  H  914  1  0.84614000  0.07418600  0.60209500  1
  H  916  1  0.82622400  0.10469250  0.64670000  1
  H  918  1  0.95607500  0.07810350  0.65152700  1
  H  919  1  0.99390400  0.09425900  0.64310200  1
  H  920  1  0.92995500  0.09616100  0.65723550  1
  H  922  1  0.67552900  0.08570550  0.60650000  1
  H  923  1  0.72005800  0.09994100  0.59629750  1
  H  924  1  0.73748200  0.08089000  0.59267000  1
  H  926  1  0.68185100  0.10946700  0.62019400  1
  H  928  1  0.00254800  0.07380950  0.62587050  1
  H  934  1  0.94248400  0.35656200  0.66041900  1
  H  936  1  0.89785900  0.38461550  0.61501600  1
  H  938  1  0.74210400  0.37467300  0.63025550  1
  H  939  1  0.77073700  0.35948750  0.61861700  1
  H  940  1  0.78298200  0.37814100  0.61302250  1
  H  942  1  0.07240600  0.38275900  0.65519750  1
  H  943  1  0.09683900  0.36612600  0.64547650  1
  H  944  1  0.05634100  0.36505900  0.66317300  1
  H  946  1  0.07949000  0.38593300  0.62762100  1
  H  948  1  0.83136900  0.34546400  0.66016950  1
  H  954  1  0.88559900  0.61918500  0.82664500  1
  H  956  1  0.90627400  0.57432850  0.85679800  1
  H  958  1  0.77620400  0.56983200  0.83021300  1
  H  959  1  0.73847100  0.57814500  0.84646150  1
  H  960  1  0.80260600  0.56394100  0.84820600  1
  H  962  1  0.05632100  0.61456900  0.83809500  1
  H  963  1  0.01167400  0.62469400  0.85241200  1
  H  964  1  0.99414600  0.62847600  0.83339150  1
  H  966  1  0.05020800  0.60071400  0.86175700  1
  H  968  1  0.72930000  0.59559150  0.82620000  1
  H  974  1  0.84875300  0.57128500  0.61224900  1
  H  976  1  0.86149900  0.60973600  0.65035800  1
  H  978  1  0.68932300  0.59908950  0.64510750  1
  H  979  1  0.70899100  0.61354100  0.63203700  1
  H  980  1  0.74193000  0.61438300  0.65049550  1
  H  982  1  0.00572500  0.56837200  0.63184900  1
  H  983  1  0.01605200  0.58076400  0.61638100  1
  H  984  1  0.96553300  0.56433800  0.61452150  1
  H  986  1  0.03169500  0.59465050  0.63904600  1
  H  988  1  0.68260200  0.59037600  0.61916100  1
  H  994  1  0.85929100  0.39719900  0.86038900  1
  H  996  1  0.87202600  0.35917300  0.82185550  1
  H  998  1  0.69973400  0.36972000  0.82723150  1
  H  999  1  0.72020600  0.35515400  0.84017800  1
  H  1000  1  0.75265200  0.35447400  0.82171600  1
  H  1002  1  0.01547100  0.40036050  0.84081300  1
  H  1003  1  0.02679800  0.38778950  0.85613000  1
  H  1004  1  0.97576000  0.40417850  0.85819600  1
  H  1006  1  0.04200100  0.37420500  0.83329000  1
  H  1008  1  0.69344800  0.37823200  0.85322950  1
  H  1014  1  0.79330900  0.60450800  0.31215350  1
  H  1016  1  0.83824700  0.57642600  0.35750650  1
  H  1018  1  0.99254400  0.59052450  0.34457800  1
  H  1019  1  0.95209400  0.60433450  0.35632500  1
  H  1020  1  0.94897600  0.58525750  0.36104100  1
  H  1022  1  0.67433300  0.57549400  0.31552500  1
  H  1023  1  0.64075200  0.59173400  0.32466200  1
  H  1024  1  0.68598400  0.59334650  0.30753750  1
  H  1026  1  0.65917400  0.57317700  0.34344200  1
  H  1028  1  0.89816000  0.61797600  0.31405800  1
  H  1034  1  0.86302400  0.36259400  0.15376350  1
  H  1036  1  0.85178900  0.40133200  0.11587000  1
  H  1038  1  0.01978500  0.39908600  0.13023200  1
  H  1039  1  0.01225200  0.38600600  0.11525300  1
  H  1040  1  0.97228300  0.40380100  0.11392800  1
  H  1042  1  0.69848500  0.37916400  0.15373600  1
  H  1043  1  0.69926500  0.36411100  0.14064350  1
  H  1044  1  0.74318100  0.36238200  0.15798150  1
  H  1046  1  0.68115800  0.38735000  0.12765800  1
  H  1048  1  0.03320200  0.37323750  0.13872150  1
  H  1054  1  0.79681900  0.40957500  0.35756300  1
  H  1056  1  0.84124200  0.36430100  0.32937750  1
  H  1058  1  0.99589300  0.37727850  0.34346300  1
  H  1059  1  0.95613600  0.36548950  0.35726950  1
  H  1060  1  0.95232600  0.36079850  0.33818600  1
  H  1062  1  0.67706700  0.40624100  0.32852000  1
  H  1063  1  0.64399200  0.39707250  0.34474400  1
  H  1064  1  0.68920700  0.41420350  0.34638550  1
  H  1066  1  0.66198000  0.37833600  0.32615150  1
  H  1068  1  0.90180800  0.40760650  0.37110300  1
  H  1074  1  0.86645400  0.56659450  0.11432000  1
  H  1076  1  0.85719900  0.60444650  0.15310800  1
  H  1078  1  0.02550200  0.59041000  0.15040450  1
  H  1079  1  0.01625500  0.60535600  0.13732500  1
  H  1080  1  0.97779900  0.60663900  0.15522000  1
  H  1082  1  0.70346900  0.56630000  0.13135050  1
  H  1083  1  0.70231400  0.57941100  0.11631350  1
  H  1084  1  0.74677500  0.56215750  0.11443900  1
  H  1086  1  0.68575100  0.59234000  0.13961750  1
  H  1088  1  0.03697000  0.58187700  0.12457000  1
  H  1094  1  0.38602200  0.83288500  0.11808700  1
  H  1096  1  0.37561400  0.88209400  0.09527400  1
  H  1098  1  0.53672200  0.87669800  0.11121400  1
  H  1099  1  0.48078700  0.88378300  0.12556100  1
  H  1100  1  0.47455300  0.89079700  0.10717500  1
  H  1102  1  0.27489200  0.83267600  0.08729000  1
  H  1103  1  0.22555600  0.83769300  0.10347000  1
  H  1104  1  0.29114500  0.82373300  0.10455200  1
  H  1106  1  0.22301200  0.85901700  0.08765100  1
  H  1108  1  0.51953900  0.85894600  0.13128100  1
  H  1114  1  0.37542600  0.13495400  0.35410700  1
  H  1116  1  0.36660100  0.08558400  0.37655800  1
  H  1118  1  0.52587800  0.09069800  0.36010450  1
  H  1119  1  0.46841200  0.08395850  0.34582550  1
  H  1120  1  0.46364800  0.07671650  0.36413100  1
  H  1122  1  0.26767200  0.13515300  0.38527750  1
  H  1123  1  0.21640400  0.13035200  0.36925700  1
  H  1124  1  0.28207600  0.14418350  0.36801700  1
  H  1126  1  0.21528200  0.10890500  0.38490650  1
  H  1128  1  0.50775900  0.10878450  0.34039500  1
  H  1134  1  0.38056800  0.10211350  0.08614700  1
  H  1136  1  0.37120900  0.12486400  0.13538150  1
  H  1138  1  0.53154800  0.10863600  0.13020500  1
  H  1139  1  0.47509100  0.09433950  0.13712600  1
  H  1140  1  0.46941800  0.11269850  0.14422100  1
  H  1142  1  0.27071100  0.13310700  0.08584600  1
  H  1143  1  0.22067200  0.11702500  0.09079100  1
  H  1144  1  0.28615300  0.11582050  0.07690800  1
  H  1146  1  0.21887700  0.13280650  0.11214000  1
  H  1148  1  0.51406000  0.08873100  0.11230900  1
  H  1154  1  0.37334900  0.86621000  0.38850850  1
  H  1156  1  0.36104000  0.84258200  0.33971750  1
  H  1158  1  0.52086600  0.85906500  0.34419000  1
  H  1159  1  0.46306300  0.87317750  0.33715500  1
  H  1160  1  0.45776800  0.85468850  0.33040700  1
  H  1162  1  0.26513800  0.83512100  0.38963100  1
  H  1163  1  0.21385100  0.85106800  0.38453550  1
  H  1164  1  0.28045400  0.85257500  0.39822850  1
  H  1166  1  0.21096200  0.83491200  0.36345550  1
  H  1168  1  0.50376000  0.87928450  0.36175750  1
  H  1174  1  0.36965600  0.13680000  0.85195700  1
  H  1176  1  0.38640700  0.09117800  0.88115100  1
  H  1178  1  0.21419400  0.09842600  0.87222400  1
  H  1179  1  0.25182400  0.08766650  0.85745400  1
  H  1180  1  0.27329900  0.08374200  0.87624500  1
  H  1182  1  0.51231100  0.13825600  0.87621300  1
  H  1183  1  0.53959400  0.12992050  0.85905750  1
  H  1184  1  0.48058100  0.14519400  0.85898350  1
  H  1186  1  0.55213700  0.11093150  0.87768200  1
  H  1188  1  0.22075700  0.11157950  0.84826250  1
  H  1194  1  0.36165700  0.83178900  0.61982550  1
  H  1196  1  0.37699500  0.87728250  0.59045200  1
  H  1198  1  0.20475700  0.86987600  0.59897500  1
  H  1199  1  0.24155900  0.88081100  0.61372200  1
  H  1200  1  0.26316000  0.88458100  0.59494000  1
  H  1202  1  0.50512400  0.83035650  0.59594950  1
  H  1203  1  0.53134100  0.83875800  0.61316750  1
  H  1204  1  0.47307700  0.82343400  0.61309700  1
  H  1206  1  0.54361200  0.85768900  0.59451850  1
  H  1208  1  0.21189000  0.85698800  0.62315650  1
  H  1214  1  0.34381600  0.86915600  0.88311800  1
  H  1216  1  0.36179000  0.84362900  0.83541200  1
  H  1218  1  0.19773100  0.85856900  0.83908200  1
  H  1219  1  0.25160000  0.87303900  0.83161200  1
  H  1220  1  0.26192900  0.85440350  0.82551700  1
  H  1222  1  0.45908900  0.83922400  0.88575650  1
  H  1223  1  0.50648900  0.85541500  0.88004350  1
  H  1224  1  0.43946300  0.85686100  0.89356600  1
  H  1226  1  0.51315400  0.83829700  0.85981500  1
  H  1228  1  0.20813200  0.87951650  0.85612250  1
  H  1234  1  0.33098300  0.09660600  0.59339450  1
  H  1236  1  0.35128800  0.12095600  0.64168800  1
  H  1238  1  0.19254100  0.10361900  0.63904700  1
  H  1239  1  0.25300900  0.08973700  0.64549150  1
  H  1240  1  0.25837600  0.10826500  0.65215550  1
  H  1242  1  0.43304000  0.12835200  0.59051700  1
  H  1243  1  0.48847300  0.11296700  0.59538800  1
  H  1244  1  0.41910900  0.11059250  0.58247050  1
  H  1246  1  0.49193100  0.13001000  0.61573400  1
  H  1248  1  0.20544100  0.08345550  0.62113600  1
  H  1254  1  0.39182800  0.33803250  0.62115650  1
  H  1256  1  0.37241000  0.38583750  0.59581200  1
  H  1258  1  0.53642500  0.38215700  0.61082600  1
  H  1259  1  0.48213500  0.38953400  0.62530900  1
  H  1260  1  0.47174600  0.39572000  0.60670100  1
  H  1262  1  0.27705400  0.33548150  0.59114800  1
  H  1263  1  0.22921800  0.34111550  0.60733250  1
  H  1264  1  0.29672400  0.32761000  0.60876700  1
  H  1266  1  0.22204200  0.36140700  0.59029800  1
  H  1268  1  0.52656700  0.36499750  0.63166900  1
  H  1274  1  0.40018400  0.62815400  0.84946600  1
  H  1276  1  0.38152800  0.57951100  0.87312300  1
  H  1278  1  0.54062200  0.58253550  0.85599000  1
  H  1279  1  0.48070800  0.57619200  0.84199050  1
  H  1280  1  0.47539400  0.56931100  0.86043700  1
  H  1282  1  0.29697700  0.63048800  0.88111000  1
  H  1283  1  0.24227600  0.62578900  0.86557700  1
  H  1284  1  0.31106700  0.63880050  0.86348650  1
  H  1286  1  0.23923500  0.60518500  0.88230800  1
  H  1288  1  0.52681000  0.60063100  0.83597700  1
  H  1294  1  0.35511300  0.59973050  0.58307700  1
  H  1296  1  0.33957500  0.62927450  0.62847050  1
  H  1298  1  0.51172600  0.62050300  0.62117200  1
  H  1299  1  0.47496000  0.60578950  0.63209000  1
  H  1300  1  0.45317800  0.62459000  0.63585700  1
  H  1302  1  0.21170400  0.62378650  0.58152100  1
  H  1303  1  0.18527200  0.60667100  0.59002400  1
  H  1304  1  0.24358700  0.60653650  0.57470950  1
  H  1306  1  0.17307400  0.62546300  0.60885000  1
  H  1308  1  0.50510200  0.59640050  0.60825200  1
  H  1314  1  0.36681000  0.36869600  0.88876500  1
  H  1316  1  0.35210100  0.33990800  0.84286600  1
  H  1318  1  0.52371900  0.34895350  0.85026400  1
  H  1319  1  0.48549700  0.36381350  0.83965400  1
  H  1320  1  0.46495800  0.34505250  0.83550800  1
  H  1322  1  0.22563500  0.34424700  0.88994800  1
  H  1323  1  0.19732000  0.36143300  0.88175050  1
  H  1324  1  0.25622700  0.36146200  0.89704150  1
  H  1326  1  0.18611400  0.34293100  0.86262750  1
  H  1328  1  0.51597200  0.37273350  0.86369550  1
  H  1334  1  0.34467000  0.63122500  0.35062200  1
  H  1336  1  0.37139900  0.58787150  0.38276200  1
  H  1338  1  0.19653800  0.59440800  0.37575600  1
  H  1339  1  0.22979400  0.58271500  0.36122300  1
  H  1340  1  0.25713800  0.58002850  0.37989700  1
  H  1342  1  0.49380700  0.63458200  0.37278600  1
  H  1343  1  0.51618400  0.62511950  0.35589150  1
  H  1344  1  0.45659100  0.64028700  0.35560200  1
  H  1346  1  0.53499000  0.60755250  0.37557800  1
  H  1348  1  0.19436500  0.60611900  0.35095700  1
  H  1354  1  0.35616700  0.33656600  0.12345850  1
  H  1356  1  0.37610500  0.38098400  0.09264700  1
  H  1358  1  0.20464600  0.37597900  0.10312200  1
  H  1359  1  0.24714900  0.38660000  0.11739700  1
  H  1360  1  0.26596500  0.38992400  0.09838800  1
  H  1362  1  0.49261700  0.33267800  0.09808400  1
  H  1363  1  0.52526700  0.34114300  0.11476600  1
  H  1364  1  0.46292500  0.32660300  0.11573600  1
  H  1366  1  0.53804000  0.35940900  0.09557900  1
  H  1368  1  0.21145200  0.36308200  0.12724450  1
  H  1374  1  0.34923000  0.37109500  0.38428500  1
  H  1376  1  0.37410700  0.33979700  0.34030300  1
  H  1378  1  0.19975700  0.34724400  0.34666300  1
  H  1379  1  0.23413100  0.36192450  0.33535200  1
  H  1380  1  0.26021000  0.34323100  0.33230200  1
  H  1382  1  0.49685200  0.34841850  0.38740800  1
  H  1383  1  0.52050400  0.36542100  0.37832000  1
  H  1384  1  0.46084500  0.36560600  0.39339600  1
  H  1386  1  0.53803400  0.34606400  0.36035700  1
  H  1388  1  0.19922400  0.37178650  0.35890300  1
  H  1394  1  0.35903800  0.59667500  0.08808000  1
  H  1396  1  0.38034700  0.62762750  0.13239500  1
  H  1398  1  0.20833300  0.61756700  0.12713350  1
  H  1399  1  0.25000000  0.60325600  0.13791200  1
  H  1400  1  0.26978800  0.62223700  0.14115700  1
  H  1402  1  0.49690900  0.62168850  0.08430500  1
  H  1403  1  0.52858800  0.60496850  0.09290500  1
  H  1404  1  0.46630300  0.60408300  0.07826300  1
  H  1406  1  0.54226800  0.62425900  0.11107500  1
  H  1408  1  0.21406700  0.59334250  0.11440000  1
  H  1414  1  0.18335900  0.90678700  0.96118100  1
  H  1416  1  0.18244200  0.94238400  0.00211900  1
  H  1418  1  0.24304600  0.95858300  0.96645600  1
  H  1419  1  0.27371600  0.95724500  0.98511750  1
  H  1420  1  0.18605800  0.96313000  0.98128300  1
  H  1422  1  0.11060000  0.89116600  0.99619400  1
  H  1423  1  0.17614500  0.88632350  0.98303850  1
  H  1424  1  0.09068600  0.89177200  0.97696500  1
  H  1426  1  0.16558200  0.90649450  0.01500700  1
  H  1428  1  0.29711300  0.93260600  0.95626450  1
  H  1434  1  0.17292700  0.06197000  0.51197600  1
  H  1436  1  0.17793700  0.02631400  0.47110400  1
  H  1438  1  0.23755500  0.01034950  0.50708000  1
  H  1439  1  0.26923200  0.01172700  0.48854600  1
  H  1440  1  0.18191400  0.00559400  0.49202850  1
  H  1442  1  0.10220900  0.07741400  0.47656200  1
  H  1443  1  0.16612500  0.08237600  0.49008450  1
  H  1444  1  0.08047800  0.07678900  0.49567250  1
  H  1446  1  0.15942100  0.06208400  0.45801300  1
  H  1448  1  0.28874700  0.03688550  0.51735700  1
  H  1454  1  0.17405900  0.25957400  0.15811300  1
  H  1456  1  0.17548800  0.21935650  0.19451550  1
  H  1458  1  0.23465700  0.25547050  0.21002800  1
  H  1459  1  0.26611700  0.23684650  0.20907900  1
  H  1460  1  0.17842300  0.24062400  0.21485800  1
  H  1462  1  0.10301500  0.22409700  0.14311600  1
  H  1463  1  0.16795900  0.23728900  0.13809600  1
  H  1464  1  0.08222100  0.24329000  0.14330050  1
  H  1466  1  0.15945800  0.20576250  0.15881050  1
  H  1468  1  0.28857400  0.26500100  0.18356250  1
  H  1474  1  0.16443300  0.70800800  0.31717800  1
  H  1476  1  0.17048100  0.74842500  0.28102000  1
  H  1478  1  0.22973400  0.71222800  0.26561600  1
  H  1479  1  0.26210700  0.73072550  0.26686750  1
  H  1480  1  0.17475900  0.72732000  0.26059300  1
  H  1482  1  0.09276000  0.74357750  0.33195400  1
  H  1483  1  0.15678900  0.73018600  0.33728650  1
  H  1484  1  0.07146900  0.72444100  0.33151800  1
  H  1486  1  0.15037600  0.76190000  0.31666950  1
  H  1488  1  0.28052400  0.70223050  0.29195400  1
  H  1494  1  0.54050600  0.91203800  0.51150950  1
  H  1496  1  0.53562900  0.94834300  0.47123400  1
  H  1498  1  0.49739000  0.96483500  0.50812100  1
  H  1499  1  0.45724100  0.96434700  0.49023550  1
  H  1500  1  0.54815600  0.96858000  0.49213000  1
  H  1502  1  0.59610100  0.89611250  0.47521700  1
  H  1503  1  0.53399100  0.89189100  0.48927600  1
  H  1504  1  0.62245800  0.89617500  0.49408850  1
  H  1506  1  0.54345200  0.91206000  0.45743800  1
  H  1508  1  0.44096400  0.94128600  0.51933100  1
  H  1514  1  0.55162100  0.05729650  0.96161800  1
  H  1516  1  0.54754800  0.02081000  0.00171500  1
  H  1518  1  0.51033500  0.00449800  0.96467000  1
  H  1519  1  0.46994500  0.00489500  0.98248100  1
  H  1520  1  0.56100500  0.00066350  0.98074200  1
  H  1522  1  0.60629800  0.07307200  0.99807500  1
  H  1523  1  0.54411000  0.07733600  0.98393200  1
  H  1524  1  0.63277200  0.07310550  0.97924900  1
  H  1526  1  0.55385200  0.05710650  0.01566500  1
  H  1528  1  0.45232400  0.02831800  0.95364100  1
  H  1534  1  0.55237600  0.25998250  0.30901450  1
  H  1536  1  0.54873900  0.21972700  0.27271100  1
  H  1538  1  0.51530300  0.25677500  0.25603500  1
  H  1539  1  0.47356900  0.23910300  0.25634700  1
  H  1540  1  0.56504100  0.24051450  0.25252950  1
  H  1542  1  0.60377700  0.22347200  0.32523100  1
  H  1543  1  0.54192400  0.23776850  0.32911400  1
  H  1544  1  0.63114400  0.24223650  0.32531900  1
  H  1546  1  0.55161800  0.20594500  0.30917300  1
  H  1548  1  0.45509000  0.26785150  0.27957750  1
  H  1554  1  0.55289100  0.70810700  0.16363400  1
  H  1556  1  0.55058800  0.74863000  0.19965350  1
  H  1558  1  0.51312700  0.71186800  0.21643900  1
  H  1559  1  0.47297800  0.72975450  0.21586900  1
  H  1560  1  0.56410300  0.72788300  0.22003200  1
  H  1562  1  0.60801900  0.74424700  0.14737150  1
  H  1563  1  0.54540900  0.73020500  0.14334100  1
  H  1564  1  0.63406300  0.72535950  0.14753150  1
  H  1566  1  0.55682100  0.76217300  0.16316100  1
  H  1568  1  0.45368900  0.70083200  0.19271700  1
  H  1574  1  0.57110800  0.71130150  0.81610850  1
  H  1576  1  0.56011200  0.75187900  0.78016700  1
  H  1578  1  0.49540900  0.71598700  0.76513850  1
  H  1579  1  0.46465500  0.73462300  0.76670500  1
  H  1580  1  0.55035400  0.73084450  0.75971000  1
  H  1582  1  0.64686800  0.74659900  0.83048500  1
  H  1583  1  0.58344500  0.73336500  0.83621350  1
  H  1584  1  0.66747800  0.72740200  0.82984500  1
  H  1586  1  0.58618900  0.76519300  0.81556150  1
  H  1588  1  0.44941100  0.70615750  0.79228150  1
  H  1594  1  0.55278800  0.25883350  0.65933100  1
  H  1596  1  0.54773400  0.21887000  0.69599700  1
  H  1598  1  0.49179500  0.25540700  0.71118200  1
  H  1599  1  0.45855300  0.23696050  0.71031550  1
  H  1600  1  0.54659200  0.24027600  0.71618800  1
  H  1602  1  0.62111400  0.22291500  0.64469500  1
  H  1603  1  0.55738500  0.23641000  0.63946100  1
  H  1604  1  0.64351200  0.24199700  0.64482250  1
  H  1606  1  0.56393200  0.20493600  0.66038550  1
  H  1608  1  0.43890600  0.26510500  0.68469100  1
  H  1614  1  0.17678400  0.70984000  0.66131850  1
  H  1616  1  0.18260500  0.75056750  0.69708850  1
  H  1618  1  0.22024000  0.71381400  0.71404000  1
  H  1619  1  0.26072600  0.73160100  0.71330650  1
  H  1620  1  0.16981300  0.72996600  0.71759950  1
  H  1622  1  0.12163500  0.74603000  0.64493000  1
  H  1623  1  0.18350700  0.73178800  0.64087800  1
  H  1624  1  0.09500400  0.72721650  0.64525550  1
  H  1626  1  0.17420700  0.76393650  0.66057800  1
  H  1628  1  0.27710300  0.70231850  0.69043250  1
  H  1634  1  0.18180500  0.25828600  0.81026350  1
  H  1636  1  0.18271100  0.21781250  0.77417900  1
  H  1638  1  0.22199000  0.25453900  0.75747700  1
  H  1639  1  0.26122900  0.23656250  0.75802250  1
  H  1640  1  0.17023900  0.23865050  0.75382500  1
  H  1642  1  0.12531100  0.22221500  0.82645400  1
  H  1643  1  0.18851100  0.23613050  0.83051150  1
  H  1644  1  0.10004800  0.24115000  0.82633800  1
  H  1646  1  0.17694600  0.20429800  0.81064000  1
  H  1648  1  0.28144500  0.26548500  0.78127100  1
  H  1654  1  0.15843300  0.40315950  0.46340100  1
  H  1656  1  0.16323600  0.44035000  0.50287800  1
  H  1658  1  0.22512000  0.45471450  0.46652700  1
  H  1659  1  0.25587900  0.45393500  0.48521200  1
  H  1660  1  0.16904200  0.46023750  0.48118700  1
  H  1662  1  0.08524700  0.38935300  0.49912300  1
  H  1663  1  0.14986600  0.38365800  0.48609450  1
  H  1664  1  0.06479400  0.38925700  0.47991200  1
  H  1666  1  0.14405700  0.40503500  0.51714450  1
  H  1668  1  0.27625500  0.42755200  0.45768550  1
  H  1674  1  0.17929700  0.56152700  0.01093000  1
  H  1676  1  0.18363300  0.52464250  0.97116100  1
  H  1678  1  0.23831300  0.50947900  0.00782500  1
  H  1679  1  0.27189800  0.51014850  0.98940000  1
  H  1680  1  0.18360600  0.50455100  0.99267750  1
  H  1682  1  0.11232900  0.57620400  0.97488100  1
  H  1683  1  0.17607600  0.58128750  0.98839900  1
  H  1684  1  0.08960400  0.57625600  0.99394450  1
  H  1686  1  0.16932800  0.56027350  0.95705050  1
  H  1688  1  0.29245500  0.53604700  0.01728200  1
  H  1694  1  0.55595400  0.41094200  0.01089400  1
  H  1696  1  0.55643900  0.44674300  0.97018350  1
  H  1698  1  0.51893900  0.46386100  0.00681200  1
  H  1699  1  0.47916500  0.46332300  0.98888700  1
  H  1700  1  0.57042800  0.46718750  0.99083100  1
  H  1702  1  0.61121100  0.39428900  0.97491000  1
  H  1703  1  0.54783400  0.39057100  0.98886150  1
  H  1704  1  0.63654200  0.39442750  0.99383900  1
  H  1706  1  0.56029600  0.41010800  0.95691300  1
  H  1708  1  0.45766300  0.44039950  0.01780800  1
  H  1714  1  0.54928400  0.55682800  0.46133900  1
  H  1716  1  0.54858800  0.52133600  0.50232200  1
  H  1718  1  0.51438100  0.50391750  0.46566350  1
  H  1719  1  0.47333100  0.50455850  0.48340150  1
  H  1720  1  0.56488700  0.50074350  0.48190000  1
  H  1722  1  0.60146200  0.57379450  0.49741950  1
  H  1723  1  0.53887200  0.57736400  0.48316300  1
  H  1724  1  0.62805600  0.57351200  0.47860700  1
  H  1726  1  0.55055100  0.55810000  0.51534200  1
  H  1728  1  0.45293100  0.52724400  0.45419450  1
  H  1734  1  0.80515200  0.99502400  0.08211900  1
  H  1736  1  0.93565600  0.97379100  0.04071100  1
  H  1738  1  0.82401400  0.00561600  0.02957450  1
  H  1739  1  0.84234400  0.98723400  0.02362000  1
  H  1740  1  0.91230700  0.99980500  0.02753600  1
  H  1742  1  0.90425100  0.96106100  0.09280300  1
  H  1743  1  0.82132200  0.96939900  0.09517800  1
  H  1744  1  0.89878400  0.97977900  0.09911900  1
  H  1746  1  0.99100300  0.95878100  0.07510600  1
  H  1748  1  0.81356000  0.01920800  0.05412200  1
  H  1754  1  0.80305100  0.97202000  0.39211250  1
  H  1756  1  0.91994400  0.99673500  0.43347800  1
  H  1758  1  0.80485300  0.96611900  0.44557700  1
  H  1759  1  0.82153800  0.98493900  0.45014700  1
  H  1760  1  0.89237200  0.97202200  0.44845900  1
  H  1762  1  0.90465400  0.00497250  0.38007900  1
  H  1763  1  0.82318200  0.99628300  0.37712550  1
  H  1764  1  0.90219600  0.98575400  0.37539000  1
  H  1766  1  0.98530000  0.00888800  0.39859500  1
  H  1768  1  0.80289900  0.95048600  0.42255500  1
  H  1774  1  0.80268300  0.13924200  0.24799700  1
  H  1776  1  0.92840300  0.18061800  0.22562000  1
  H  1778  1  0.81534400  0.19221500  0.25686150  1
  H  1779  1  0.83309200  0.19763500  0.23831700  1
  H  1780  1  0.90339700  0.19451150  0.25111500  1
  H  1782  1  0.90286200  0.12797900  0.21451200  1
  H  1783  1  0.82040200  0.12543050  0.22288450  1
  H  1784  1  0.89845800  0.12226100  0.23342900  1
  H  1786  1  0.98731800  0.14594700  0.21169550  1
  H  1788  1  0.80787000  0.16831850  0.27119500  1
  H  1794  1  0.79469800  0.82910600  0.22730900  1
  H  1796  1  0.94404400  0.78910000  0.24584600  1
  H  1798  1  0.84178300  0.77838150  0.21251100  1
  H  1799  1  0.86031900  0.77129200  0.23049600  1
  H  1800  1  0.92972400  0.77764000  0.21884500  1
  H  1802  1  0.88668900  0.83910100  0.26234650  1
  H  1803  1  0.80300900  0.84030400  0.25404400  1
  H  1804  1  0.87811200  0.84673100  0.24418000  1
  H  1806  1  0.98161600  0.82289800  0.26367150  1
  H  1808  1  0.81724100  0.80376000  0.20100000  1
  H  1814  1  0.90531800  0.96793600  0.90682750  1
  H  1816  1  0.85532600  0.00502100  0.94495750  1
  H  1818  1  0.00679800  0.98088700  0.95448550  1
  H  1819  1  0.98152600  0.99980350  0.95478700  1
  H  1820  1  0.92635600  0.98605050  0.96298000  1
  H  1822  1  0.76796600  0.99491400  0.89548500  1
  H  1823  1  0.84362400  0.98619400  0.88828700  1
  H  1824  1  0.77655900  0.97522500  0.89665900  1
  H  1826  1  0.72144000  0.00165700  0.91942150  1
  H  1828  1  0.98178200  0.95901100  0.94103600  1
  H  1834  1  0.90008300  0.99970100  0.56556700  1
  H  1836  1  0.84582200  0.96303400  0.52730300  1
  H  1838  1  0.99785300  0.98670300  0.51767650  1
  H  1839  1  0.97174500  0.96787100  0.51730100  1
  H  1840  1  0.91664000  0.98185800  0.50928400  1
  H  1842  1  0.76184600  0.97322500  0.57693100  1
  H  1843  1  0.83842400  0.98159200  0.58409000  1
  H  1844  1  0.77159100  0.99288000  0.57584700  1
  H  1846  1  0.71359700  0.96685300  0.55293450  1
  H  1848  1  0.97513800  0.00860400  0.53135450  1
  H  1854  1  0.92709700  0.82994100  0.72252300  1
  H  1856  1  0.80830800  0.78928050  0.74771800  1
  H  1858  1  0.91321600  0.77661750  0.71573300  1
  H  1859  1  0.90112400  0.77192600  0.73467450  1
  H  1860  1  0.82718000  0.77446450  0.72270250  1
  H  1862  1  0.83444000  0.84232050  0.75659100  1
  H  1863  1  0.91466400  0.84468450  0.74723950  1
  H  1864  1  0.83407200  0.84732600  0.73744400  1
  H  1866  1  0.75129000  0.82437300  0.76093700  1
  H  1868  1  0.91846400  0.79946100  0.70065600  1
  H  1874  1  0.92205200  0.13806050  0.74991300  1
  H  1876  1  0.79734200  0.17965200  0.72718950  1
  H  1878  1  0.91042100  0.19110800  0.75856300  1
  H  1879  1  0.89288600  0.19648600  0.73996900  1
  H  1880  1  0.82244600  0.19358400  0.75266650  1
  H  1882  1  0.82221900  0.12694300  0.71623800  1
  H  1883  1  0.90449300  0.12423450  0.72479100  1
  H  1884  1  0.82621300  0.12124050  0.73517300  1
  H  1886  1  0.73767500  0.14504700  0.71336100  1
  H  1888  1  0.91719100  0.16735000  0.77298600  1
  H  1894  1  0.80033000  0.49737400  0.58300400  1
  H  1896  1  0.92067900  0.47353100  0.54161800  1
  H  1898  1  0.81109700  0.50540000  0.52985050  1
  H  1899  1  0.82583900  0.48664500  0.52467900  1
  H  1900  1  0.89810400  0.49893300  0.52740300  1
  H  1902  1  0.89736200  0.46338650  0.59446300  1
  H  1903  1  0.81595800  0.47230100  0.59712800  1
  H  1904  1  0.89529900  0.48239900  0.59993700  1
  H  1906  1  0.98084200  0.45992400  0.57622300  1
  H  1908  1  0.80613900  0.52004900  0.55339900  1
  H  1914  1  0.81640600  0.46995750  0.89063000  1
  H  1916  1  0.93264200  0.49456400  0.93214500  1
  H  1918  1  0.81935600  0.46359800  0.94406350  1
  H  1919  1  0.83491000  0.48243150  0.94875300  1
  H  1920  1  0.90650800  0.46972450  0.94694400  1
  H  1922  1  0.91615900  0.50325800  0.87884200  1
  H  1923  1  0.83513600  0.49439400  0.87585200  1
  H  1924  1  0.91469100  0.48407800  0.87397000  1
  H  1926  1  0.99714700  0.50709300  0.89731300  1
  H  1928  1  0.81744400  0.44821400  0.92106550  1
  H  1934  1  0.82561300  0.65545600  0.75136000  1
  H  1936  1  0.88089200  0.69446800  0.71563350  1
  H  1938  1  0.73543400  0.70472700  0.74094750  1
  H  1939  1  0.75774900  0.70552100  0.72190150  1
  H  1940  1  0.81717000  0.71245900  0.73562450  1
  H  1942  1  0.95744500  0.64379500  0.72345600  1
  H  1943  1  0.88101500  0.63702000  0.73212100  1
  H  1944  1  0.95093000  0.64424350  0.74319900  1
  H  1946  1  0.00904800  0.66772450  0.71764200  1
  H  1948  1  0.76079500  0.68993800  0.76224900  1
  H  1954  1  0.83288400  0.31373600  0.71967250  1
  H  1956  1  0.88077800  0.27581350  0.75716200  1
  H  1958  1  0.72931600  0.26653600  0.73300300  1
  H  1959  1  0.75421900  0.26634100  0.75194350  1
  H  1960  1  0.80930800  0.25783700  0.73831900  1
  H  1962  1  0.97060200  0.32486050  0.74658900  1
  H  1963  1  0.89529600  0.33224500  0.73779650  1
  H  1964  1  0.96198200  0.32353700  0.72691200  1
  H  1966  1  0.01590300  0.30080450  0.75363850  1
  H  1968  1  0.75535000  0.27971700  0.71099550  1
  H  1974  1  0.89607900  0.46568500  0.40581200  1
  H  1976  1  0.84973100  0.50313550  0.44380050  1
  H  1978  1  0.99655100  0.47789000  0.45374600  1
  H  1979  1  0.97465600  0.49699900  0.45396100  1
  H  1980  1  0.91655600  0.48371300  0.46200600  1
  H  1982  1  0.76343500  0.49360150  0.39414200  1
  H  1983  1  0.83802400  0.48434400  0.38709950  1
  H  1984  1  0.76892500  0.47386550  0.39535050  1
  H  1986  1  0.71652100  0.50047450  0.41810100  1
  H  1988  1  0.96754400  0.45612950  0.44020550  1
  H  1994  1  0.90272800  0.50107800  0.06730650  1
  H  1996  1  0.85551100  0.46356000  0.02943000  1
  H  1998  1  0.00557800  0.48784900  0.01998300  1
  H  1999  1  0.98180600  0.46886950  0.01982600  1
  H  2000  1  0.92567900  0.48241900  0.01138500  1
  H  2002  1  0.76611700  0.47412200  0.07854100  1
  H  2003  1  0.84117200  0.48294600  0.08588400  1
  H  2004  1  0.77399300  0.49380150  0.07719600  1
  H  2006  1  0.72064100  0.46716600  0.05443200  1
  H  2008  1  0.97777800  0.50990900  0.03323800  1
  H  2014  1  0.90260700  0.31602250  0.21958400  1
  H  2016  1  0.85471800  0.27793850  0.25678600  1
  H  2018  1  0.00385700  0.26824950  0.23225900  1
  H  2019  1  0.98048400  0.26798950  0.25125750  1
  H  2020  1  0.92373500  0.25985400  0.23768650  1
  H  2022  1  0.76724400  0.32744550  0.24681950  1
  H  2023  1  0.84231500  0.33462100  0.23795000  1
  H  2024  1  0.77442800  0.32625250  0.22711650  1
  H  2026  1  0.72082200  0.30342350  0.25353000  1
  H  2028  1  0.97623400  0.28177950  0.21037100  1
  H  2034  1  0.89607600  0.65153800  0.25489900  1
  H  2036  1  0.84805300  0.69007950  0.21804100  1
  H  2038  1  0.99329500  0.69987250  0.24368600  1
  H  2039  1  0.97208700  0.70038100  0.22454500  1
  H  2040  1  0.91290400  0.70807100  0.23787100  1
  H  2042  1  0.76478900  0.64013050  0.22665300  1
  H  2043  1  0.83969400  0.63304700  0.23584250  1
  H  2044  1  0.76988600  0.64100000  0.24641100  1
  H  2046  1  0.71655400  0.66414800  0.22006650  1
  H  2048  1  0.96415600  0.68584700  0.26519350  1
  N  21  1  0.02037200  0.88795200  0.10365200  1
  N  22  1  0.25428200  0.88014200  0.08272800  1
  N  23  1  0.97705400  0.95054000  0.05489200  1
  N  24  1  0.10828900  0.92446900  0.01950600  1
  N  45  1  0.01242000  0.07996950  0.36906400  1
  N  46  1  0.24718600  0.08774200  0.38973450  1
  N  47  1  0.97005200  0.01806700  0.41830150  1
  N  48  1  0.10267000  0.04410050  0.45345500  1
  N  69  1  0.01701500  0.11682000  0.14113950  1
  N  70  1  0.25061200  0.13774100  0.13327100  1
  N  71  1  0.97318600  0.16601050  0.20312700  1
  N  72  1  0.10279300  0.20135250  0.17681300  1
  N  93  1  0.00832800  0.85128000  0.33328750  1
  N  94  1  0.24134400  0.82984000  0.34229150  1
  N  95  1  0.97165800  0.80216600  0.27089800  1
  N  96  1  0.09608500  0.76645400  0.29827850  1
  N  117  1  0.72964200  0.89423100  0.37186500  1
  N  118  1  0.48608800  0.88344650  0.38368850  1
  N  119  1  0.71116400  0.95845700  0.41533100  1
  N  120  1  0.59537600  0.93041100  0.45214400  1
  N  141  1  0.73950300  0.07427000  0.10152900  1
  N  142  1  0.49461300  0.08489000  0.09036600  1
  N  143  1  0.71980600  0.01018050  0.05788600  1
  N  144  1  0.60525000  0.03864850  0.02109800  1
  N  165  1  0.73359400  0.11956550  0.32649450  1
  N  166  1  0.48874300  0.13078400  0.33677600  1
  N  167  1  0.71480000  0.16307950  0.26248500  1
  N  168  1  0.60262300  0.20017800  0.29085100  1
  N  189  1  0.74451600  0.84811400  0.14624300  1
  N  190  1  0.50030300  0.83703100  0.13519950  1
  N  191  1  0.72236200  0.80408400  0.21030600  1
  N  192  1  0.60817100  0.76766100  0.18158300  1
  N  213  1  0.73213200  0.07125600  0.86539650  1
  N  214  1  0.51701100  0.09173000  0.88732600  1
  N  215  1  0.76471000  0.02064500  0.92599000  1
  N  216  1  0.52719200  0.03242950  0.93977400  1
  N  237  1  0.72201600  0.89733300  0.60729900  1
  N  238  1  0.50805200  0.87688250  0.58478800  1
  N  239  1  0.75546800  0.94763000  0.54652800  1
  N  240  1  0.51609800  0.93689700  0.53319050  1
  N  261  1  0.71083000  0.85694900  0.82938700  1
  N  262  1  0.48562500  0.83266200  0.83862700  1
  N  263  1  0.76687000  0.80451400  0.76985400  1
  N  264  1  0.63980800  0.76950500  0.79710700  1
  N  285  1  0.71338500  0.11862500  0.63998200  1
  N  286  1  0.46879400  0.13472100  0.63737900  1
  N  287  1  0.75164300  0.16508850  0.70479550  1
  N  288  1  0.61979800  0.20046400  0.67858250  1
  N  309  1  0.97532800  0.06760000  0.60469150  1
  N  310  1  0.22466600  0.07896250  0.59926600  1
  N  311  1  0.01537100  0.00960450  0.55167500  1
  N  312  1  0.21690100  0.03587900  0.53250900  1
  N  333  1  0.98498600  0.89397400  0.87107900  1
  N  334  1  0.23086200  0.88529500  0.87752900  1
  N  335  1  0.02185200  0.95780200  0.92075600  1
  N  336  1  0.22570500  0.93289300  0.94087500  1
  N  357  1  0.99457800  0.85147300  0.64354350  1
  N  358  1  0.23203800  0.83619950  0.63112000  1
  N  359  1  0.01169800  0.80664200  0.70767800  1
  N  360  1  0.12340500  0.76957150  0.67898000  1
  N  381  1  0.00162200  0.11725900  0.82899000  1
  N  382  1  0.23994200  0.13243300  0.84048000  1
  N  383  1  0.01003500  0.16164400  0.76451600  1
  N  384  1  0.12489000  0.19876900  0.79231900  1
  N  405  1  0.02325900  0.39163200  0.60897200  1
  N  406  1  0.24883500  0.38259700  0.58466500  1
  N  407  1  0.96300900  0.45090600  0.55648300  1
  N  408  1  0.08894700  0.42338600  0.52129800  1
  N  429  1  0.01919600  0.58086600  0.87076200  1
  N  430  1  0.26358900  0.58354300  0.88691000  1
  N  431  1  0.98236000  0.51602000  0.91715000  1
  N  432  1  0.11318900  0.54220500  0.95254700  1
  N  453  1  0.99417200  0.61373550  0.64871600  1
  N  454  1  0.20880700  0.63533100  0.62793700  1
  N  455  1  0.96511700  0.67491700  0.69888100  1
  N  456  1  0.20187900  0.68842650  0.68661100  1
  N  477  1  0.00480600  0.35520450  0.82338800  1
  N  478  1  0.22178000  0.33342000  0.84338300  1
  N  479  1  0.97187400  0.29469100  0.77267800  1
  N  480  1  0.20756000  0.27977150  0.78508550  1
  N  501  1  0.73473500  0.39147450  0.86965350  1
  N  502  1  0.49627600  0.38030100  0.88461100  1
  N  503  1  0.72547800  0.45601200  0.91380200  1
  N  504  1  0.61197000  0.42831800  0.95113550  1
  N  525  1  0.72383900  0.57698150  0.60286800  1
  N  526  1  0.48536000  0.58843200  0.58746650  1
  N  527  1  0.71272000  0.51201700  0.55920100  1
  N  528  1  0.60196200  0.53987450  0.52145150  1
  N  549  1  0.75644000  0.61677300  0.82011050  1
  N  550  1  0.50745300  0.62258450  0.83182700  1
  N  551  1  0.71372800  0.67031600  0.76249300  1
  N  552  1  0.51988600  0.69069250  0.79061300  1
  N  573  1  0.75028900  0.34994650  0.64599400  1
  N  574  1  0.50451700  0.34356900  0.63736900  1
  N  575  1  0.71538300  0.30005400  0.70968200  1
  N  576  1  0.51147900  0.28013200  0.68478800  1
  N  597  1  0.71313600  0.56825550  0.36250700  1
  N  598  1  0.50395500  0.58876900  0.38655800  1
  N  599  1  0.76148000  0.51920200  0.42492000  1
  N  600  1  0.52684400  0.53126250  0.44009450  1
  N  621  1  0.72125200  0.39786200  0.10927500  1
  N  622  1  0.50583000  0.37892800  0.08603800  1
  N  623  1  0.76490800  0.44811900  0.04820300  1
  N  624  1  0.53070900  0.43637200  0.03223600  1
  N  645  1  0.71579900  0.35926600  0.32125300  1
  N  646  1  0.50628200  0.33532650  0.34144900  1
  N  647  1  0.76492100  0.29681650  0.27248450  1
  N  648  1  0.52946800  0.28178000  0.28388300  1
  N  669  1  0.72602300  0.61079200  0.15001000  1
  N  670  1  0.51035000  0.63378600  0.13059100  1
  N  671  1  0.76199600  0.67124050  0.20151350  1
  N  672  1  0.52777900  0.68661550  0.18887400  1
  N  693  1  0.99635100  0.57054450  0.10671800  1
  N  694  1  0.23534200  0.58455350  0.09397800  1
  N  695  1  0.02030300  0.51094250  0.05337100  1
  N  696  1  0.22021600  0.53600100  0.03237100  1
  N  717  1  0.97960100  0.39221800  0.36849600  1
  N  718  1  0.22067200  0.38124300  0.37902550  1
  N  719  1  0.01098700  0.45488700  0.42023350  1
  N  720  1  0.20619900  0.42827700  0.44205700  1
  N  741  1  0.99345300  0.35527500  0.14993750  1
  N  742  1  0.23289200  0.34255850  0.13584300  1
  N  743  1  0.01908600  0.30182100  0.20938850  1
  N  744  1  0.21758100  0.28045500  0.18389100  1
  N  765  1  0.97560700  0.61549300  0.32956300  1
  N  766  1  0.21622100  0.62585300  0.34079350  1
  N  767  1  0.01042400  0.66606700  0.26595000  1
  N  768  1  0.20847200  0.68709150  0.29171800  1
  O  8  1  0.02026000  0.94668300  0.02662900  1
  O  15  1  0.16224700  0.87649550  0.10635000  1
  O  32  1  0.01409100  0.02205700  0.44651350  1
  O  39  1  0.15384900  0.09137450  0.36622100  1
  O  56  1  0.01531700  0.19430200  0.19902000  1
  O  63  1  0.15842600  0.11412050  0.12966100  1
  O  80  1  0.01223500  0.77375300  0.27535400  1
  O  87  1  0.14715600  0.85324050  0.34631100  1
  O  104  1  0.66423000  0.95514600  0.44416500  1
  O  111  1  0.61727100  0.87337400  0.37268700  1
  O  128  1  0.67410600  0.01379600  0.02909600  1
  O  135  1  0.62611700  0.09503200  0.10112100  1
  O  152  1  0.67034600  0.19201600  0.26604250  1
  O  159  1  0.61996600  0.11987700  0.34704000  1
  O  176  1  0.67574200  0.77557100  0.20669900  1
  O  183  1  0.63204200  0.84775600  0.12528950  1
  O  200  1  0.65186600  0.01618900  0.94562800  1
  O  207  1  0.61588500  0.09159800  0.86390500  1
  O  224  1  0.64132300  0.95266000  0.52716050  1
  O  231  1  0.60612400  0.87702750  0.60849700  1
  O  248  1  0.72716200  0.77621800  0.77476400  1
  O  255  1  0.57750700  0.85665850  0.84367900  1
  O  272  1  0.70820100  0.19337600  0.70077850  1
  O  279  1  0.57098600  0.11321650  0.63151400  1
  O  296  1  0.11728700  0.01315400  0.52843500  1
  O  303  1  0.09026300  0.08641400  0.61065000  1
  O  320  1  0.12604500  0.95577000  0.94366250  1
  O  327  1  0.09494700  0.87643000  0.86689800  1
  O  344  1  0.05763900  0.77779050  0.70422200  1
  O  351  1  0.09782500  0.84699400  0.62079550  1
  O  368  1  0.05579000  0.19045700  0.76763900  1
  O  375  1  0.10715100  0.12193300  0.85138100  1
  O  392  1  0.00124800  0.44578050  0.52809000  1
  O  399  1  0.15770500  0.37762200  0.60874900  1
  O  416  1  0.02545500  0.52004200  0.94543100  1
  O  423  1  0.16137800  0.58935050  0.86537350  1
  O  440  1  0.07830900  0.69448500  0.70295450  1
  O  447  1  0.10946400  0.61199800  0.62831000  1
  O  464  1  0.08310200  0.27440600  0.76869200  1
  O  471  1  0.12274600  0.35689750  0.84325800  1
  O  488  1  0.67997800  0.45296950  0.94271450  1
  O  495  1  0.62917000  0.36920350  0.87427500  1
  O  512  1  0.66854000  0.51504700  0.53021250  1
  O  519  1  0.61847700  0.59938800  0.59794200  1
  O  536  1  0.61649600  0.69416500  0.76708250  1
  O  543  1  0.64195800  0.61087400  0.83900100  1
  O  560  1  0.61157000  0.27718500  0.70762500  1
  O  567  1  0.64005300  0.35421500  0.62851500  1
  O  584  1  0.65269000  0.51536600  0.44552500  1
  O  591  1  0.59624800  0.58793350  0.36180150  1
  O  608  1  0.65680600  0.45213100  0.02724600  1
  O  615  1  0.60189400  0.37834700  0.10997200  1
  O  632  1  0.65581800  0.27627000  0.26830200  1
  O  639  1  0.59900300  0.35998600  0.34080500  1
  O  656  1  0.65222500  0.69175100  0.20532300  1
  O  663  1  0.60880900  0.61022400  0.12980300  1
  O  680  1  0.12065900  0.51318300  0.02986500  1
  O  687  1  0.09907800  0.59348950  0.10443300  1
  O  704  1  0.10945400  0.45181750  0.44416050  1
  O  711  1  0.08392300  0.37279600  0.36717800  1
  O  728  1  0.11870000  0.27807200  0.20682900  1
  O  735  1  0.09654800  0.35321500  0.12705500  1
  O  752  1  0.11158600  0.68908100  0.26813250  1
  O  759  1  0.07903100  0.61437600  0.34923200  1
