# generated using pymatgen
data_H80C151N12
_symmetry_space_group_name_H-M   'P 1'
_cell_length_a   34.06960000
_cell_length_b   57.41680000
_cell_length_c   57.41800000
_cell_angle_alpha   89.85610000
_cell_angle_beta   90.00000000
_cell_angle_gamma   90.00000000
_symmetry_Int_Tables_number   1
_chemical_formula_structural   H80C151N12
_chemical_formula_sum   'H480 C906 N72'
_cell_volume   112318.86606393
_cell_formula_units_Z   6
loop_
 _symmetry_equiv_pos_site_id
 _symmetry_equiv_pos_as_xyz
  1  'x, y, z'
loop_
 _atom_site_type_symbol
 _atom_site_label
 _atom_site_symmetry_multiplicity
 _atom_site_fract_x
 _atom_site_fract_y
 _atom_site_fract_z
 _atom_site_occupancy
  H  25  1  0.07799300  0.04668100  0.95270700  1
  H  26  1  0.11050800  0.02113600  0.97876500  1
  H  27  1  0.11045800  0.96066500  0.03950800  1
  H  28  1  0.07790200  0.93506700  0.06549500  1
  H  29  1  0.96835700  0.95896300  0.04096500  1
  H  30  1  0.96841000  0.02274700  0.97714100  1
  H  31  1  0.01899700  0.02254800  0.04127100  1
  H  32  1  0.90923400  0.04608500  0.06570300  1
  H  33  1  0.87692100  0.02075600  0.03953400  1
  H  34  1  0.01902900  0.95920400  0.97690500  1
  H  35  1  0.87695000  0.96105100  0.97854500  1
  H  36  1  0.90928700  0.93572300  0.95238500  1
  H  39  1  0.10057200  0.98002500  0.99821200  1
  H  40  1  0.10049600  0.00179500  0.02007700  1
  H  42  1  0.88697600  0.97989500  0.01991600  1
  H  43  1  0.88701200  0.00190100  0.99817600  1
  H  47  1  0.97152700  0.05024100  0.94431000  1
  H  48  1  0.97143900  0.93144300  0.07379500  1
  H  49  1  0.01559600  0.93185500  0.94379100  1
  H  51  1  0.01553200  0.04991300  0.07436600  1
  H  76  1  0.57793200  0.54660400  0.45266700  1
  H  77  1  0.61047400  0.52108700  0.47873700  1
  H  78  1  0.61049500  0.46061100  0.53947800  1
  H  79  1  0.57796500  0.43498400  0.56544900  1
  H  80  1  0.46839800  0.45879500  0.54087400  1
  H  81  1  0.46837400  0.52257900  0.47705100  1
  H  82  1  0.51895300  0.52241400  0.54120200  1
  H  83  1  0.40916000  0.54586300  0.56566700  1
  H  84  1  0.37688200  0.52052900  0.53948800  1
  H  85  1  0.51907600  0.45907300  0.47683300  1
  H  86  1  0.37699300  0.46082900  0.47849300  1
  H  87  1  0.40936500  0.43551000  0.45234000  1
  H  90  1  0.60061500  0.47996800  0.49817800  1
  H  91  1  0.60045400  0.50173700  0.52004500  1
  H  93  1  0.38700500  0.47968200  0.51985800  1
  H  94  1  0.38698800  0.50169000  0.49811800  1
  H  98  1  0.47145600  0.55010400  0.44424800  1
  H  99  1  0.47151500  0.43130400  0.57372900  1
  H  100  1  0.51566800  0.43171400  0.44371700  1
  H  102  1  0.51546900  0.54978200  0.57428200  1
  H  121  1  0.06862600  0.88371700  0.09584700  1
  H  122  1  0.06047000  0.85455500  0.12529400  1
  H  123  1  0.95194400  0.90619800  0.10624600  1
  H  124  1  0.10800300  0.74644300  0.25630000  1
  H  125  1  0.16277600  0.78957500  0.20596700  1
  H  126  1  0.22580900  0.77630700  0.21894300  1
  H  127  1  0.17123800  0.73332000  0.26914600  1
  H  128  1  0.88104200  0.75091900  0.25879400  1
  H  129  1  0.76497300  0.77182800  0.21414900  1
  H  130  1  0.82815000  0.78504700  0.20135000  1
  H  131  1  0.81770100  0.73778200  0.27140400  1
  H  138  1  0.05742200  0.81478400  0.18366900  1
  H  139  1  0.99489700  0.77021300  0.22903500  1
  H  140  1  0.93349900  0.81480500  0.18311500  1
  H  141  1  0.94339600  0.87699700  0.13581600  1
  H  169  1  0.06870900  0.09789200  0.92211400  1
  H  170  1  0.06052800  0.12697800  0.89259200  1
  H  171  1  0.95205800  0.07533400  0.91175400  1
  H  172  1  0.10796900  0.23472400  0.76128100  1
  H  173  1  0.16273600  0.19180200  0.81179600  1
  H  174  1  0.22577100  0.20501800  0.79877200  1
  H  175  1  0.17120700  0.24779100  0.74838100  1
  H  176  1  0.88078600  0.22921100  0.75820900  1
  H  177  1  0.76517900  0.21048200  0.80422000  1
  H  178  1  0.82836100  0.19732700  0.81707300  1
  H  179  1  0.81744200  0.24229600  0.74555100  1
  H  186  1  0.05743100  0.16660400  0.83412100  1
  H  187  1  0.99485900  0.21107400  0.78868200  1
  H  188  1  0.93350800  0.16656100  0.83470200  1
  H  189  1  0.94348700  0.10445700  0.88211000  1
  H  217  1  0.03381000  0.90628700  0.91068800  1
  H  218  1  0.04041600  0.87723500  0.88088700  1
  H  219  1  0.91666900  0.88522600  0.92214700  1
  H  220  1  0.09283900  0.74244800  0.76378500  1
  H  221  1  0.14880200  0.79264900  0.80625700  1
  H  222  1  0.21147600  0.77933900  0.79283300  1
  H  223  1  0.15578400  0.72924900  0.75050200  1
  H  224  1  0.86589900  0.74163200  0.77161400  1
  H  225  1  0.75064100  0.78771100  0.79060200  1
  H  226  1  0.81399600  0.80044800  0.80353400  1
  H  227  1  0.80242000  0.72909100  0.75875600  1
  H  234  1  0.04561100  0.81483400  0.83295400  1
  H  235  1  0.97995700  0.77137800  0.78827300  1
  H  236  1  0.92177300  0.81688100  0.83449600  1
  H  237  1  0.92287400  0.85624500  0.89252000  1
  H  265  1  0.03375800  0.07548400  0.10743900  1
  H  266  1  0.04040900  0.10455200  0.13721800  1
  H  267  1  0.91665700  0.09660900  0.09595200  1
  H  268  1  0.08276700  0.24074800  0.25509200  1
  H  269  1  0.15144500  0.19403300  0.21527400  1
  H  270  1  0.20991800  0.21073800  0.23132100  1
  H  271  1  0.14148500  0.25733900  0.27100900  1
  H  272  1  0.87608700  0.24118700  0.24826000  1
  H  273  1  0.75155300  0.20332200  0.23194400  1
  H  274  1  0.81094400  0.18714500  0.21641000  1
  H  275  1  0.81657900  0.25716000  0.26369800  1
  H  282  1  0.04572600  0.16704300  0.18508700  1
  H  283  1  0.98003300  0.21070800  0.22951500  1
  H  284  1  0.92181700  0.16509200  0.18344600  1
  H  285  1  0.92290900  0.12560900  0.12555600  1
  H  313  1  0.56864200  0.38346800  0.59562800  1
  H  314  1  0.56047100  0.35426900  0.62503700  1
  H  315  1  0.45204900  0.40604900  0.60615500  1
  H  316  1  0.60796800  0.24630900  0.75621500  1
  H  317  1  0.66274100  0.28926700  0.70573100  1
  H  318  1  0.72577400  0.27604800  0.71875300  1
  H  319  1  0.67120600  0.23324000  0.76911300  1
  H  320  1  0.38079700  0.25179200  0.75928000  1
  H  321  1  0.26517200  0.27061600  0.71332200  1
  H  322  1  0.32835800  0.28377000  0.70047100  1
  H  323  1  0.31745300  0.23870700  0.77193600  1
  H  330  1  0.55742700  0.31450900  0.68345200  1
  H  331  1  0.49486400  0.26995700  0.72881400  1
  H  332  1  0.43350400  0.31454900  0.68287500  1
  H  333  1  0.44348700  0.37681100  0.63568600  1
  H  361  1  0.56869500  0.59764600  0.42189700  1
  H  362  1  0.56053000  0.62669400  0.39233700  1
  H  363  1  0.45195800  0.57519100  0.41167100  1
  H  364  1  0.60800000  0.73460700  0.26121000  1
  H  365  1  0.66277000  0.69147800  0.31154600  1
  H  366  1  0.72580600  0.70474200  0.29857100  1
  H  367  1  0.67123800  0.74772600  0.24836200  1
  H  368  1  0.38104400  0.73012700  0.25872400  1
  H  369  1  0.26497000  0.70921800  0.30336300  1
  H  370  1  0.32814300  0.69599900  0.31616600  1
  H  371  1  0.31770300  0.74326400  0.24610900  1
  H  378  1  0.55742400  0.66633200  0.33390600  1
  H  379  1  0.49489300  0.71081700  0.28846200  1
  H  380  1  0.43350400  0.66630600  0.33446500  1
  H  381  1  0.44339900  0.60427700  0.38198900  1
  H  409  1  0.53387800  0.40614300  0.41061000  1
  H  410  1  0.54050000  0.37707100  0.38082900  1
  H  411  1  0.41684700  0.38494500  0.42220900  1
  H  412  1  0.58277500  0.24085600  0.26296200  1
  H  413  1  0.65140800  0.28757200  0.30280600  1
  H  414  1  0.70990000  0.27087900  0.28677100  1
  H  415  1  0.64151100  0.22427600  0.24705400  1
  H  416  1  0.37606900  0.24042800  0.26987400  1
  H  417  1  0.25153100  0.27831600  0.28613300  1
  H  418  1  0.31091700  0.29449700  0.30167200  1
  H  419  1  0.31656700  0.22445100  0.25443100  1
  H  426  1  0.54575400  0.31454600  0.33298100  1
  H  427  1  0.47999100  0.27090800  0.28856500  1
  H  428  1  0.42184900  0.31652800  0.33466200  1
  H  429  1  0.42307000  0.35594500  0.39260300  1
  H  457  1  0.53368500  0.57532200  0.60737900  1
  H  458  1  0.54032100  0.60437800  0.63717300  1
  H  459  1  0.41649500  0.59633300  0.59600800  1
  H  460  1  0.59282800  0.73912800  0.75431200  1
  H  461  1  0.64884300  0.68899100  0.71178600  1
  H  462  1  0.71150300  0.70230900  0.72522400  1
  H  463  1  0.65575800  0.75233700  0.76760700  1
  H  464  1  0.36592500  0.73997800  0.74652800  1
  H  465  1  0.25066300  0.69393200  0.72746700  1
  H  466  1  0.31402200  0.68119700  0.71453800  1
  H  467  1  0.30244000  0.75251400  0.75938100  1
  H  474  1  0.54558700  0.66675700  0.68511500  1
  H  475  1  0.48000000  0.71023700  0.72980900  1
  H  476  1  0.42174600  0.66473800  0.68361200  1
  H  477  1  0.42273200  0.62531900  0.62562800  1
  H  511  1  0.34215800  0.92476550  0.95270700  1
  H  512  1  0.37467300  0.89922000  0.97876500  1
  H  513  1  0.37462300  0.83874900  0.03950800  1
  H  514  1  0.34206700  0.81315100  0.06549500  1
  H  515  1  0.23252200  0.83704700  0.04096500  1
  H  516  1  0.23257500  0.90083150  0.97714100  1
  H  517  1  0.28316200  0.90063250  0.04127100  1
  H  518  1  0.17339900  0.92416950  0.06570300  1
  H  519  1  0.14108600  0.89884000  0.03953400  1
  H  520  1  0.28319400  0.83728800  0.97690500  1
  H  521  1  0.14111500  0.83913500  0.97854500  1
  H  522  1  0.17345200  0.81380700  0.95238500  1
  H  525  1  0.36473700  0.85810900  0.99821200  1
  H  526  1  0.36466100  0.87987900  0.02007700  1
  H  528  1  0.15114100  0.85797900  0.01991600  1
  H  529  1  0.15117700  0.87998500  0.99817600  1
  H  533  1  0.23569200  0.92832550  0.94431000  1
  H  534  1  0.23560400  0.80952700  0.07379500  1
  H  535  1  0.27976100  0.80993900  0.94379100  1
  H  537  1  0.27969700  0.92799750  0.07436600  1
  H  562  1  0.84209700  0.42468800  0.45266700  1
  H  563  1  0.87463900  0.39917100  0.47873700  1
  H  564  1  0.87466000  0.33869500  0.53947800  1
  H  565  1  0.84213000  0.31306800  0.56544900  1
  H  566  1  0.73256300  0.33687900  0.54087400  1
  H  567  1  0.73253900  0.40066300  0.47705100  1
  H  568  1  0.78311800  0.40049800  0.54120200  1
  H  569  1  0.67332500  0.42394700  0.56566700  1
  H  570  1  0.64104700  0.39861300  0.53948800  1
  H  571  1  0.78324100  0.33715700  0.47683300  1
  H  572  1  0.64115800  0.33891300  0.47849300  1
  H  573  1  0.67353000  0.31359400  0.45234000  1
  H  576  1  0.86478000  0.35805200  0.49817800  1
  H  577  1  0.86461900  0.37982100  0.52004500  1
  H  579  1  0.65117000  0.35776600  0.51985800  1
  H  580  1  0.65115300  0.37977400  0.49811800  1
  H  584  1  0.73562100  0.42818800  0.44424800  1
  H  585  1  0.73568000  0.30938800  0.57372900  1
  H  586  1  0.77983300  0.30979800  0.44371700  1
  H  588  1  0.77963400  0.42786600  0.57428200  1
  H  607  1  0.33279100  0.76180100  0.09584700  1
  H  608  1  0.32463500  0.73263900  0.12529400  1
  H  609  1  0.21610900  0.78428200  0.10624600  1
  H  610  1  0.37216800  0.62452700  0.25630000  1
  H  611  1  0.42694100  0.66765900  0.20596700  1
  H  612  1  0.48997400  0.65439100  0.21894300  1
  H  613  1  0.43540300  0.61140400  0.26914600  1
  H  614  1  0.14520700  0.62900300  0.25879400  1
  H  615  1  0.02913810  0.64991200  0.21414900  1
  H  616  1  0.09231510  0.66313100  0.20135000  1
  H  617  1  0.08186610  0.61586600  0.27140400  1
  H  624  1  0.32158700  0.69286800  0.18366900  1
  H  625  1  0.25906200  0.64829700  0.22903500  1
  H  626  1  0.19766400  0.69288900  0.18311500  1
  H  627  1  0.20756100  0.75508100  0.13581600  1
  H  655  1  0.33287400  0.97597650  0.92211400  1
  H  656  1  0.32469300  0.00506200  0.89259200  1
  H  657  1  0.21622300  0.95341850  0.91175400  1
  H  658  1  0.37213400  0.11280800  0.76128100  1
  H  659  1  0.42690100  0.06988600  0.81179600  1
  H  660  1  0.48993600  0.08310200  0.79877200  1
  H  661  1  0.43537200  0.12587500  0.74838100  1
  H  662  1  0.14495100  0.10729500  0.75820900  1
  H  663  1  0.02934410  0.08856600  0.80422000  1
  H  664  1  0.09252610  0.07541100  0.81707300  1
  H  665  1  0.08160710  0.12038000  0.74555100  1
  H  672  1  0.32159600  0.04468800  0.83412100  1
  H  673  1  0.25902400  0.08915800  0.78868200  1
  H  674  1  0.19767300  0.04464500  0.83470200  1
  H  675  1  0.20765200  0.98254150  0.88211000  1
  H  703  1  0.29797500  0.78437100  0.91068800  1
  H  704  1  0.30458100  0.75531900  0.88088700  1
  H  705  1  0.18083400  0.76331000  0.92214700  1
  H  706  1  0.35700400  0.62053200  0.76378500  1
  H  707  1  0.41296700  0.67073300  0.80625700  1
  H  708  1  0.47564100  0.65742300  0.79283300  1
  H  709  1  0.41994900  0.60733300  0.75050200  1
  H  710  1  0.13006400  0.61971600  0.77161400  1
  H  711  1  0.01480610  0.66579500  0.79060200  1
  H  712  1  0.07816110  0.67853200  0.80353400  1
  H  713  1  0.06658510  0.60717500  0.75875600  1
  H  720  1  0.30977600  0.69291800  0.83295400  1
  H  721  1  0.24412200  0.64946200  0.78827300  1
  H  722  1  0.18593800  0.69496500  0.83449600  1
  H  723  1  0.18703900  0.73432900  0.89252000  1
  H  751  1  0.29792300  0.95356850  0.10743900  1
  H  752  1  0.30457400  0.98263650  0.13721800  1
  H  753  1  0.18082200  0.97469350  0.09595200  1
  H  754  1  0.34693200  0.11883200  0.25509200  1
  H  755  1  0.41561000  0.07211700  0.21527400  1
  H  756  1  0.47408300  0.08882200  0.23132100  1
  H  757  1  0.40565000  0.13542300  0.27100900  1
  H  758  1  0.14025200  0.11927100  0.24826000  1
  H  759  1  0.01571810  0.08140600  0.23194400  1
  H  760  1  0.07510910  0.06522900  0.21641000  1
  H  761  1  0.08074410  0.13524400  0.26369800  1
  H  768  1  0.30989100  0.04512700  0.18508700  1
  H  769  1  0.24419800  0.08879200  0.22951500  1
  H  770  1  0.18598200  0.04317600  0.18344600  1
  H  771  1  0.18707400  0.00369300  0.12555600  1
  H  799  1  0.83280700  0.26155200  0.59562800  1
  H  800  1  0.82463600  0.23235300  0.62503700  1
  H  801  1  0.71621400  0.28413300  0.60615500  1
  H  802  1  0.87213300  0.12439300  0.75621500  1
  H  803  1  0.92690600  0.16735100  0.70573100  1
  H  804  1  0.98993900  0.15413200  0.71875300  1
  H  805  1  0.93537100  0.11132400  0.76911300  1
  H  806  1  0.64496200  0.12987600  0.75928000  1
  H  807  1  0.52933700  0.14870000  0.71332200  1
  H  808  1  0.59252300  0.16185400  0.70047100  1
  H  809  1  0.58161800  0.11679100  0.77193600  1
  H  816  1  0.82159200  0.19259300  0.68345200  1
  H  817  1  0.75902900  0.14804100  0.72881400  1
  H  818  1  0.69766900  0.19263300  0.68287500  1
  H  819  1  0.70765200  0.25489500  0.63568600  1
  H  847  1  0.83286000  0.47573000  0.42189700  1
  H  848  1  0.82469500  0.50477800  0.39233700  1
  H  849  1  0.71612300  0.45327500  0.41167100  1
  H  850  1  0.87216500  0.61269100  0.26121000  1
  H  851  1  0.92693500  0.56956200  0.31154600  1
  H  852  1  0.98997100  0.58282600  0.29857100  1
  H  853  1  0.93540300  0.62581000  0.24836200  1
  H  854  1  0.64520900  0.60821100  0.25872400  1
  H  855  1  0.52913500  0.58730200  0.30336300  1
  H  856  1  0.59230800  0.57408300  0.31616600  1
  H  857  1  0.58186800  0.62134800  0.24610900  1
  H  864  1  0.82158900  0.54441600  0.33390600  1
  H  865  1  0.75905800  0.58890100  0.28846200  1
  H  866  1  0.69766900  0.54439000  0.33446500  1
  H  867  1  0.70756400  0.48236100  0.38198900  1
  H  895  1  0.79804300  0.28422700  0.41061000  1
  H  896  1  0.80466500  0.25515500  0.38082900  1
  H  897  1  0.68101200  0.26302900  0.42220900  1
  H  898  1  0.84694000  0.11894000  0.26296200  1
  H  899  1  0.91557300  0.16565600  0.30280600  1
  H  900  1  0.97406500  0.14896300  0.28677100  1
  H  901  1  0.90567600  0.10236000  0.24705400  1
  H  902  1  0.64023400  0.11851200  0.26987400  1
  H  903  1  0.51569600  0.15640000  0.28613300  1
  H  904  1  0.57508200  0.17258100  0.30167200  1
  H  905  1  0.58073200  0.10253500  0.25443100  1
  H  912  1  0.80991900  0.19263000  0.33298100  1
  H  913  1  0.74415600  0.14899200  0.28856500  1
  H  914  1  0.68601400  0.19461200  0.33466200  1
  H  915  1  0.68723500  0.23402900  0.39260300  1
  H  943  1  0.79785000  0.45340600  0.60737900  1
  H  944  1  0.80448600  0.48246200  0.63717300  1
  H  945  1  0.68066000  0.47441700  0.59600800  1
  H  946  1  0.85699300  0.61721200  0.75431200  1
  H  947  1  0.91300800  0.56707500  0.71178600  1
  H  948  1  0.97566800  0.58039300  0.72522400  1
  H  949  1  0.91992300  0.63042100  0.76760700  1
  H  950  1  0.63009000  0.61806200  0.74652800  1
  H  951  1  0.51482800  0.57201600  0.72746700  1
  H  952  1  0.57818700  0.55928100  0.71453800  1
  H  953  1  0.56660500  0.63059800  0.75938100  1
  H  960  1  0.80975200  0.54484100  0.68511500  1
  H  961  1  0.74416500  0.58832100  0.72980900  1
  H  962  1  0.68591100  0.54282200  0.68361200  1
  H  963  1  0.68689700  0.50340300  0.62562800  1
  H  997  1  0.60632300  0.80285000  0.95270700  1
  H  998  1  0.63883800  0.77730500  0.97876500  1
  H  999  1  0.63878800  0.71683400  0.03950800  1
  H  1000  1  0.60623200  0.69123600  0.06549500  1
  H  1001  1  0.49668700  0.71513200  0.04096500  1
  H  1002  1  0.49674000  0.77891600  0.97714100  1
  H  1003  1  0.54732700  0.77871700  0.04127100  1
  H  1004  1  0.43756400  0.80225400  0.06570300  1
  H  1005  1  0.40525100  0.77692500  0.03953400  1
  H  1006  1  0.54735900  0.71537300  0.97690500  1
  H  1007  1  0.40528000  0.71722000  0.97854500  1
  H  1008  1  0.43761700  0.69189200  0.95238500  1
  H  1011  1  0.62890200  0.73619400  0.99821200  1
  H  1012  1  0.62882600  0.75796400  0.02007700  1
  H  1014  1  0.41530600  0.73606400  0.01991600  1
  H  1015  1  0.41534200  0.75807000  0.99817600  1
  H  1019  1  0.49985700  0.80641000  0.94431000  1
  H  1020  1  0.49976900  0.68761200  0.07379500  1
  H  1021  1  0.54392600  0.68802400  0.94379100  1
  H  1023  1  0.54386200  0.80608200  0.07436600  1
  H  1048  1  0.10626200  0.30277300  0.45266700  1
  H  1049  1  0.13880400  0.27725600  0.47873700  1
  H  1050  1  0.13882500  0.21678000  0.53947800  1
  H  1051  1  0.10629500  0.19115300  0.56544900  1
  H  1052  1  0.99672800  0.21496400  0.54087400  1
  H  1053  1  0.99670400  0.27874800  0.47705100  1
  H  1054  1  0.04728320  0.27858300  0.54120200  1
  H  1055  1  0.93749000  0.30203200  0.56566700  1
  H  1056  1  0.90521200  0.27669800  0.53948800  1
  H  1057  1  0.04740620  0.21524200  0.47683300  1
  H  1058  1  0.90532300  0.21699800  0.47849300  1
  H  1059  1  0.93769500  0.19167900  0.45234000  1
  H  1062  1  0.12894500  0.23613700  0.49817800  1
  H  1063  1  0.12878400  0.25790600  0.52004500  1
  H  1065  1  0.91533500  0.23585100  0.51985800  1
  H  1066  1  0.91531800  0.25785900  0.49811800  1
  H  1070  1  0.99978600  0.30627300  0.44424800  1
  H  1071  1  0.99984500  0.18747300  0.57372900  1
  H  1072  1  0.04399820  0.18788300  0.44371700  1
  H  1074  1  0.04379920  0.30595100  0.57428200  1
  H  1093  1  0.59695600  0.63988600  0.09584700  1
  H  1094  1  0.58880000  0.61072400  0.12529400  1
  H  1095  1  0.48027400  0.66236700  0.10624600  1
  H  1096  1  0.63633300  0.50261200  0.25630000  1
  H  1097  1  0.69110600  0.54574400  0.20596700  1
  H  1098  1  0.75413900  0.53247600  0.21894300  1
  H  1099  1  0.69956800  0.48948900  0.26914600  1
  H  1100  1  0.40937200  0.50708800  0.25879400  1
  H  1101  1  0.29330300  0.52799700  0.21414900  1
  H  1102  1  0.35648000  0.54121600  0.20135000  1
  H  1103  1  0.34603100  0.49395100  0.27140400  1
  H  1110  1  0.58575200  0.57095300  0.18366900  1
  H  1111  1  0.52322700  0.52638200  0.22903500  1
  H  1112  1  0.46182900  0.57097400  0.18311500  1
  H  1113  1  0.47172600  0.63316600  0.13581600  1
  H  1141  1  0.59703900  0.85406100  0.92211400  1
  H  1142  1  0.58885800  0.88314700  0.89259200  1
  H  1143  1  0.48038800  0.83150300  0.91175400  1
  H  1144  1  0.63629900  0.99089293  0.76128100  1
  H  1145  1  0.69106600  0.94797090  0.81179600  1
  H  1146  1  0.75410100  0.96118690  0.79877200  1
  H  1147  1  0.69953700  0.00396000  0.74838100  1
  H  1148  1  0.40911600  0.98537990  0.75820900  1
  H  1149  1  0.29350900  0.96665090  0.80422000  1
  H  1150  1  0.35669100  0.95349590  0.81707300  1
  H  1151  1  0.34577200  0.99846493  0.74555100  1
  H  1158  1  0.58576100  0.92277290  0.83412100  1
  H  1159  1  0.52318900  0.96724290  0.78868200  1
  H  1160  1  0.46183800  0.92272990  0.83470200  1
  H  1161  1  0.47181700  0.86062600  0.88211000  1
  H  1189  1  0.56214000  0.66245600  0.91068800  1
  H  1190  1  0.56874600  0.63340400  0.88088700  1
  H  1191  1  0.44499900  0.64139500  0.92214700  1
  H  1192  1  0.62116900  0.49861700  0.76378500  1
  H  1193  1  0.67713200  0.54881800  0.80625700  1
  H  1194  1  0.73980600  0.53550800  0.79283300  1
  H  1195  1  0.68411400  0.48541800  0.75050200  1
  H  1196  1  0.39422900  0.49780100  0.77161400  1
  H  1197  1  0.27897100  0.54388000  0.79060200  1
  H  1198  1  0.34232600  0.55661700  0.80353400  1
  H  1199  1  0.33075000  0.48526000  0.75875600  1
  H  1206  1  0.57394100  0.57100300  0.83295400  1
  H  1207  1  0.50828700  0.52754700  0.78827300  1
  H  1208  1  0.45010300  0.57305000  0.83449600  1
  H  1209  1  0.45120400  0.61241400  0.89252000  1
  H  1237  1  0.56208800  0.83165300  0.10743900  1
  H  1238  1  0.56873900  0.86072100  0.13721800  1
  H  1239  1  0.44498700  0.85277800  0.09595200  1
  H  1240  1  0.61109700  0.99691693  0.25509200  1
  H  1241  1  0.67977500  0.95020190  0.21527400  1
  H  1242  1  0.73824800  0.96690690  0.23132100  1
  H  1243  1  0.66981500  0.01350800  0.27100900  1
  H  1244  1  0.40441700  0.99735593  0.24826000  1
  H  1245  1  0.27988300  0.95949090  0.23194400  1
  H  1246  1  0.33927400  0.94331390  0.21641000  1
  H  1247  1  0.34490900  0.01332900  0.26369800  1
  H  1254  1  0.57405600  0.92321190  0.18508700  1
  H  1255  1  0.50836300  0.96687690  0.22951500  1
  H  1256  1  0.45014700  0.92126090  0.18344600  1
  H  1257  1  0.45123900  0.88177800  0.12555600  1
  H  1285  1  0.09697220  0.13963700  0.59562800  1
  H  1286  1  0.08880120  0.11043800  0.62503700  1
  H  1287  1  0.98037900  0.16221800  0.60615500  1
  H  1288  1  0.13629800  0.00247800  0.75621500  1
  H  1289  1  0.19107100  0.04543600  0.70573100  1
  H  1290  1  0.25410400  0.03221700  0.71875300  1
  H  1291  1  0.19953600  0.98940890  0.76911300  1
  H  1292  1  0.90912700  0.00796100  0.75928000  1
  H  1293  1  0.79350200  0.02678500  0.71332200  1
  H  1294  1  0.85668800  0.03993900  0.70047100  1
  H  1295  1  0.84578300  0.99487593  0.77193600  1
  H  1302  1  0.08575720  0.07067800  0.68345200  1
  H  1303  1  0.02319420  0.02612600  0.72881400  1
  H  1304  1  0.96183400  0.07071800  0.68287500  1
  H  1305  1  0.97181700  0.13298000  0.63568600  1
  H  1333  1  0.09702520  0.35381500  0.42189700  1
  H  1334  1  0.08886020  0.38286300  0.39233700  1
  H  1335  1  0.98028800  0.33136000  0.41167100  1
  H  1336  1  0.13633000  0.49077600  0.26121000  1
  H  1337  1  0.19110000  0.44764700  0.31154600  1
  H  1338  1  0.25413600  0.46091100  0.29857100  1
  H  1339  1  0.19956800  0.50389500  0.24836200  1
  H  1340  1  0.90937400  0.48629600  0.25872400  1
  H  1341  1  0.79330000  0.46538700  0.30336300  1
  H  1342  1  0.85647300  0.45216800  0.31616600  1
  H  1343  1  0.84603300  0.49943300  0.24610900  1
  H  1350  1  0.08575420  0.42250100  0.33390600  1
  H  1351  1  0.02322320  0.46698600  0.28846200  1
  H  1352  1  0.96183400  0.42247500  0.33446500  1
  H  1353  1  0.97172900  0.36044600  0.38198900  1
  H  1381  1  0.06220820  0.16231200  0.41061000  1
  H  1382  1  0.06883020  0.13324000  0.38082900  1
  H  1383  1  0.94517700  0.14111400  0.42220900  1
  H  1384  1  0.11110500  0.99702493  0.26296200  1
  H  1385  1  0.17973800  0.04374100  0.30280600  1
  H  1386  1  0.23823000  0.02704800  0.28677100  1
  H  1387  1  0.16984100  0.98044490  0.24705400  1
  H  1388  1  0.90439900  0.99659693  0.26987400  1
  H  1389  1  0.77986100  0.03448500  0.28613300  1
  H  1390  1  0.83924700  0.05066600  0.30167200  1
  H  1391  1  0.84489700  0.98061990  0.25443100  1
  H  1398  1  0.07408420  0.07071500  0.33298100  1
  H  1399  1  0.00832124  0.02707700  0.28856500  1
  H  1400  1  0.95017900  0.07269700  0.33466200  1
  H  1401  1  0.95140000  0.11211400  0.39260300  1
  H  1429  1  0.06201520  0.33149100  0.60737900  1
  H  1430  1  0.06865120  0.36054700  0.63717300  1
  H  1431  1  0.94482500  0.35250200  0.59600800  1
  H  1432  1  0.12115800  0.49529700  0.75431200  1
  H  1433  1  0.17717300  0.44516000  0.71178600  1
  H  1434  1  0.23983300  0.45847800  0.72522400  1
  H  1435  1  0.18408800  0.50850600  0.76760700  1
  H  1436  1  0.89425500  0.49614700  0.74652800  1
  H  1437  1  0.77899300  0.45010100  0.72746700  1
  H  1438  1  0.84235200  0.43736600  0.71453800  1
  H  1439  1  0.83077000  0.50868300  0.75938100  1
  H  1446  1  0.07391720  0.42292600  0.68511500  1
  H  1447  1  0.00833024  0.46640600  0.72980900  1
  H  1448  1  0.95007600  0.42090700  0.68361200  1
  H  1449  1  0.95106200  0.38148800  0.62562800  1
  C  1  1  0.97013600  0.97510200  0.99316700  1
  C  2  1  0.92849700  0.97546500  0.99347400  1
  C  3  1  0.92848300  0.00631400  0.02464700  1
  C  4  1  0.97012100  0.00666100  0.02498300  1
  C  5  1  0.98895600  0.02215100  0.04081100  1
  C  6  1  0.96767600  0.03697800  0.05597500  1
  C  7  1  0.92620800  0.03598000  0.05504100  1
  C  8  1  0.90698000  0.02098100  0.03962800  1
  C  9  1  0.90700600  0.96081500  0.97847000  1
  C  10  1  0.92624900  0.94581800  0.96306300  1
  C  11  1  0.96772000  0.94480500  0.96215700  1
  C  12  1  0.98898800  0.95961100  0.97734600  1
  C  13  1  0.01738900  0.00679200  0.99329800  1
  C  14  1  0.05903000  0.00648000  0.99361700  1
  C  15  1  0.05900300  0.97530100  0.02460800  1
  C  16  1  0.01736200  0.97496400  0.02487800  1
  C  17  1  0.08040000  0.96045900  0.03954900  1
  C  18  1  0.06104900  0.94531000  0.05484500  1
  C  19  1  0.01957400  0.94435900  0.05567700  1
  C  20  1  0.99840400  0.95933800  0.04056600  1
  C  21  1  0.99845700  0.02239300  0.97757500  1
  C  22  1  0.01965000  0.03735800  0.96246400  1
  C  23  1  0.06112300  0.03644300  0.96335300  1
  C  24  1  0.08045000  0.02132600  0.97869300  1
  C  37  1  0.99374000  0.99087800  0.00908200  1
  C  38  1  0.08171500  0.99090100  0.00913000  1
  C  41  1  0.90581400  0.99089400  0.00905200  1
  C  44  1  0.00008900  0.92955200  0.07115400  1
  C  45  1  0.98694800  0.93006900  0.94652600  1
  C  46  1  0.00018600  0.05212000  0.94693600  1
  C  50  1  0.98689300  0.05171200  0.07161300  1
  C  52  1  0.47016200  0.47494700  0.49309400  1
  C  53  1  0.42852000  0.47528100  0.49340900  1
  C  54  1  0.42846200  0.50612900  0.52458500  1
  C  55  1  0.47010000  0.50650400  0.52491300  1
  C  56  1  0.48891400  0.52199900  0.54074500  1
  C  57  1  0.46761400  0.53679800  0.55592400  1
  C  58  1  0.42614600  0.53577800  0.55499400  1
  C  59  1  0.40693800  0.52077300  0.53957800  1
  C  60  1  0.40705200  0.46061300  0.47841400  1
  C  61  1  0.42631600  0.44562100  0.46301200  1
  C  62  1  0.46778700  0.44463100  0.46210200  1
  C  63  1  0.48903500  0.45946200  0.47727800  1
  C  64  1  0.51737100  0.50666200  0.49322700  1
  C  65  1  0.55901200  0.50638400  0.49356200  1
  C  66  1  0.55902400  0.47520400  0.52455400  1
  C  67  1  0.51738300  0.47483400  0.52480800  1
  C  68  1  0.58043600  0.46038100  0.53950500  1
  C  69  1  0.56110200  0.44521300  0.55479100  1
  C  70  1  0.51962800  0.44422900  0.55560300  1
  C  71  1  0.49844200  0.45919200  0.54048500  1
  C  72  1  0.49842100  0.52224800  0.47749600  1
  C  73  1  0.51959600  0.53723000  0.46239200  1
  C  74  1  0.56107300  0.53634900  0.46330000  1
  C  75  1  0.58041500  0.52124500  0.47864600  1
  C  88  1  0.49374300  0.49073700  0.50900800  1
  C  89  1  0.58171600  0.49082700  0.50908800  1
  C  92  1  0.40581700  0.49069500  0.50899200  1
  C  95  1  0.50015900  0.42940400  0.57106600  1
  C  96  1  0.48703300  0.42990200  0.44647100  1
  C  97  1  0.50012100  0.55197700  0.44685300  1
  C  101  1  0.48681300  0.55153400  0.57156900  1
  C  103  1  0.12956500  0.76924300  0.22996200  1
  C  104  1  0.00106100  0.86300100  0.13315900  1
  C  105  1  0.86042200  0.76917000  0.22888900  1
  C  106  1  0.96980100  0.87810100  0.12733600  1
  C  107  1  0.97472300  0.89520300  0.10992600  1
  C  108  1  0.01091900  0.89742800  0.09808500  1
  C  109  1  0.04198100  0.88226900  0.10399000  1
  C  110  1  0.03718500  0.86515900  0.12131700  1
  C  111  1  0.16411600  0.77772500  0.21932900  1
  C  112  1  0.20115500  0.76994100  0.22693000  1
  C  113  1  0.20445700  0.75364800  0.24526000  1
  C  114  1  0.16973700  0.74519800  0.25587000  1
  C  115  1  0.13260900  0.75290400  0.24829900  1
  C  116  1  0.85681500  0.75542100  0.24920200  1
  C  117  1  0.81962300  0.74768100  0.25661400  1
  C  118  1  0.78540200  0.75354000  0.24389600  1
  C  119  1  0.78926500  0.76732200  0.22364700  1
  C  120  1  0.82638300  0.77506900  0.21614300  1
  C  132  1  0.95920200  0.79134100  0.20730400  1
  C  133  1  0.99506400  0.78276200  0.21624100  1
  C  134  1  0.03115100  0.79132700  0.20763000  1
  C  135  1  0.03121600  0.80854300  0.19000100  1
  C  136  1  0.99547800  0.81720500  0.18098900  1
  C  137  1  0.95953400  0.80855700  0.18967900  1
  C  142  1  0.89476600  0.77644300  0.22193100  1
  C  143  1  0.92581500  0.78340100  0.21515900  1
  C  144  1  0.99731500  0.84743400  0.14959000  1
  C  145  1  0.99578300  0.83303200  0.16463100  1
  C  146  1  0.06436100  0.78338200  0.21577900  1
  C  147  1  0.09527900  0.77644600  0.22279600  1
  C  151  1  0.12953100  0.21203300  0.78771300  1
  C  152  1  0.00113100  0.11848400  0.88474100  1
  C  153  1  0.86040100  0.21209600  0.78883100  1
  C  154  1  0.96988900  0.10338600  0.89059600  1
  C  155  1  0.97482600  0.08632900  0.90805000  1
  C  156  1  0.01102000  0.08415200  0.91990400  1
  C  157  1  0.04206600  0.09930700  0.91396200  1
  C  158  1  0.03725600  0.11637100  0.89659100  1
  C  159  1  0.16407800  0.20359500  0.79838600  1
  C  160  1  0.20111800  0.21134900  0.79075700  1
  C  161  1  0.20442000  0.22755700  0.77235100  1
  C  162  1  0.16970400  0.23596600  0.76170400  1
  C  163  1  0.13257500  0.22829400  0.76930800  1
  C  164  1  0.85665900  0.22518100  0.76809500  1
  C  165  1  0.81947000  0.23289100  0.76065700  1
  C  166  1  0.78538100  0.22766100  0.77376500  1
  C  167  1  0.78937600  0.21453300  0.79443600  1
  C  168  1  0.82649700  0.20682400  0.80197100  1
  C  180  1  0.95918800  0.18998400  0.81046100  1
  C  181  1  0.99503500  0.19855100  0.80150000  1
  C  182  1  0.03113200  0.19001000  0.81012200  1
  C  183  1  0.03121800  0.17282900  0.82778300  1
  C  184  1  0.99549000  0.16417800  0.83681900  1
  C  185  1  0.95953400  0.17280300  0.82812100  1
  C  190  1  0.89474300  0.20483900  0.79580800  1
  C  191  1  0.92579400  0.19790000  0.80259600  1
  C  192  1  0.99736800  0.13401300  0.86827500  1
  C  193  1  0.99581600  0.14838300  0.85320600  1
  C  194  1  0.06433200  0.19794000  0.80194600  1
  C  195  1  0.09524600  0.20485600  0.79490400  1
  C  199  1  0.11499000  0.76876600  0.78626600  1
  C  200  1  0.98233700  0.86396500  0.88404500  1
  C  201  1  0.84585800  0.77223500  0.78874100  1
  C  202  1  0.94666900  0.86650500  0.89628400  1
  C  203  1  0.94301800  0.88351500  0.91372700  1
  C  204  1  0.97477900  0.89822400  0.91938100  1
  C  205  1  0.01054500  0.89561400  0.90718100  1
  C  206  1  0.01431000  0.87860700  0.88963900  1
  C  207  1  0.14980400  0.77925200  0.79450300  1
  C  208  1  0.18664800  0.77145000  0.78662500  1
  C  209  1  0.18954800  0.75304000  0.77048300  1
  C  210  1  0.15458100  0.74257600  0.76226800  1
  C  211  1  0.11762900  0.75035800  0.77006600  1
  C  212  1  0.84185700  0.75154100  0.77571000  1
  C  213  1  0.80455700  0.74416500  0.76812800  1
  C  214  1  0.77052100  0.75727800  0.77342100  1
  C  215  1  0.77476200  0.77790200  0.78650100  1
  C  216  1  0.81200000  0.78537400  0.79408000  1
  C  228  1  0.94572100  0.79302700  0.81020100  1
  C  229  1  0.98099300  0.78388800  0.80102500  1
  C  230  1  0.01769100  0.79183400  0.80930500  1
  C  231  1  0.01898900  0.80902800  0.82686400  1
  C  232  1  0.98391000  0.81827700  0.83614000  1
  C  233  1  0.94735600  0.81021400  0.82775700  1
  C  238  1  0.88039000  0.77913200  0.79586400  1
  C  239  1  0.91174900  0.78565100  0.80258600  1
  C  240  1  0.98493200  0.84845600  0.86751000  1
  C  241  1  0.98514900  0.83409100  0.85246400  1
  C  242  1  0.05035900  0.78338700  0.80088300  1
  C  243  1  0.08090300  0.77612200  0.79364000  1
  C  247  1  0.11168300  0.21583400  0.23372200  1
  C  248  1  0.98235200  0.11785500  0.13404400  1
  C  249  1  0.84902200  0.21268500  0.23087700  1
  C  250  1  0.94668100  0.11533000  0.12180500  1
  C  251  1  0.94300600  0.09830900  0.10437400  1
  C  252  1  0.97474400  0.08357400  0.09873400  1
  C  253  1  0.01051000  0.08617100  0.11093700  1
  C  254  1  0.01430100  0.10318900  0.12846600  1
  C  255  1  0.14891000  0.20735400  0.22703300  1
  C  256  1  0.18329300  0.21714900  0.23646700  1
  C  257  1  0.18118200  0.23560000  0.25273800  1
  C  258  1  0.14386300  0.24399800  0.25929300  1
  C  259  1  0.10939300  0.23423600  0.24993800  1
  C  260  1  0.85004000  0.23302000  0.24465000  1
  C  261  1  0.81509700  0.24241800  0.25373500  1
  C  262  1  0.77853100  0.23180300  0.24924200  1
  C  263  1  0.77763000  0.21142600  0.23542600  1
  C  264  1  0.81253500  0.20193400  0.22632800  1
  C  276  1  0.94580000  0.18898300  0.20767100  1
  C  277  1  0.98107200  0.19812300  0.21682800  1
  C  278  1  0.01776900  0.19012200  0.20862100  1
  C  279  1  0.01909200  0.17286500  0.19113300  1
  C  280  1  0.98399000  0.16361500  0.18186800  1
  C  281  1  0.94741500  0.17173500  0.19018500  1
  C  286  1  0.88157900  0.20401700  0.22256200  1
  C  287  1  0.91199600  0.19659400  0.21529000  1
  C  288  1  0.98497900  0.13338000  0.15055900  1
  C  289  1  0.98522500  0.14776600  0.16558400  1
  C  290  1  0.05024200  0.19873900  0.21711000  1
  C  291  1  0.07972100  0.20682100  0.22499700  1
  C  295  1  0.62953300  0.26901900  0.72979900  1
  C  296  1  0.50110400  0.36276100  0.63296100  1
  C  297  1  0.36040400  0.26895400  0.72868600  1
  C  298  1  0.46987400  0.37790200  0.62718600  1
  C  299  1  0.47480200  0.39502400  0.60979900  1
  C  300  1  0.51097800  0.39723100  0.59793100  1
  C  301  1  0.54201200  0.38203300  0.60379000  1
  C  302  1  0.53720700  0.36490200  0.62109400  1
  C  303  1  0.66408200  0.27746600  0.71913400  1
  C  304  1  0.70112100  0.26971000  0.72676300  1
  C  305  1  0.70442100  0.25349000  0.74515900  1
  C  306  1  0.66970300  0.24507300  0.75579700  1
  C  307  1  0.63257600  0.25274600  0.74819300  1
  C  308  1  0.35666700  0.25584300  0.74940400  1
  C  309  1  0.31947600  0.24813100  0.75684300  1
  C  310  1  0.28538100  0.25338900  0.74374800  1
  C  311  1  0.28937200  0.26654500  0.72309400  1
  C  312  1  0.32649400  0.27425400  0.71556200  1
  C  324  1  0.45919000  0.29108200  0.70707100  1
  C  325  1  0.49504000  0.28249900  0.71601500  1
  C  326  1  0.53113400  0.29105800  0.70740900  1
  C  327  1  0.53121600  0.30827000  0.68977700  1
  C  328  1  0.49548600  0.31693500  0.68075600  1
  C  329  1  0.45953300  0.30829600  0.68944300  1
  C  334  1  0.39474500  0.27621300  0.72171000  1
  C  335  1  0.42579600  0.28315700  0.71492800  1
  C  336  1  0.49735300  0.34717900  0.64937500  1
  C  337  1  0.49580900  0.33276700  0.66440500  1
  C  338  1  0.56433400  0.28311900  0.71557400  1
  C  339  1  0.59525000  0.27619800  0.72260900  1
  C  343  1  0.62956200  0.71180800  0.28755000  1
  C  344  1  0.50109200  0.61824700  0.38454500  1
  C  345  1  0.36042100  0.71187800  0.28862600  1
  C  346  1  0.46982100  0.60318800  0.39045300  1
  C  347  1  0.47474600  0.58615500  0.40792700  1
  C  348  1  0.51096300  0.58395900  0.41975500  1
  C  349  1  0.54203800  0.59907300  0.41376400  1
  C  350  1  0.53723600  0.61611500  0.39636900  1
  C  351  1  0.66411200  0.70332600  0.29818500  1
  C  352  1  0.70115100  0.71110800  0.29058200  1
  C  353  1  0.70445600  0.72740100  0.27225100  1
  C  354  1  0.66973600  0.73585000  0.26164100  1
  C  355  1  0.63260900  0.72814500  0.26921200  1
  C  356  1  0.35681400  0.72562500  0.26831400  1
  C  357  1  0.31962500  0.73336500  0.26090000  1
  C  358  1  0.28540000  0.72750600  0.27361600  1
  C  359  1  0.28926200  0.71372400  0.29386500  1
  C  360  1  0.32637900  0.70597700  0.30137000  1
  C  372  1  0.45920200  0.68972600  0.31022900  1
  C  373  1  0.49506100  0.69829000  0.30127600  1
  C  374  1  0.53114900  0.68974200  0.30990200  1
  C  375  1  0.53121900  0.67255800  0.32756100  1
  C  376  1  0.49548300  0.66391100  0.33659000  1
  C  377  1  0.45953600  0.67254100  0.32788700  1
  C  382  1  0.39476600  0.70460700  0.29558800  1
  C  383  1  0.42581400  0.69765400  0.30236700  1
  C  384  1  0.49733500  0.63376000  0.36806400  1
  C  385  1  0.49579400  0.64812100  0.35298400  1
  C  386  1  0.56435700  0.69768000  0.30174100  1
  C  387  1  0.59527600  0.70460800  0.29471900  1
  C  391  1  0.61166900  0.26577000  0.28434400  1
  C  392  1  0.48247800  0.36373300  0.38406000  1
  C  393  1  0.34899800  0.26894400  0.28723200  1
  C  394  1  0.44683600  0.36623800  0.39633200  1
  C  395  1  0.44317600  0.38325700  0.41376400  1
  C  396  1  0.47490500  0.39801300  0.41937200  1
  C  397  1  0.51064100  0.39543700  0.40713800  1
  C  398  1  0.51441500  0.37841900  0.38960600  1
  C  399  1  0.64888700  0.27425400  0.29104400  1
  C  400  1  0.68328100  0.26446400  0.28161600  1
  C  401  1  0.68118600  0.24601800  0.26534200  1
  C  402  1  0.64387400  0.23761500  0.25877300  1
  C  403  1  0.60939400  0.24737200  0.26812400  1
  C  404  1  0.35001900  0.24859900  0.27347200  1
  C  405  1  0.31508200  0.23919800  0.26438400  1
  C  406  1  0.27851300  0.24982000  0.26886100  1
  C  407  1  0.27760900  0.27020600  0.28266400  1
  C  408  1  0.31251100  0.27970200  0.29176700  1
  C  420  1  0.44579400  0.29263700  0.31042500  1
  C  421  1  0.48105100  0.28349000  0.30125400  1
  C  422  1  0.51775800  0.29148100  0.30945100  1
  C  423  1  0.51911100  0.30873200  0.32694200  1
  C  424  1  0.48402400  0.31798900  0.33621900  1
  C  425  1  0.44743500  0.30988100  0.32791500  1
  C  430  1  0.38155500  0.27761500  0.29554800  1
  C  431  1  0.41197800  0.28503300  0.30281400  1
  C  432  1  0.48507800  0.34821300  0.36753900  1
  C  433  1  0.48528900  0.33383300  0.35250900  1
  C  434  1  0.55021800  0.28285800  0.30095100  1
  C  435  1  0.57969900  0.27477700  0.29306400  1
  C  439  1  0.61500300  0.71284100  0.73180100  1
  C  440  1  0.48222200  0.61762500  0.63405900  1
  C  441  1  0.34588300  0.70939300  0.72936700  1
  C  442  1  0.44652800  0.61506800  0.62184800  1
  C  443  1  0.44285900  0.59805600  0.60440900  1
  C  444  1  0.47462900  0.58335800  0.59873000  1
  C  445  1  0.51041500  0.58598400  0.61090400  1
  C  446  1  0.51419800  0.60299300  0.62844300  1
  C  447  1  0.64982900  0.70237700  0.72355300  1
  C  448  1  0.68666600  0.71018500  0.73143900  1
  C  449  1  0.68954800  0.72857900  0.74760000  1
  C  450  1  0.65457000  0.73902000  0.75582700  1
  C  451  1  0.61762500  0.73123300  0.74802000  1
  C  452  1  0.34188000  0.73007500  0.74241700  1
  C  453  1  0.30458000  0.73745100  0.74999500  1
  C  454  1  0.27054100  0.72434700  0.74468100  1
  C  455  1  0.27478300  0.70373200  0.73158400  1
  C  456  1  0.31202300  0.69626200  0.72400800  1
  C  468  1  0.44573200  0.68859200  0.70789400  1
  C  469  1  0.48101900  0.69772500  0.71705700  1
  C  470  1  0.51770300  0.68976900  0.70876700  1
  C  471  1  0.51897300  0.67257100  0.69121200  1
  C  472  1  0.48388100  0.66332800  0.68194800  1
  C  473  1  0.44734100  0.67140200  0.69034000  1
  C  478  1  0.38041600  0.70249700  0.72224500  1
  C  479  1  0.41176900  0.69597700  0.71552000  1
  C  480  1  0.48484300  0.63314000  0.65058500  1
  C  481  1  0.48509300  0.64751000  0.66562800  1
  C  482  1  0.55038000  0.69821100  0.71718100  1
  C  483  1  0.58092300  0.70547700  0.72442300  1
  C  487  1  0.23430100  0.85318600  0.99316700  1
  C  488  1  0.19266200  0.85354900  0.99347400  1
  C  489  1  0.19264800  0.88439800  0.02464700  1
  C  490  1  0.23428600  0.88474500  0.02498300  1
  C  491  1  0.25312100  0.90023550  0.04081100  1
  C  492  1  0.23184100  0.91506250  0.05597500  1
  C  493  1  0.19037300  0.91406450  0.05504100  1
  C  494  1  0.17114500  0.89906500  0.03962800  1
  C  495  1  0.17117100  0.83889900  0.97847000  1
  C  496  1  0.19041400  0.82390200  0.96306300  1
  C  497  1  0.23188500  0.82288900  0.96215700  1
  C  498  1  0.25315300  0.83769500  0.97734600  1
  C  499  1  0.28155400  0.88487600  0.99329800  1
  C  500  1  0.32319500  0.88456400  0.99361700  1
  C  501  1  0.32316800  0.85338500  0.02460800  1
  C  502  1  0.28152700  0.85304800  0.02487800  1
  C  503  1  0.34456500  0.83854300  0.03954900  1
  C  504  1  0.32521400  0.82339400  0.05484500  1
  C  505  1  0.28373900  0.82244300  0.05567700  1
  C  506  1  0.26256900  0.83742200  0.04056600  1
  C  507  1  0.26262200  0.90047750  0.97757500  1
  C  508  1  0.28381500  0.91544250  0.96246400  1
  C  509  1  0.32528800  0.91452750  0.96335300  1
  C  510  1  0.34461500  0.89941000  0.97869300  1
  C  523  1  0.25790500  0.86896200  0.00908200  1
  C  524  1  0.34588000  0.86898500  0.00913000  1
  C  527  1  0.16997900  0.86897800  0.00905200  1
  C  530  1  0.26425400  0.80763600  0.07115400  1
  C  531  1  0.25111300  0.80815300  0.94652600  1
  C  532  1  0.26435100  0.93020450  0.94693600  1
  C  536  1  0.25105800  0.92979650  0.07161300  1
  C  538  1  0.73432700  0.35303100  0.49309400  1
  C  539  1  0.69268500  0.35336500  0.49340900  1
  C  540  1  0.69262700  0.38421300  0.52458500  1
  C  541  1  0.73426500  0.38458800  0.52491300  1
  C  542  1  0.75307900  0.40008300  0.54074500  1
  C  543  1  0.73177900  0.41488200  0.55592400  1
  C  544  1  0.69031100  0.41386200  0.55499400  1
  C  545  1  0.67110300  0.39885700  0.53957800  1
  C  546  1  0.67121700  0.33869700  0.47841400  1
  C  547  1  0.69048100  0.32370500  0.46301200  1
  C  548  1  0.73195200  0.32271500  0.46210200  1
  C  549  1  0.75320000  0.33754600  0.47727800  1
  C  550  1  0.78153600  0.38474600  0.49322700  1
  C  551  1  0.82317700  0.38446800  0.49356200  1
  C  552  1  0.82318900  0.35328800  0.52455400  1
  C  553  1  0.78154800  0.35291800  0.52480800  1
  C  554  1  0.84460100  0.33846500  0.53950500  1
  C  555  1  0.82526700  0.32329700  0.55479100  1
  C  556  1  0.78379300  0.32231300  0.55560300  1
  C  557  1  0.76260700  0.33727600  0.54048500  1
  C  558  1  0.76258600  0.40033200  0.47749600  1
  C  559  1  0.78376100  0.41531400  0.46239200  1
  C  560  1  0.82523800  0.41443300  0.46330000  1
  C  561  1  0.84458000  0.39932900  0.47864600  1
  C  574  1  0.75790800  0.36882100  0.50900800  1
  C  575  1  0.84588100  0.36891100  0.50908800  1
  C  578  1  0.66998200  0.36877900  0.50899200  1
  C  581  1  0.76432400  0.30748800  0.57106600  1
  C  582  1  0.75119800  0.30798600  0.44647100  1
  C  583  1  0.76428600  0.43006100  0.44685300  1
  C  587  1  0.75097800  0.42961800  0.57156900  1
  C  589  1  0.39373000  0.64732700  0.22996200  1
  C  590  1  0.26522600  0.74108500  0.13315900  1
  C  591  1  0.12458700  0.64725400  0.22888900  1
  C  592  1  0.23396600  0.75618500  0.12733600  1
  C  593  1  0.23888800  0.77328700  0.10992600  1
  C  594  1  0.27508400  0.77551200  0.09808500  1
  C  595  1  0.30614600  0.76035300  0.10399000  1
  C  596  1  0.30135000  0.74324300  0.12131700  1
  C  597  1  0.42828100  0.65580900  0.21932900  1
  C  598  1  0.46532000  0.64802500  0.22693000  1
  C  599  1  0.46862200  0.63173200  0.24526000  1
  C  600  1  0.43390200  0.62328200  0.25587000  1
  C  601  1  0.39677400  0.63098800  0.24829900  1
  C  602  1  0.12098000  0.63350500  0.24920200  1
  C  603  1  0.08378810  0.62576500  0.25661400  1
  C  604  1  0.04956710  0.63162400  0.24389600  1
  C  605  1  0.05343010  0.64540600  0.22364700  1
  C  606  1  0.09054810  0.65315300  0.21614300  1
  C  618  1  0.22336700  0.66942500  0.20730400  1
  C  619  1  0.25922900  0.66084600  0.21624100  1
  C  620  1  0.29531600  0.66941100  0.20763000  1
  C  621  1  0.29538100  0.68662700  0.19000100  1
  C  622  1  0.25964300  0.69528900  0.18098900  1
  C  623  1  0.22369900  0.68664100  0.18967900  1
  C  628  1  0.15893100  0.65452700  0.22193100  1
  C  629  1  0.18998000  0.66148500  0.21515900  1
  C  630  1  0.26148000  0.72551800  0.14959000  1
  C  631  1  0.25994800  0.71111600  0.16463100  1
  C  632  1  0.32852600  0.66146600  0.21577900  1
  C  633  1  0.35944400  0.65453000  0.22279600  1
  C  637  1  0.39369600  0.09011700  0.78771300  1
  C  638  1  0.26529600  0.99656846  0.88474100  1
  C  639  1  0.12456600  0.09018000  0.78883100  1
  C  640  1  0.23405400  0.98147050  0.89059600  1
  C  641  1  0.23899100  0.96441350  0.90805000  1
  C  642  1  0.27518500  0.96223650  0.91990400  1
  C  643  1  0.30623100  0.97739150  0.91396200  1
  C  644  1  0.30142100  0.99445546  0.89659100  1
  C  645  1  0.42824300  0.08167900  0.79838600  1
  C  646  1  0.46528300  0.08943300  0.79075700  1
  C  647  1  0.46858500  0.10564100  0.77235100  1
  C  648  1  0.43386900  0.11405000  0.76170400  1
  C  649  1  0.39674000  0.10637800  0.76930800  1
  C  650  1  0.12082400  0.10326500  0.76809500  1
  C  651  1  0.08363510  0.11097500  0.76065700  1
  C  652  1  0.04954610  0.10574500  0.77376500  1
  C  653  1  0.05354110  0.09261700  0.79443600  1
  C  654  1  0.09066210  0.08490800  0.80197100  1
  C  666  1  0.22335300  0.06806800  0.81046100  1
  C  667  1  0.25920000  0.07663500  0.80150000  1
  C  668  1  0.29529700  0.06809400  0.81012200  1
  C  669  1  0.29538300  0.05091300  0.82778300  1
  C  670  1  0.25965500  0.04226200  0.83681900  1
  C  671  1  0.22369900  0.05088700  0.82812100  1
  C  676  1  0.15890800  0.08292300  0.79580800  1
  C  677  1  0.18995900  0.07598400  0.80259600  1
  C  678  1  0.26153300  0.01209700  0.86827500  1
  C  679  1  0.25998100  0.02646700  0.85320600  1
  C  680  1  0.32849700  0.07602400  0.80194600  1
  C  681  1  0.35941100  0.08294000  0.79490400  1
  C  685  1  0.37915500  0.64685000  0.78626600  1
  C  686  1  0.24650200  0.74204900  0.88404500  1
  C  687  1  0.11002300  0.65031900  0.78874100  1
  C  688  1  0.21083400  0.74458900  0.89628400  1
  C  689  1  0.20718300  0.76159900  0.91372700  1
  C  690  1  0.23894400  0.77630800  0.91938100  1
  C  691  1  0.27471000  0.77369800  0.90718100  1
  C  692  1  0.27847500  0.75669100  0.88963900  1
  C  693  1  0.41396900  0.65733600  0.79450300  1
  C  694  1  0.45081300  0.64953400  0.78662500  1
  C  695  1  0.45371300  0.63112400  0.77048300  1
  C  696  1  0.41874600  0.62066000  0.76226800  1
  C  697  1  0.38179400  0.62844200  0.77006600  1
  C  698  1  0.10602200  0.62962500  0.77571000  1
  C  699  1  0.06872210  0.62224900  0.76812800  1
  C  700  1  0.03468610  0.63536200  0.77342100  1
  C  701  1  0.03892710  0.65598600  0.78650100  1
  C  702  1  0.07616510  0.66345800  0.79408000  1
  C  714  1  0.20988600  0.67111100  0.81020100  1
  C  715  1  0.24515800  0.66197200  0.80102500  1
  C  716  1  0.28185600  0.66991800  0.80930500  1
  C  717  1  0.28315400  0.68711200  0.82686400  1
  C  718  1  0.24807500  0.69636100  0.83614000  1
  C  719  1  0.21152100  0.68829800  0.82775700  1
  C  724  1  0.14455500  0.65721600  0.79586400  1
  C  725  1  0.17591400  0.66373500  0.80258600  1
  C  726  1  0.24909700  0.72654000  0.86751000  1
  C  727  1  0.24931400  0.71217500  0.85246400  1
  C  728  1  0.31452400  0.66147100  0.80088300  1
  C  729  1  0.34506800  0.65420600  0.79364000  1
  C  733  1  0.37584800  0.09391800  0.23372200  1
  C  734  1  0.24651700  0.99593946  0.13404400  1
  C  735  1  0.11318700  0.09076900  0.23087700  1
  C  736  1  0.21084600  0.99341446  0.12180500  1
  C  737  1  0.20717100  0.97639350  0.10437400  1
  C  738  1  0.23890900  0.96165850  0.09873400  1
  C  739  1  0.27467500  0.96425550  0.11093700  1
  C  740  1  0.27846600  0.98127350  0.12846600  1
  C  741  1  0.41307500  0.08543800  0.22703300  1
  C  742  1  0.44745800  0.09523300  0.23646700  1
  C  743  1  0.44534700  0.11368400  0.25273800  1
  C  744  1  0.40802800  0.12208200  0.25929300  1
  C  745  1  0.37355800  0.11232000  0.24993800  1
  C  746  1  0.11420500  0.11110400  0.24465000  1
  C  747  1  0.07926210  0.12050200  0.25373500  1
  C  748  1  0.04269610  0.10988700  0.24924200  1
  C  749  1  0.04179510  0.08951000  0.23542600  1
  C  750  1  0.07670010  0.08001800  0.22632800  1
  C  762  1  0.20996500  0.06706700  0.20767100  1
  C  763  1  0.24523700  0.07620700  0.21682800  1
  C  764  1  0.28193400  0.06820600  0.20862100  1
  C  765  1  0.28325700  0.05094900  0.19113300  1
  C  766  1  0.24815500  0.04169900  0.18186800  1
  C  767  1  0.21158000  0.04981900  0.19018500  1
  C  772  1  0.14574400  0.08210100  0.22256200  1
  C  773  1  0.17616100  0.07467800  0.21529000  1
  C  774  1  0.24914400  0.01146400  0.15055900  1
  C  775  1  0.24939000  0.02585000  0.16558400  1
  C  776  1  0.31440700  0.07682300  0.21711000  1
  C  777  1  0.34388600  0.08490500  0.22499700  1
  C  781  1  0.89369800  0.14710300  0.72979900  1
  C  782  1  0.76526900  0.24084500  0.63296100  1
  C  783  1  0.62456900  0.14703800  0.72868600  1
  C  784  1  0.73403900  0.25598600  0.62718600  1
  C  785  1  0.73896700  0.27310800  0.60979900  1
  C  786  1  0.77514300  0.27531500  0.59793100  1
  C  787  1  0.80617700  0.26011700  0.60379000  1
  C  788  1  0.80137200  0.24298600  0.62109400  1
  C  789  1  0.92824700  0.15555000  0.71913400  1
  C  790  1  0.96528600  0.14779400  0.72676300  1
  C  791  1  0.96858600  0.13157400  0.74515900  1
  C  792  1  0.93386800  0.12315700  0.75579700  1
  C  793  1  0.89674100  0.13083000  0.74819300  1
  C  794  1  0.62083200  0.13392700  0.74940400  1
  C  795  1  0.58364100  0.12621500  0.75684300  1
  C  796  1  0.54954600  0.13147300  0.74374800  1
  C  797  1  0.55353700  0.14462900  0.72309400  1
  C  798  1  0.59065900  0.15233800  0.71556200  1
  C  810  1  0.72335500  0.16916600  0.70707100  1
  C  811  1  0.75920500  0.16058300  0.71601500  1
  C  812  1  0.79529900  0.16914200  0.70740900  1
  C  813  1  0.79538100  0.18635400  0.68977700  1
  C  814  1  0.75965100  0.19501900  0.68075600  1
  C  815  1  0.72369800  0.18638000  0.68944300  1
  C  820  1  0.65891000  0.15429700  0.72171000  1
  C  821  1  0.68996100  0.16124100  0.71492800  1
  C  822  1  0.76151800  0.22526300  0.64937500  1
  C  823  1  0.75997400  0.21085100  0.66440500  1
  C  824  1  0.82849900  0.16120300  0.71557400  1
  C  825  1  0.85941500  0.15428200  0.72260900  1
  C  829  1  0.89372700  0.58989200  0.28755000  1
  C  830  1  0.76525700  0.49633100  0.38454500  1
  C  831  1  0.62458600  0.58996200  0.28862600  1
  C  832  1  0.73398600  0.48127200  0.39045300  1
  C  833  1  0.73891100  0.46423900  0.40792700  1
  C  834  1  0.77512800  0.46204300  0.41975500  1
  C  835  1  0.80620300  0.47715700  0.41376400  1
  C  836  1  0.80140100  0.49419900  0.39636900  1
  C  837  1  0.92827700  0.58141000  0.29818500  1
  C  838  1  0.96531600  0.58919200  0.29058200  1
  C  839  1  0.96862100  0.60548500  0.27225100  1
  C  840  1  0.93390100  0.61393400  0.26164100  1
  C  841  1  0.89677400  0.60622900  0.26921200  1
  C  842  1  0.62097900  0.60370900  0.26831400  1
  C  843  1  0.58379000  0.61144900  0.26090000  1
  C  844  1  0.54956500  0.60559000  0.27361600  1
  C  845  1  0.55342700  0.59180800  0.29386500  1
  C  846  1  0.59054400  0.58406100  0.30137000  1
  C  858  1  0.72336700  0.56781000  0.31022900  1
  C  859  1  0.75922600  0.57637400  0.30127600  1
  C  860  1  0.79531400  0.56782600  0.30990200  1
  C  861  1  0.79538400  0.55064200  0.32756100  1
  C  862  1  0.75964800  0.54199500  0.33659000  1
  C  863  1  0.72370100  0.55062500  0.32788700  1
  C  868  1  0.65893100  0.58269100  0.29558800  1
  C  869  1  0.68997900  0.57573800  0.30236700  1
  C  870  1  0.76150000  0.51184400  0.36806400  1
  C  871  1  0.75995900  0.52620500  0.35298400  1
  C  872  1  0.82852200  0.57576400  0.30174100  1
  C  873  1  0.85944100  0.58269200  0.29471900  1
  C  877  1  0.87583400  0.14385400  0.28434400  1
  C  878  1  0.74664300  0.24181700  0.38406000  1
  C  879  1  0.61316300  0.14702800  0.28723200  1
  C  880  1  0.71100100  0.24432200  0.39633200  1
  C  881  1  0.70734100  0.26134100  0.41376400  1
  C  882  1  0.73907000  0.27609700  0.41937200  1
  C  883  1  0.77480600  0.27352100  0.40713800  1
  C  884  1  0.77858000  0.25650300  0.38960600  1
  C  885  1  0.91305200  0.15233800  0.29104400  1
  C  886  1  0.94744600  0.14254800  0.28161600  1
  C  887  1  0.94535100  0.12410200  0.26534200  1
  C  888  1  0.90803900  0.11569900  0.25877300  1
  C  889  1  0.87355900  0.12545600  0.26812400  1
  C  890  1  0.61418400  0.12668300  0.27347200  1
  C  891  1  0.57924700  0.11728200  0.26438400  1
  C  892  1  0.54267800  0.12790400  0.26886100  1
  C  893  1  0.54177400  0.14829000  0.28266400  1
  C  894  1  0.57667600  0.15778600  0.29176700  1
  C  906  1  0.70995900  0.17072100  0.31042500  1
  C  907  1  0.74521600  0.16157400  0.30125400  1
  C  908  1  0.78192300  0.16956500  0.30945100  1
  C  909  1  0.78327600  0.18681600  0.32694200  1
  C  910  1  0.74818900  0.19607300  0.33621900  1
  C  911  1  0.71160000  0.18796500  0.32791500  1
  C  916  1  0.64572000  0.15569900  0.29554800  1
  C  917  1  0.67614300  0.16311700  0.30281400  1
  C  918  1  0.74924300  0.22629700  0.36753900  1
  C  919  1  0.74945400  0.21191700  0.35250900  1
  C  920  1  0.81438300  0.16094200  0.30095100  1
  C  921  1  0.84386400  0.15286100  0.29306400  1
  C  925  1  0.87916800  0.59092500  0.73180100  1
  C  926  1  0.74638700  0.49570900  0.63405900  1
  C  927  1  0.61004800  0.58747700  0.72936700  1
  C  928  1  0.71069300  0.49315200  0.62184800  1
  C  929  1  0.70702400  0.47614000  0.60440900  1
  C  930  1  0.73879400  0.46144200  0.59873000  1
  C  931  1  0.77458000  0.46406800  0.61090400  1
  C  932  1  0.77836300  0.48107700  0.62844300  1
  C  933  1  0.91399400  0.58046100  0.72355300  1
  C  934  1  0.95083100  0.58826900  0.73143900  1
  C  935  1  0.95371300  0.60666300  0.74760000  1
  C  936  1  0.91873500  0.61710400  0.75582700  1
  C  937  1  0.88179000  0.60931700  0.74802000  1
  C  938  1  0.60604500  0.60815900  0.74241700  1
  C  939  1  0.56874500  0.61553500  0.74999500  1
  C  940  1  0.53470600  0.60243100  0.74468100  1
  C  941  1  0.53894800  0.58181600  0.73158400  1
  C  942  1  0.57618800  0.57434600  0.72400800  1
  C  954  1  0.70989700  0.56667600  0.70789400  1
  C  955  1  0.74518400  0.57580900  0.71705700  1
  C  956  1  0.78186800  0.56785300  0.70876700  1
  C  957  1  0.78313800  0.55065500  0.69121200  1
  C  958  1  0.74804600  0.54141200  0.68194800  1
  C  959  1  0.71150600  0.54948600  0.69034000  1
  C  964  1  0.64458100  0.58058100  0.72224500  1
  C  965  1  0.67593400  0.57406100  0.71552000  1
  C  966  1  0.74900800  0.51122400  0.65058500  1
  C  967  1  0.74925800  0.52559400  0.66562800  1
  C  968  1  0.81454500  0.57629500  0.71718100  1
  C  969  1  0.84508800  0.58356100  0.72442300  1
  C  973  1  0.49846600  0.73127100  0.99316700  1
  C  974  1  0.45682700  0.73163400  0.99347400  1
  C  975  1  0.45681300  0.76248300  0.02464700  1
  C  976  1  0.49845100  0.76283000  0.02498300  1
  C  977  1  0.51728600  0.77832000  0.04081100  1
  C  978  1  0.49600600  0.79314700  0.05597500  1
  C  979  1  0.45453800  0.79214900  0.05504100  1
  C  980  1  0.43531000  0.77715000  0.03962800  1
  C  981  1  0.43533600  0.71698400  0.97847000  1
  C  982  1  0.45457900  0.70198700  0.96306300  1
  C  983  1  0.49605000  0.70097400  0.96215700  1
  C  984  1  0.51731800  0.71578000  0.97734600  1
  C  985  1  0.54571900  0.76296100  0.99329800  1
  C  986  1  0.58736000  0.76264900  0.99361700  1
  C  987  1  0.58733300  0.73147000  0.02460800  1
  C  988  1  0.54569200  0.73113300  0.02487800  1
  C  989  1  0.60873000  0.71662800  0.03954900  1
  C  990  1  0.58937900  0.70147900  0.05484500  1
  C  991  1  0.54790400  0.70052800  0.05567700  1
  C  992  1  0.52673400  0.71550700  0.04056600  1
  C  993  1  0.52678700  0.77856200  0.97757500  1
  C  994  1  0.54798000  0.79352700  0.96246400  1
  C  995  1  0.58945300  0.79261200  0.96335300  1
  C  996  1  0.60878000  0.77749500  0.97869300  1
  C  1009  1  0.52207000  0.74704700  0.00908200  1
  C  1010  1  0.61004500  0.74707000  0.00913000  1
  C  1013  1  0.43414400  0.74706300  0.00905200  1
  C  1016  1  0.52841900  0.68572100  0.07115400  1
  C  1017  1  0.51527800  0.68623800  0.94652600  1
  C  1018  1  0.52851600  0.80828900  0.94693600  1
  C  1022  1  0.51522300  0.80788100  0.07161300  1
  C  1024  1  0.99849200  0.23111600  0.49309400  1
  C  1025  1  0.95685000  0.23145000  0.49340900  1
  C  1026  1  0.95679200  0.26229800  0.52458500  1
  C  1027  1  0.99843000  0.26267300  0.52491300  1
  C  1028  1  0.01724420  0.27816800  0.54074500  1
  C  1029  1  0.99594400  0.29296700  0.55592400  1
  C  1030  1  0.95447600  0.29194700  0.55499400  1
  C  1031  1  0.93526800  0.27694200  0.53957800  1
  C  1032  1  0.93538200  0.21678200  0.47841400  1
  C  1033  1  0.95464600  0.20179000  0.46301200  1
  C  1034  1  0.99611700  0.20080000  0.46210200  1
  C  1035  1  0.01736520  0.21563100  0.47727800  1
  C  1036  1  0.04570120  0.26283100  0.49322700  1
  C  1037  1  0.08734220  0.26255300  0.49356200  1
  C  1038  1  0.08735420  0.23137300  0.52455400  1
  C  1039  1  0.04571320  0.23100300  0.52480800  1
  C  1040  1  0.10876600  0.21655000  0.53950500  1
  C  1041  1  0.08943220  0.20138200  0.55479100  1
  C  1042  1  0.04795820  0.20039800  0.55560300  1
  C  1043  1  0.02677220  0.21536100  0.54048500  1
  C  1044  1  0.02675120  0.27841700  0.47749600  1
  C  1045  1  0.04792620  0.29339900  0.46239200  1
  C  1046  1  0.08940320  0.29251800  0.46330000  1
  C  1047  1  0.10874500  0.27741400  0.47864600  1
  C  1060  1  0.02207320  0.24690600  0.50900800  1
  C  1061  1  0.11004600  0.24699600  0.50908800  1
  C  1064  1  0.93414700  0.24686400  0.50899200  1
  C  1067  1  0.02848920  0.18557300  0.57106600  1
  C  1068  1  0.01536320  0.18607100  0.44647100  1
  C  1069  1  0.02845120  0.30814600  0.44685300  1
  C  1073  1  0.01514320  0.30770300  0.57156900  1
  C  1075  1  0.65789500  0.52541200  0.22996200  1
  C  1076  1  0.52939100  0.61917000  0.13315900  1
  C  1077  1  0.38875200  0.52533900  0.22888900  1
  C  1078  1  0.49813100  0.63427000  0.12733600  1
  C  1079  1  0.50305300  0.65137200  0.10992600  1
  C  1080  1  0.53924900  0.65359700  0.09808500  1
  C  1081  1  0.57031100  0.63843800  0.10399000  1
  C  1082  1  0.56551500  0.62132800  0.12131700  1
  C  1083  1  0.69244600  0.53389400  0.21932900  1
  C  1084  1  0.72948500  0.52611000  0.22693000  1
  C  1085  1  0.73278700  0.50981700  0.24526000  1
  C  1086  1  0.69806700  0.50136700  0.25587000  1
  C  1087  1  0.66093900  0.50907300  0.24829900  1
  C  1088  1  0.38514500  0.51159000  0.24920200  1
  C  1089  1  0.34795300  0.50385000  0.25661400  1
  C  1090  1  0.31373200  0.50970900  0.24389600  1
  C  1091  1  0.31759500  0.52349100  0.22364700  1
  C  1092  1  0.35471300  0.53123800  0.21614300  1
  C  1104  1  0.48753200  0.54751000  0.20730400  1
  C  1105  1  0.52339400  0.53893100  0.21624100  1
  C  1106  1  0.55948100  0.54749600  0.20763000  1
  C  1107  1  0.55954600  0.56471200  0.19000100  1
  C  1108  1  0.52380800  0.57337400  0.18098900  1
  C  1109  1  0.48786400  0.56472600  0.18967900  1
  C  1114  1  0.42309600  0.53261200  0.22193100  1
  C  1115  1  0.45414500  0.53957000  0.21515900  1
  C  1116  1  0.52564500  0.60360300  0.14959000  1
  C  1117  1  0.52411300  0.58920100  0.16463100  1
  C  1118  1  0.59269100  0.53955100  0.21577900  1
  C  1119  1  0.62360900  0.53261500  0.22279600  1
  C  1123  1  0.65786100  0.96820190  0.78771300  1
  C  1124  1  0.52946100  0.87465300  0.88474100  1
  C  1125  1  0.38873100  0.96826490  0.78883100  1
  C  1126  1  0.49821900  0.85955500  0.89059600  1
  C  1127  1  0.50315600  0.84249800  0.90805000  1
  C  1128  1  0.53935000  0.84032100  0.91990400  1
  C  1129  1  0.57039600  0.85547600  0.91396200  1
  C  1130  1  0.56558600  0.87254000  0.89659100  1
  C  1131  1  0.69240800  0.95976390  0.79838600  1
  C  1132  1  0.72944800  0.96751790  0.79075700  1
  C  1133  1  0.73275000  0.98372590  0.77235100  1
  C  1134  1  0.69803400  0.99213493  0.76170400  1
  C  1135  1  0.66090500  0.98446290  0.76930800  1
  C  1136  1  0.38498900  0.98134990  0.76809500  1
  C  1137  1  0.34780000  0.98905990  0.76065700  1
  C  1138  1  0.31371100  0.98382990  0.77376500  1
  C  1139  1  0.31770600  0.97070190  0.79443600  1
  C  1140  1  0.35482700  0.96299290  0.80197100  1
  C  1152  1  0.48751800  0.94615290  0.81046100  1
  C  1153  1  0.52336500  0.95471990  0.80150000  1
  C  1154  1  0.55946200  0.94617890  0.81012200  1
  C  1155  1  0.55954800  0.92899790  0.82778300  1
  C  1156  1  0.52382000  0.92034690  0.83681900  1
  C  1157  1  0.48786400  0.92897190  0.82812100  1
  C  1162  1  0.42307300  0.96100790  0.79580800  1
  C  1163  1  0.45412400  0.95406890  0.80259600  1
  C  1164  1  0.52569800  0.89018200  0.86827500  1
  C  1165  1  0.52414600  0.90455190  0.85320600  1
  C  1166  1  0.59266200  0.95410890  0.80194600  1
  C  1167  1  0.62357600  0.96102490  0.79490400  1
  C  1171  1  0.64332000  0.52493500  0.78626600  1
  C  1172  1  0.51066700  0.62013400  0.88404500  1
  C  1173  1  0.37418800  0.52840400  0.78874100  1
  C  1174  1  0.47499900  0.62267400  0.89628400  1
  C  1175  1  0.47134800  0.63968400  0.91372700  1
  C  1176  1  0.50310900  0.65439300  0.91938100  1
  C  1177  1  0.53887500  0.65178300  0.90718100  1
  C  1178  1  0.54264000  0.63477600  0.88963900  1
  C  1179  1  0.67813400  0.53542100  0.79450300  1
  C  1180  1  0.71497800  0.52761900  0.78662500  1
  C  1181  1  0.71787800  0.50920900  0.77048300  1
  C  1182  1  0.68291100  0.49874500  0.76226800  1
  C  1183  1  0.64595900  0.50652700  0.77006600  1
  C  1184  1  0.37018700  0.50771000  0.77571000  1
  C  1185  1  0.33288700  0.50033400  0.76812800  1
  C  1186  1  0.29885100  0.51344700  0.77342100  1
  C  1187  1  0.30309200  0.53407100  0.78650100  1
  C  1188  1  0.34033000  0.54154300  0.79408000  1
  C  1200  1  0.47405100  0.54919600  0.81020100  1
  C  1201  1  0.50932300  0.54005700  0.80102500  1
  C  1202  1  0.54602100  0.54800300  0.80930500  1
  C  1203  1  0.54731900  0.56519700  0.82686400  1
  C  1204  1  0.51224000  0.57444600  0.83614000  1
  C  1205  1  0.47568600  0.56638300  0.82775700  1
  C  1210  1  0.40872000  0.53530100  0.79586400  1
  C  1211  1  0.44007900  0.54182000  0.80258600  1
  C  1212  1  0.51326200  0.60462500  0.86751000  1
  C  1213  1  0.51347900  0.59026000  0.85246400  1
  C  1214  1  0.57868900  0.53955600  0.80088300  1
  C  1215  1  0.60923300  0.53229100  0.79364000  1
  C  1219  1  0.64001300  0.97200290  0.23372200  1
  C  1220  1  0.51068200  0.87402400  0.13404400  1
  C  1221  1  0.37735200  0.96885390  0.23087700  1
  C  1222  1  0.47501100  0.87149900  0.12180500  1
  C  1223  1  0.47133600  0.85447800  0.10437400  1
  C  1224  1  0.50307400  0.83974300  0.09873400  1
  C  1225  1  0.53884000  0.84234000  0.11093700  1
  C  1226  1  0.54263100  0.85935800  0.12846600  1
  C  1227  1  0.67724000  0.96352290  0.22703300  1
  C  1228  1  0.71162300  0.97331790  0.23646700  1
  C  1229  1  0.70951200  0.99176893  0.25273800  1
  C  1230  1  0.67219300  0.00016700  0.25929300  1
  C  1231  1  0.63772300  0.99040493  0.24993800  1
  C  1232  1  0.37837000  0.98918890  0.24465000  1
  C  1233  1  0.34342700  0.99858693  0.25373500  1
  C  1234  1  0.30686100  0.98797190  0.24924200  1
  C  1235  1  0.30596000  0.96759490  0.23542600  1
  C  1236  1  0.34086500  0.95810290  0.22632800  1
  C  1248  1  0.47413000  0.94515190  0.20767100  1
  C  1249  1  0.50940200  0.95429190  0.21682800  1
  C  1250  1  0.54609900  0.94629090  0.20862100  1
  C  1251  1  0.54742200  0.92903390  0.19113300  1
  C  1252  1  0.51232000  0.91978390  0.18186800  1
  C  1253  1  0.47574500  0.92790390  0.19018500  1
  C  1258  1  0.40990900  0.96018590  0.22256200  1
  C  1259  1  0.44032600  0.95276290  0.21529000  1
  C  1260  1  0.51330900  0.88954900  0.15055900  1
  C  1261  1  0.51355500  0.90393490  0.16558400  1
  C  1262  1  0.57857200  0.95490790  0.21711000  1
  C  1263  1  0.60805100  0.96298990  0.22499700  1
  C  1267  1  0.15786300  0.02518800  0.72979900  1
  C  1268  1  0.02943420  0.11893000  0.63296100  1
  C  1269  1  0.88873400  0.02512300  0.72868600  1
  C  1270  1  0.99820400  0.13407100  0.62718600  1
  C  1271  1  0.00313224  0.15119300  0.60979900  1
  C  1272  1  0.03930820  0.15340000  0.59793100  1
  C  1273  1  0.07034220  0.13820200  0.60379000  1
  C  1274  1  0.06553720  0.12107100  0.62109400  1
  C  1275  1  0.19241200  0.03363500  0.71913400  1
  C  1276  1  0.22945100  0.02587900  0.72676300  1
  C  1277  1  0.23275100  0.00965900  0.74515900  1
  C  1278  1  0.19803300  0.00124200  0.75579700  1
  C  1279  1  0.16090600  0.00891500  0.74819300  1
  C  1280  1  0.88499700  0.01201200  0.74940400  1
  C  1281  1  0.84780600  0.00430000  0.75684300  1
  C  1282  1  0.81371100  0.00955800  0.74374800  1
  C  1283  1  0.81770200  0.02271400  0.72309400  1
  C  1284  1  0.85482400  0.03042300  0.71556200  1
  C  1296  1  0.98752000  0.04725100  0.70707100  1
  C  1297  1  0.02337020  0.03866800  0.71601500  1
  C  1298  1  0.05946420  0.04722700  0.70740900  1
  C  1299  1  0.05954620  0.06443900  0.68977700  1
  C  1300  1  0.02381620  0.07310400  0.68075600  1
  C  1301  1  0.98786300  0.06446500  0.68944300  1
  C  1306  1  0.92307500  0.03238200  0.72171000  1
  C  1307  1  0.95412600  0.03932600  0.71492800  1
  C  1308  1  0.02568320  0.10334800  0.64937500  1
  C  1309  1  0.02413920  0.08893600  0.66440500  1
  C  1310  1  0.09266420  0.03928800  0.71557400  1
  C  1311  1  0.12358000  0.03236700  0.72260900  1
  C  1315  1  0.15789200  0.46797700  0.28755000  1
  C  1316  1  0.02942220  0.37441600  0.38454500  1
  C  1317  1  0.88875100  0.46804700  0.28862600  1
  C  1318  1  0.99815100  0.35935700  0.39045300  1
  C  1319  1  0.00307624  0.34232400  0.40792700  1
  C  1320  1  0.03929320  0.34012800  0.41975500  1
  C  1321  1  0.07036820  0.35524200  0.41376400  1
  C  1322  1  0.06556620  0.37228400  0.39636900  1
  C  1323  1  0.19244200  0.45949500  0.29818500  1
  C  1324  1  0.22948100  0.46727700  0.29058200  1
  C  1325  1  0.23278600  0.48357000  0.27225100  1
  C  1326  1  0.19806600  0.49201900  0.26164100  1
  C  1327  1  0.16093900  0.48431400  0.26921200  1
  C  1328  1  0.88514400  0.48179400  0.26831400  1
  C  1329  1  0.84795500  0.48953400  0.26090000  1
  C  1330  1  0.81373000  0.48367500  0.27361600  1
  C  1331  1  0.81759200  0.46989300  0.29386500  1
  C  1332  1  0.85470900  0.46214600  0.30137000  1
  C  1344  1  0.98753200  0.44589500  0.31022900  1
  C  1345  1  0.02339120  0.45445900  0.30127600  1
  C  1346  1  0.05947920  0.44591100  0.30990200  1
  C  1347  1  0.05954920  0.42872700  0.32756100  1
  C  1348  1  0.02381320  0.42008000  0.33659000  1
  C  1349  1  0.98786600  0.42871000  0.32788700  1
  C  1354  1  0.92309600  0.46077600  0.29558800  1
  C  1355  1  0.95414400  0.45382300  0.30236700  1
  C  1356  1  0.02566520  0.38992900  0.36806400  1
  C  1357  1  0.02412420  0.40429000  0.35298400  1
  C  1358  1  0.09268720  0.45384900  0.30174100  1
  C  1359  1  0.12360600  0.46077700  0.29471900  1
  C  1363  1  0.13999900  0.02193900  0.28434400  1
  C  1364  1  0.01080820  0.11990200  0.38406000  1
  C  1365  1  0.87732800  0.02511300  0.28723200  1
  C  1366  1  0.97516600  0.12240700  0.39633200  1
  C  1367  1  0.97150600  0.13942600  0.41376400  1
  C  1368  1  0.00323524  0.15418200  0.41937200  1
  C  1369  1  0.03897120  0.15160600  0.40713800  1
  C  1370  1  0.04274520  0.13458800  0.38960600  1
  C  1371  1  0.17721700  0.03042300  0.29104400  1
  C  1372  1  0.21161100  0.02063300  0.28161600  1
  C  1373  1  0.20951600  0.00218700  0.26534200  1
  C  1374  1  0.17220400  0.99378393  0.25877300  1
  C  1375  1  0.13772400  0.00354100  0.26812400  1
  C  1376  1  0.87834900  0.00476800  0.27347200  1
  C  1377  1  0.84341200  0.99536693  0.26438400  1
  C  1378  1  0.80684300  0.00598900  0.26886100  1
  C  1379  1  0.80593900  0.02637500  0.28266400  1
  C  1380  1  0.84084100  0.03587100  0.29176700  1
  C  1392  1  0.97412400  0.04880600  0.31042500  1
  C  1393  1  0.00938124  0.03965900  0.30125400  1
  C  1394  1  0.04608820  0.04765000  0.30945100  1
  C  1395  1  0.04744120  0.06490100  0.32694200  1
  C  1396  1  0.01235420  0.07415800  0.33621900  1
  C  1397  1  0.97576500  0.06605000  0.32791500  1
  C  1402  1  0.90988500  0.03378400  0.29554800  1
  C  1403  1  0.94030800  0.04120200  0.30281400  1
  C  1404  1  0.01340820  0.10438200  0.36753900  1
  C  1405  1  0.01361920  0.09000200  0.35250900  1
  C  1406  1  0.07854820  0.03902700  0.30095100  1
  C  1407  1  0.10802900  0.03094600  0.29306400  1
  C  1411  1  0.14333300  0.46901000  0.73180100  1
  C  1412  1  0.01055220  0.37379400  0.63405900  1
  C  1413  1  0.87421300  0.46556200  0.72936700  1
  C  1414  1  0.97485800  0.37123700  0.62184800  1
  C  1415  1  0.97118900  0.35422500  0.60440900  1
  C  1416  1  0.00295924  0.33952700  0.59873000  1
  C  1417  1  0.03874520  0.34215300  0.61090400  1
  C  1418  1  0.04252820  0.35916200  0.62844300  1
  C  1419  1  0.17815900  0.45854600  0.72355300  1
  C  1420  1  0.21499600  0.46635400  0.73143900  1
  C  1421  1  0.21787800  0.48474800  0.74760000  1
  C  1422  1  0.18290000  0.49518900  0.75582700  1
  C  1423  1  0.14595500  0.48740200  0.74802000  1
  C  1424  1  0.87021000  0.48624400  0.74241700  1
  C  1425  1  0.83291000  0.49362000  0.74999500  1
  C  1426  1  0.79887100  0.48051600  0.74468100  1
  C  1427  1  0.80311300  0.45990100  0.73158400  1
  C  1428  1  0.84035300  0.45243100  0.72400800  1
  C  1440  1  0.97406200  0.44476100  0.70789400  1
  C  1441  1  0.00934924  0.45389400  0.71705700  1
  C  1442  1  0.04603320  0.44593800  0.70876700  1
  C  1443  1  0.04730320  0.42874000  0.69121200  1
  C  1444  1  0.01221120  0.41949700  0.68194800  1
  C  1445  1  0.97567100  0.42757100  0.69034000  1
  C  1450  1  0.90874600  0.45866600  0.72224500  1
  C  1451  1  0.94009900  0.45214600  0.71552000  1
  C  1452  1  0.01317320  0.38930900  0.65058500  1
  C  1453  1  0.01342320  0.40367900  0.66562800  1
  C  1454  1  0.07871020  0.45438000  0.71718100  1
  C  1455  1  0.10925300  0.46164600  0.72442300  1
  N  148  1  0.01886400  0.91364500  0.08233300  1
  N  149  1  0.74950800  0.74694300  0.24995600  1
  N  150  1  0.24029700  0.74705100  0.25141500  1
  N  196  1  0.01897200  0.06798300  0.93570200  1
  N  197  1  0.74949300  0.23424800  0.76769300  1
  N  198  1  0.24025700  0.23413500  0.76617400  1
  N  244  1  0.96784300  0.91439200  0.93528500  1
  N  245  1  0.73452400  0.75124600  0.76690300  1
  N  246  1  0.22527700  0.74670400  0.76382300  1
  N  292  1  0.96779000  0.06740500  0.08283500  1
  N  293  1  0.74691600  0.24161900  0.25847000  1
  N  294  1  0.21242600  0.24565600  0.26220100  1
  N  340  1  0.51893200  0.41346800  0.58220200  1
  N  341  1  0.24949100  0.24680400  0.74982000  1
  N  342  1  0.74025900  0.24691200  0.75133500  1
  N  388  1  0.51890600  0.56781200  0.43557800  1
  N  389  1  0.24950900  0.73410500  0.26755400  1
  N  390  1  0.74029400  0.73399700  0.26609700  1
  N  436  1  0.46795100  0.41418900  0.43526200  1
  N  437  1  0.24690500  0.24000300  0.25962900  1
  N  438  1  0.71243900  0.23596700  0.25588400  1
  N  484  1  0.46768400  0.56719200  0.58282600  1
  N  485  1  0.23454100  0.73037600  0.75119400  1
  N  486  1  0.72526900  0.73492000  0.75426700  1
  N  634  1  0.28302900  0.79172900  0.08233300  1
  N  635  1  0.01367310  0.62502700  0.24995600  1
  N  636  1  0.50446200  0.62513500  0.25141500  1
  N  682  1  0.28313700  0.94606750  0.93570200  1
  N  683  1  0.01365810  0.11233200  0.76769300  1
  N  684  1  0.50442200  0.11221900  0.76617400  1
  N  730  1  0.23200800  0.79247600  0.93528500  1
  N  731  1  0.99868900  0.62933000  0.76690300  1
  N  732  1  0.48944200  0.62478800  0.76382300  1
  N  778  1  0.23195500  0.94548950  0.08283500  1
  N  779  1  0.01108110  0.11970300  0.25847000  1
  N  780  1  0.47659100  0.12374000  0.26220100  1
  N  826  1  0.78309700  0.29155200  0.58220200  1
  N  827  1  0.51365600  0.12488800  0.74982000  1
  N  828  1  0.00442412  0.12499600  0.75133500  1
  N  874  1  0.78307100  0.44589600  0.43557800  1
  N  875  1  0.51367400  0.61218900  0.26755400  1
  N  876  1  0.00445912  0.61208100  0.26609700  1
  N  922  1  0.73211600  0.29227300  0.43526200  1
  N  923  1  0.51107000  0.11808700  0.25962900  1
  N  924  1  0.97660400  0.11405100  0.25588400  1
  N  970  1  0.73184900  0.44527600  0.58282600  1
  N  971  1  0.49870600  0.60846000  0.75119400  1
  N  972  1  0.98943400  0.61300400  0.75426700  1
  N  1120  1  0.54719400  0.66981400  0.08233300  1
  N  1121  1  0.27783800  0.50311200  0.24995600  1
  N  1122  1  0.76862700  0.50322000  0.25141500  1
  N  1168  1  0.54730200  0.82415200  0.93570200  1
  N  1169  1  0.27782300  0.99041693  0.76769300  1
  N  1170  1  0.76858700  0.99030393  0.76617400  1
  N  1216  1  0.49617300  0.67056100  0.93528500  1
  N  1217  1  0.26285400  0.50741500  0.76690300  1
  N  1218  1  0.75360700  0.50287300  0.76382300  1
  N  1264  1  0.49612000  0.82357400  0.08283500  1
  N  1265  1  0.27524600  0.99778793  0.25847000  1
  N  1266  1  0.74075600  0.00182500  0.26220100  1
  N  1312  1  0.04726220  0.16963700  0.58220200  1
  N  1313  1  0.77782100  0.00297300  0.74982000  1
  N  1314  1  0.26858900  0.00308100  0.75133500  1
  N  1360  1  0.04723620  0.32398100  0.43557800  1
  N  1361  1  0.77783900  0.49027400  0.26755400  1
  N  1362  1  0.26862400  0.49016600  0.26609700  1
  N  1408  1  0.99628100  0.17035800  0.43526200  1
  N  1409  1  0.77523500  0.99617193  0.25962900  1
  N  1410  1  0.24076900  0.99213593  0.25588400  1
  N  1456  1  0.99601400  0.32336100  0.58282600  1
  N  1457  1  0.76287100  0.48654500  0.75119400  1
  N  1458  1  0.25359900  0.49108900  0.75426700  1
