# generated using pymatgen
data_H7C16(NO)4
_symmetry_space_group_name_H-M   'P 1'
_cell_length_a   32.16260000
_cell_length_b   32.16260000
_cell_length_c   37.98670000
_cell_angle_alpha   90.00000000
_cell_angle_beta   90.00000000
_cell_angle_gamma   90.00000000
_symmetry_Int_Tables_number   1
_chemical_formula_structural   H7C16(NO)4
_chemical_formula_sum   'H224 C512 N128 O128'
_cell_volume   39294.68991612
_cell_formula_units_Z   32
loop_
 _symmetry_equiv_pos_site_id
 _symmetry_equiv_pos_as_xyz
  1  'x, y, z'
loop_
 _atom_site_type_symbol
 _atom_site_label
 _atom_site_symmetry_multiplicity
 _atom_site_fract_x
 _atom_site_fract_y
 _atom_site_fract_z
 _atom_site_occupancy
  H  9  1  0.33214000  0.07391500  0.14474800  1
  H  17  1  0.04875700  0.07475200  0.12378500  1
  H  19  1  0.14507700  0.07260900  0.21925100  1
  H  20  1  0.21744600  0.06922300  0.22462900  1
  H  21  1  0.16340500  0.07078700  0.04388000  1
  H  22  1  0.23584800  0.07440300  0.04928900  1
  H  27  1  0.33214000  0.06293500  0.07641700  1
  H  28  1  0.08887300  0.08455800  0.04421400  1
  H  29  1  0.04610800  0.06720600  0.19065600  1
  H  30  1  0.29214100  0.08411500  0.22425900  1
  H  39  1  0.54699200  0.07753600  0.64621300  1
  H  47  1  0.83014700  0.07118800  0.62373400  1
  H  49  1  0.73455200  0.07417600  0.71975400  1
  H  50  1  0.66231200  0.07936200  0.72553500  1
  H  51  1  0.71507900  0.07941400  0.54452700  1
  H  52  1  0.64268100  0.07767700  0.55029700  1
  H  57  1  0.54418500  0.08514300  0.57922100  1
  H  58  1  0.78911200  0.06301300  0.54427200  1
  H  59  1  0.83307600  0.07913800  0.69076500  1
  H  60  1  0.58780700  0.06644000  0.72558000  1
  H  69  1  0.05431900  0.57516500  0.61257400  1
  H  77  1  0.33704700  0.58012400  0.63881300  1
  H  79  1  0.24327900  0.57472600  0.54173700  1
  H  80  1  0.17114200  0.57008100  0.53499700  1
  H  81  1  0.22042000  0.57471400  0.71667700  1
  H  82  1  0.14812300  0.57696200  0.70987700  1
  H  87  1  0.05068600  0.56785500  0.67990900  1
  H  88  1  0.29431600  0.58917500  0.71793800  1
  H  89  1  0.34080600  0.57075300  0.57151500  1
  H  90  1  0.09688300  0.58450200  0.53364200  1
  H  99  1  0.83636600  0.57424400  0.11573300  1
  H  107  1  0.55298100  0.57272700  0.13723100  1
  H  109  1  0.64908600  0.57554400  0.04165600  1
  H  110  1  0.72142500  0.57863800  0.03610200  1
  H  111  1  0.66785300  0.57766800  0.21693900  1
  H  112  1  0.74021300  0.57499400  0.21136700  1
  H  117  1  0.83725800  0.58540000  0.18351600  1
  H  118  1  0.59375200  0.56236100  0.21682000  1
  H  119  1  0.55114600  0.58252400  0.06972800  1
  H  120  1  0.79597100  0.56291800  0.03643000  1
  H  129  1  0.93396600  0.46469800  0.36863100  1
  H  137  1  0.94192300  0.18142600  0.38601900  1
  H  139  1  0.94678300  0.27913100  0.29159700  1
  H  140  1  0.94154700  0.35125900  0.28690500  1
  H  141  1  0.94226200  0.29520100  0.46715300  1
  H  142  1  0.94623800  0.36772500  0.46231400  1
  H  147  1  0.92748100  0.46245600  0.43551500  1
  H  148  1  0.95531100  0.22120900  0.46545500  1
  H  149  1  0.93004600  0.18289500  0.31869000  1
  H  150  1  0.90418000  0.40928300  0.28980600  1
  H  159  1  0.94294000  0.68144600  0.86398300  1
  H  167  1  0.94039600  0.96508000  0.88403200  1
  H  169  1  0.93771600  0.86832800  0.78881500  1
  H  170  1  0.94208800  0.79585600  0.78357400  1
  H  171  1  0.94491700  0.85061500  0.96430500  1
  H  172  1  0.94161800  0.77809000  0.95911400  1
  H  177  1  0.95995600  0.69071800  0.93797800  1
  H  178  1  0.92761700  0.92419700  0.96298600  1
  H  179  1  0.95133800  0.96472000  0.81664800  1
  H  180  1  0.92966000  0.72089300  0.78465600  1
  H  189  1  0.43312400  0.18484700  0.89652400  1
  H  197  1  0.44737300  0.46763300  0.87401100  1
  H  199  1  0.44891600  0.37222400  0.97002600  1
  H  200  1  0.44244500  0.30044100  0.97617500  1
  H  201  1  0.44072600  0.35201400  0.79485700  1
  H  202  1  0.44178300  0.27956000  0.80095600  1
  H  207  1  0.42285100  0.19025300  0.82407200  1
  H  208  1  0.45706800  0.42450200  0.79459300  1
  H  209  1  0.43110000  0.45950900  0.94879200  1
  H  210  1  0.40749200  0.24118300  0.97530100  1
  H  219  1  0.44254500  0.96724700  0.39337200  1
  H  227  1  0.44423300  0.68342400  0.37512600  1
  H  229  1  0.44303900  0.78090700  0.46965900  1
  H  230  1  0.44605800  0.85349700  0.47445300  1
  H  231  1  0.44624500  0.79724600  0.29400000  1
  H  232  1  0.44210000  0.86976500  0.29880700  1
  H  237  1  0.45891200  0.95786700  0.31929600  1
  H  238  1  0.43055300  0.72390600  0.29563200  1
  H  239  1  0.45994400  0.69294700  0.44954100  1
  H  240  1  0.43022000  0.92723500  0.47297800  1
  H  246  1  0.05105700  0.98536500  0.94726000  1
  H  248  1  0.98844600  0.00480300  0.06190500  1
  H  262  1  0.83143100  0.16135000  0.44776700  1
  H  264  1  0.89163800  0.14082600  0.56318100  1
  H  278  1  0.33769300  0.49123800  0.81428400  1
  H  280  1  0.39734600  0.51045300  0.69848900  1
  H  294  1  0.55248300  0.66070800  0.31345400  1
  H  296  1  0.49183500  0.64121300  0.19804900  1
  H  310  1  0.38792600  0.64731100  0.56043000  1
  H  312  1  0.32782800  0.66813900  0.44485500  1
  H  326  1  0.88853500  0.50794400  0.19325700  1
  H  328  1  0.83368200  0.49683200  0.31173800  1
  H  342  1  0.48840900  0.14983000  0.70894500  1
  H  344  1  0.55274700  0.16479500  0.82343500  1
  H  358  1  0.05757500  0.48702200  0.43610000  1
  H  360  1  0.99547600  0.50386100  0.55125600  1
  H  374  1  0.82896900  0.66133900  0.93792500  1
  H  376  1  0.89490900  0.64600200  0.05172700  1
  H  390  1  0.32780000  0.98516200  0.32150700  1
  H  392  1  0.39102500  0.00127100  0.20667000  1
  H  406  1  0.38535400  0.14099900  0.07107000  1
  H  408  1  0.33464000  0.15575800  0.95153500  1
  H  422  1  0.88064400  0.00512400  0.70166300  1
  H  424  1  0.82099100  0.97979300  0.81673000  1
  H  438  1  0.55406300  0.98580600  0.45356900  1
  H  440  1  0.49571500  0.01040800  0.56920400  1
  H  454  1  0.05762200  0.67197600  0.80357300  1
  H  456  1  0.99912900  0.63801700  0.68971500  1
  H  470  1  0.99885500  0.14146300  0.20296000  1
  H  472  1  0.06024900  0.16504800  0.31763700  1
  H  486  1  0.56300200  0.48460900  0.94389500  1
  H  488  1  0.50299700  0.50509000  0.05955000  1
  H  505  1  0.33214000  0.54029500  0.14474800  1
  H  513  1  0.04875700  0.54113200  0.12378500  1
  H  515  1  0.14507700  0.53898900  0.21925100  1
  H  516  1  0.21744600  0.53560300  0.22462900  1
  H  517  1  0.16340500  0.53716700  0.04388000  1
  H  518  1  0.23584800  0.54078300  0.04928900  1
  H  523  1  0.33214000  0.52931500  0.07641700  1
  H  524  1  0.08887300  0.55093800  0.04421400  1
  H  525  1  0.04610800  0.53358600  0.19065600  1
  H  526  1  0.29214100  0.55049500  0.22425900  1
  H  535  1  0.54699200  0.54391600  0.64621300  1
  H  543  1  0.83014700  0.53756800  0.62373400  1
  H  545  1  0.73455200  0.54055600  0.71975400  1
  H  546  1  0.66231200  0.54574200  0.72553500  1
  H  547  1  0.71507900  0.54579400  0.54452700  1
  H  548  1  0.64268100  0.54405700  0.55029700  1
  H  553  1  0.54418500  0.55152300  0.57922100  1
  H  554  1  0.78911200  0.52939300  0.54427200  1
  H  555  1  0.83307600  0.54551800  0.69076500  1
  H  556  1  0.58780700  0.53282000  0.72558000  1
  H  565  1  0.05431900  0.04154520  0.61257400  1
  H  573  1  0.33704700  0.04650420  0.63881300  1
  H  575  1  0.24327900  0.04110620  0.54173700  1
  H  576  1  0.17114200  0.03646120  0.53499700  1
  H  577  1  0.22042000  0.04109420  0.71667700  1
  H  578  1  0.14812300  0.04334220  0.70987700  1
  H  583  1  0.05068600  0.03423520  0.67990900  1
  H  584  1  0.29431600  0.05555520  0.71793800  1
  H  585  1  0.34080600  0.03713320  0.57151500  1
  H  586  1  0.09688300  0.05088220  0.53364200  1
  H  595  1  0.83636600  0.04062420  0.11573300  1
  H  603  1  0.55298100  0.03910720  0.13723100  1
  H  605  1  0.64908600  0.04192420  0.04165600  1
  H  606  1  0.72142500  0.04501820  0.03610200  1
  H  607  1  0.66785300  0.04404820  0.21693900  1
  H  608  1  0.74021300  0.04137420  0.21136700  1
  H  613  1  0.83725800  0.05178020  0.18351600  1
  H  614  1  0.59375200  0.02874120  0.21682000  1
  H  615  1  0.55114600  0.04890420  0.06972800  1
  H  616  1  0.79597100  0.02929820  0.03643000  1
  H  625  1  0.93396600  0.93107800  0.36863100  1
  H  633  1  0.94192300  0.64780600  0.38601900  1
  H  635  1  0.94678300  0.74551100  0.29159700  1
  H  636  1  0.94154700  0.81763900  0.28690500  1
  H  637  1  0.94226200  0.76158100  0.46715300  1
  H  638  1  0.94623800  0.83410500  0.46231400  1
  H  643  1  0.92748100  0.92883600  0.43551500  1
  H  644  1  0.95531100  0.68758900  0.46545500  1
  H  645  1  0.93004600  0.64927500  0.31869000  1
  H  646  1  0.90418000  0.87566300  0.28980600  1
  H  655  1  0.94294000  0.14782600  0.86398300  1
  H  663  1  0.94039600  0.43146000  0.88403200  1
  H  665  1  0.93771600  0.33470800  0.78881500  1
  H  666  1  0.94208800  0.26223600  0.78357400  1
  H  667  1  0.94491700  0.31699500  0.96430500  1
  H  668  1  0.94161800  0.24447000  0.95911400  1
  H  673  1  0.95995600  0.15709800  0.93797800  1
  H  674  1  0.92761700  0.39057700  0.96298600  1
  H  675  1  0.95133800  0.43110000  0.81664800  1
  H  676  1  0.92966000  0.18727300  0.78465600  1
  H  685  1  0.43312400  0.65122700  0.89652400  1
  H  693  1  0.44737300  0.93401300  0.87401100  1
  H  695  1  0.44891600  0.83860400  0.97002600  1
  H  696  1  0.44244500  0.76682100  0.97617500  1
  H  697  1  0.44072600  0.81839400  0.79485700  1
  H  698  1  0.44178300  0.74594000  0.80095600  1
  H  703  1  0.42285100  0.65663300  0.82407200  1
  H  704  1  0.45706800  0.89088200  0.79459300  1
  H  705  1  0.43110000  0.92588900  0.94879200  1
  H  706  1  0.40749200  0.70756300  0.97530100  1
  H  715  1  0.44254500  0.43362700  0.39337200  1
  H  723  1  0.44423300  0.14980400  0.37512600  1
  H  725  1  0.44303900  0.24728700  0.46965900  1
  H  726  1  0.44605800  0.31987700  0.47445300  1
  H  727  1  0.44624500  0.26362600  0.29400000  1
  H  728  1  0.44210000  0.33614500  0.29880700  1
  H  733  1  0.45891200  0.42424700  0.31929600  1
  H  734  1  0.43055300  0.19028600  0.29563200  1
  H  735  1  0.45994400  0.15932700  0.44954100  1
  H  736  1  0.43022000  0.39361500  0.47297800  1
  H  742  1  0.05105700  0.45174500  0.94726000  1
  H  744  1  0.98844600  0.47118300  0.06190500  1
  H  758  1  0.83143100  0.62773000  0.44776700  1
  H  760  1  0.89163800  0.60720600  0.56318100  1
  H  774  1  0.33769300  0.95761800  0.81428400  1
  H  776  1  0.39734600  0.97683300  0.69848900  1
  H  790  1  0.55248300  0.12708800  0.31345400  1
  H  792  1  0.49183500  0.10759300  0.19804900  1
  H  806  1  0.38792600  0.11369100  0.56043000  1
  H  808  1  0.32782800  0.13451900  0.44485500  1
  H  822  1  0.88853500  0.97432400  0.19325700  1
  H  824  1  0.83368200  0.96321200  0.31173800  1
  H  838  1  0.48840900  0.61621000  0.70894500  1
  H  840  1  0.55274700  0.63117500  0.82343500  1
  H  854  1  0.05757500  0.95340200  0.43610000  1
  H  856  1  0.99547600  0.97024100  0.55125600  1
  H  870  1  0.82896900  0.12771900  0.93792500  1
  H  872  1  0.89490900  0.11238200  0.05172700  1
  H  886  1  0.32780000  0.45154200  0.32150700  1
  H  888  1  0.39102500  0.46765100  0.20667000  1
  H  902  1  0.38535400  0.60737900  0.07107000  1
  H  904  1  0.33464000  0.62213800  0.95153500  1
  H  918  1  0.88064400  0.47150400  0.70166300  1
  H  920  1  0.82099100  0.44617300  0.81673000  1
  H  934  1  0.55406300  0.45218600  0.45356900  1
  H  936  1  0.49571500  0.47678800  0.56920400  1
  H  950  1  0.05762200  0.13835600  0.80357300  1
  H  952  1  0.99912900  0.10439700  0.68971500  1
  H  966  1  0.99885500  0.60784300  0.20296000  1
  H  968  1  0.06024900  0.63142800  0.31763700  1
  H  982  1  0.56300200  0.95098900  0.94389500  1
  H  984  1  0.50299700  0.97147000  0.05955000  1
  C  1  1  0.21265600  0.07429300  0.13593200  1
  C  2  1  0.23163500  0.07214300  0.16989800  1
  C  3  1  0.27576500  0.07002700  0.17295300  1
  C  4  1  0.30030300  0.07378600  0.14232900  1
  C  5  1  0.28240100  0.07771100  0.10858800  1
  C  6  1  0.23829400  0.07590700  0.10523800  1
  C  7  1  0.20543100  0.07118900  0.19978800  1
  C  8  1  0.21872700  0.07482600  0.07194100  1
  C  10  1  0.16817800  0.07435700  0.13264700  1
  C  11  1  0.14253800  0.07571200  0.16335600  1
  C  12  1  0.09841700  0.07806500  0.16006600  1
  C  13  1  0.08057900  0.07427900  0.12625800  1
  C  14  1  0.10508800  0.07044500  0.09559900  1
  C  15  1  0.14921500  0.07261000  0.09865700  1
  C  16  1  0.16214400  0.07382300  0.19661800  1
  C  18  1  0.17543200  0.07221600  0.06875200  1
  C  23  1  0.30964400  0.08364500  0.08059100  1
  C  24  1  0.08468300  0.06436900  0.06370200  1
  C  25  1  0.07118600  0.08510700  0.18802600  1
  C  26  1  0.29615500  0.06384500  0.20480100  1
  C  31  1  0.66637600  0.07545100  0.63678600  1
  C  32  1  0.64764900  0.07758400  0.67086100  1
  C  33  1  0.60357300  0.08064200  0.67415700  1
  C  34  1  0.57880600  0.07742500  0.64361200  1
  C  35  1  0.59638500  0.07340400  0.60973900  1
  C  36  1  0.64051100  0.07473400  0.60620900  1
  C  37  1  0.67410300  0.07751400  0.70060800  1
  C  38  1  0.65990000  0.07616300  0.57284000  1
  C  40  1  0.71082800  0.07438500  0.63325500  1
  C  41  1  0.73664400  0.07201500  0.66381300  1
  C  42  1  0.78067700  0.06874400  0.66024900  1
  C  43  1  0.79836200  0.07236900  0.62636900  1
  C  44  1  0.77375600  0.07711900  0.59586300  1
  C  45  1  0.72960800  0.07611400  0.59918300  1
  C  46  1  0.71730500  0.07387800  0.69719100  1
  C  48  1  0.70321100  0.07777000  0.56943600  1
  C  53  1  0.56890900  0.06677700  0.58193500  1
  C  54  1  0.79410200  0.08286100  0.56387100  1
  C  55  1  0.80801300  0.06123400  0.68802500  1
  C  56  1  0.58343200  0.08671000  0.70618600  1
  C  61  1  0.17348400  0.57655800  0.62369400  1
  C  62  1  0.15541600  0.57366300  0.58939500  1
  C  63  1  0.11139500  0.57094200  0.58547800  1
  C  64  1  0.08607500  0.57509000  0.61562600  1
  C  65  1  0.10300000  0.57978200  0.64968500  1
  C  66  1  0.14704100  0.57829300  0.65388400  1
  C  67  1  0.18243800  0.57261500  0.56003500  1
  C  68  1  0.16579100  0.57766800  0.68754000  1
  C  70  1  0.21786500  0.57736600  0.62784300  1
  C  71  1  0.24425500  0.57869100  0.59760900  1
  C  72  1  0.28821400  0.58185300  0.60170800  1
  C  73  1  0.30529700  0.57903600  0.63582500  1
  C  74  1  0.28010300  0.57513100  0.66607200  1
  C  75  1  0.23601400  0.57640200  0.66218100  1
  C  76  1  0.22558300  0.57597600  0.56400800  1
  C  78  1  0.20903000  0.57575500  0.69157600  1
  C  83  1  0.07494200  0.58679300  0.67699700  1
  C  84  1  0.29993100  0.56955900  0.69830200  1
  C  85  1  0.31592600  0.58892000  0.57417900  1
  C  86  1  0.09180900  0.56462100  0.55319800  1
  C  91  1  0.71690400  0.57395800  0.12481900  1
  C  92  1  0.73578900  0.57590200  0.09080400  1
  C  93  1  0.77991800  0.57787300  0.08762800  1
  C  94  1  0.80454300  0.57443700  0.11823200  1
  C  95  1  0.78675200  0.57088000  0.15205800  1
  C  96  1  0.74262900  0.57264300  0.15546600  1
  C  97  1  0.70950100  0.57680300  0.06096500  1
  C  98  1  0.72310700  0.57401400  0.18878100  1
  C  100  1  0.67243000  0.57379700  0.12820200  1
  C  101  1  0.64672300  0.57256200  0.09754300  1
  C  102  1  0.60262500  0.57030200  0.10092100  1
  C  103  1  0.58480300  0.57339600  0.13474900  1
  C  104  1  0.60937200  0.57693100  0.16538500  1
  C  105  1  0.65351700  0.57531100  0.16222200  1
  C  106  1  0.66621500  0.57443700  0.06423700  1
  C  108  1  0.67979900  0.57612900  0.19206600  1
  C  113  1  0.81407600  0.56526500  0.18008800  1
  C  114  1  0.58894800  0.58240000  0.19732800  1
  C  115  1  0.57541700  0.56367600  0.07297200  1
  C  116  1  0.80019000  0.58347900  0.05563600  1
  C  121  1  0.94263800  0.34559700  0.37548400  1
  C  122  1  0.93864000  0.36495200  0.34176700  1
  C  123  1  0.93189300  0.40884400  0.33915300  1
  C  124  1  0.93714400  0.43298700  0.37002900  1
  C  125  1  0.94497000  0.41501000  0.40329100  1
  C  126  1  0.94465000  0.37087500  0.40633700  1
  C  127  1  0.94122900  0.33905500  0.31168800  1
  C  128  1  0.94556400  0.35087000  0.43948000  1
  C  130  1  0.94351800  0.30106600  0.37843200  1
  C  131  1  0.94510400  0.27578800  0.34754200  1
  C  132  1  0.94632900  0.23163100  0.35043800  1
  C  133  1  0.94223400  0.21328200  0.38401000  1
  C  134  1  0.93937000  0.23746000  0.41492100  1
  C  135  1  0.94213700  0.28163800  0.41224700  1
  C  136  1  0.94532700  0.29584500  0.31445700  1
  C  138  1  0.94291800  0.30752800  0.44235400  1
  C  143  1  0.94966200  0.44125100  0.43223500  1
  C  144  1  0.93439900  0.21662900  0.44674800  1
  C  145  1  0.95078700  0.20560100  0.32145400  1
  C  146  1  0.91512500  0.42753400  0.30872100  1
  C  151  1  0.94093400  0.80103900  0.87235500  1
  C  152  1  0.94220600  0.78191700  0.83840300  1
  C  153  1  0.94489200  0.73777900  0.83542600  1
  C  154  1  0.94245100  0.71329100  0.86618900  1
  C  155  1  0.93919600  0.73140800  0.89985900  1
  C  156  1  0.94031500  0.77551200  0.90312100  1
  C  157  1  0.94138500  0.80801000  0.80843800  1
  C  158  1  0.94124500  0.79516900  0.93639000  1
  C  160  1  0.94063600  0.84552500  0.87556900  1
  C  161  1  0.93850600  0.87103900  0.84483200  1
  C  162  1  0.93684900  0.91515300  0.84808300  1
  C  163  1  0.94078500  0.93325100  0.88177600  1
  C  164  1  0.94447600  0.90882900  0.91247900  1
  C  165  1  0.94267200  0.86464400  0.90949700  1
  C  166  1  0.93853100  0.85130500  0.81156200  1
  C  168  1  0.94341800  0.83850200  0.93945400  1
  C  173  1  0.93493000  0.70474100  0.92830800  1
  C  174  1  0.94866000  0.92940500  0.94449800  1
  C  175  1  0.93130200  0.94137900  0.81937600  1
  C  176  1  0.95057300  0.71728600  0.80355200  1
  C  181  1  0.44104600  0.30381900  0.88746800  1
  C  182  1  0.43793100  0.28523500  0.92160100  1
  C  183  1  0.43136400  0.24134400  0.92518100  1
  C  184  1  0.43519500  0.21658500  0.89447600  1
  C  185  1  0.44148800  0.23388700  0.86078700  1
  C  186  1  0.44168400  0.27788700  0.85699400  1
  C  187  1  0.44169000  0.31190600  0.95112400  1
  C  188  1  0.44228400  0.29698900  0.82348000  1
  C  190  1  0.44335300  0.34819900  0.88365600  1
  C  191  1  0.44632300  0.37410500  0.91406400  1
  C  192  1  0.44929500  0.41804800  0.91031800  1
  C  193  1  0.44618600  0.43583500  0.87653200  1
  C  194  1  0.44201600  0.41108300  0.84605900  1
  C  195  1  0.44242400  0.36688900  0.84951200  1
  C  196  1  0.44646600  0.35494300  0.94750500  1
  C  198  1  0.44134500  0.34030200  0.81986300  1
  C  203  1  0.44693800  0.20663500  0.83279600  1
  C  204  1  0.43767300  0.43144800  0.81395300  1
  C  205  1  0.45535200  0.44487700  0.93839100  1
  C  206  1  0.42026700  0.22257700  0.95747700  1
  C  211  1  0.44335600  0.84758700  0.38570800  1
  C  212  1  0.44471500  0.86701600  0.41953900  1
  C  213  1  0.44624200  0.91123200  0.42224500  1
  C  214  1  0.44298000  0.93538100  0.39135200  1
  C  215  1  0.43985500  0.91689400  0.35782200  1
  C  216  1  0.44175800  0.87280500  0.35479500  1
  C  217  1  0.44504800  0.84115400  0.44966500  1
  C  218  1  0.44241100  0.85287800  0.32163300  1
  C  220  1  0.44372900  0.80308800  0.38274200  1
  C  221  1  0.44262300  0.77786900  0.41366800  1
  C  222  1  0.44134800  0.73376500  0.41066400  1
  C  223  1  0.44451000  0.71529000  0.37713200  1
  C  224  1  0.44732100  0.73945500  0.34621300  1
  C  225  1  0.44522500  0.78366500  0.34891400  1
  C  226  1  0.44305200  0.79779600  0.44683200  1
  C  228  1  0.44507900  0.80954900  0.31879600  1
  C  233  1  0.43443600  0.94321300  0.32930700  1
  C  234  1  0.45130000  0.71855800  0.31433600  1
  C  235  1  0.43562400  0.70746700  0.43914500  1
  C  236  1  0.45079700  0.93216000  0.45404300  1
  C  241  1  0.04175700  0.01698900  0.03130000  1
  C  242  1  0.05991900  0.01129500  0.99766400  1
  C  243  1  0.03717200  0.99010600  0.97121800  1
  C  244  1  0.99697700  0.97390700  0.97736000  1
  C  245  1  0.97856200  0.98043000  0.01091800  1
  C  247  1  0.00145500  0.00135500  0.03745200  1
  C  257  1  0.83879700  0.12923500  0.53182800  1
  C  258  1  0.82138500  0.13516100  0.49792900  1
  C  259  1  0.84479500  0.15637800  0.47190200  1
  C  260  1  0.88496500  0.17230200  0.47868000  1
  C  261  1  0.90268500  0.16537300  0.51244200  1
  C  263  1  0.87911400  0.14449300  0.53856700  1
  C  273  1  0.34508700  0.52327800  0.73023700  1
  C  274  1  0.32787100  0.51783700  0.76426400  1
  C  275  1  0.35094500  0.49593300  0.79006300  1
  C  276  1  0.39050000  0.47883200  0.78287600  1
  C  277  1  0.40821300  0.48545500  0.74908500  1
  C  279  1  0.38495900  0.50704500  0.72317900  1
  C  289  1  0.54449200  0.62880800  0.22942300  1
  C  290  1  0.56203500  0.63435800  0.26331000  1
  C  291  1  0.53899500  0.65590100  0.28934100  1
  C  292  1  0.49914800  0.67253200  0.28251200  1
  C  293  1  0.48118600  0.66587900  0.24880900  1
  C  295  1  0.50439300  0.64462400  0.22267700  1
  C  305  1  0.38166100  0.67788600  0.47569800  1
  C  306  1  0.39926800  0.67161800  0.50956200  1
  C  307  1  0.37586200  0.65039800  0.53562100  1
  C  308  1  0.33533300  0.63560800  0.52870300  1
  C  309  1  0.31772000  0.64207800  0.49505200  1
  C  311  1  0.34116600  0.66297800  0.46896900  1
  C  321  1  0.88615600  0.48523100  0.27978200  1
  C  322  1  0.90239200  0.48885600  0.24524400  1
  C  323  1  0.87725500  0.50641100  0.21842500  1
  C  324  1  0.83643400  0.52035300  0.22545500  1
  C  325  1  0.82034100  0.51680500  0.25998700  1
  C  327  1  0.84569600  0.49993500  0.28690300  1
  C  337  1  0.49863200  0.17785300  0.79396900  1
  C  338  1  0.47988000  0.17337600  0.76037300  1
  C  339  1  0.50153900  0.15179700  0.73346400  1
  C  340  1  0.54119000  0.13424900  0.73921300  1
  C  341  1  0.55995100  0.13884300  0.77277300  1
  C  343  1  0.53844200  0.16064200  0.79958500  1
  C  353  1  0.04827400  0.51775300  0.52047400  1
  C  354  1  0.06636600  0.51259500  0.48671700  1
  C  355  1  0.04381100  0.49135900  0.46015300  1
  C  356  1  0.00371200  0.47494000  0.46621000  1
  C  357  1  0.98561000  0.48026900  0.50002700  1
  C  359  1  0.00827800  0.50129000  0.52664700  1
  C  369  1  0.84155800  0.63089700  0.02202700  1
  C  370  1  0.82225900  0.63566400  0.98871900  1
  C  371  1  0.84362900  0.65707300  0.96161000  1
  C  372  1  0.88367800  0.67395000  0.96676700  1
  C  373  1  0.90291200  0.66931400  0.00016800  1
  C  375  1  0.88146800  0.64799500  0.02733000  1
  C  385  1  0.33835200  0.01609600  0.23733800  1
  C  386  1  0.31979400  0.01102200  0.27091600  1
  C  387  1  0.34186300  0.98955900  0.29758300  1
  C  388  1  0.38186600  0.97291500  0.29169400  1
  C  389  1  0.40026600  0.97766300  0.25797600  1
  C  391  1  0.37814400  0.99908200  0.23127200  1
  C  401  1  0.38611300  0.16595000  0.98495500  1
  C  402  1  0.40117100  0.16117400  0.01978900  1
  C  403  1  0.37486100  0.14347900  0.04570700  1
  C  404  1  0.33410500  0.13032200  0.03748200  1
  C  405  1  0.31920000  0.13495400  0.00266300  1
  C  407  1  0.34568400  0.15208000  0.97663600  1
  C  417  1  0.87511200  0.97220600  0.78584000  1
  C  418  1  0.89258000  0.97998300  0.75212600  1
  C  419  1  0.86851500  0.00091700  0.72633000  1
  C  420  1  0.82748600  0.01423400  0.73331700  1
  C  421  1  0.81006800  0.00645000  0.76685500  1
  C  423  1  0.83414200  0.98573500  0.79267900  1
  C  433  1  0.54843200  0.01965100  0.53709300  1
  C  434  1  0.56534900  0.01243600  0.50331500  1
  C  435  1  0.54114700  0.99142400  0.47778000  1
  C  436  1  0.50072700  0.97666800  0.48521900  1
  C  437  1  0.48341200  0.98483900  0.51893900  1
  C  439  1  0.50762000  0.00605400  0.54447400  1
  C  449  1  0.05306700  0.63425800  0.72118100  1
  C  450  1  0.07002800  0.64431000  0.75442700  1
  C  451  1  0.04475100  0.66444200  0.77972200  1
  C  452  1  0.00314300  0.67562900  0.77254600  1
  C  453  1  0.98589900  0.66482800  0.73934200  1
  C  455  1  0.01118800  0.64443800  0.71406000  1
  C  465  1  0.00585400  0.17361900  0.28727400  1
  C  466  1  0.98784000  0.16627600  0.25369700  1
  C  467  1  0.01132600  0.14528000  0.22754800  1
  C  468  1  0.05228900  0.13145500  0.23407300  1
  C  469  1  0.07019400  0.13868000  0.26751400  1
  C  471  1  0.04670700  0.15946500  0.29367600  1
  C  481  1  0.55554300  0.51689800  0.02779900  1
  C  482  1  0.57310600  0.51063300  0.99411000  1
  C  483  1  0.54968500  0.48970200  0.96802500  1
  C  484  1  0.50926200  0.47461900  0.97479000  1
  C  485  1  0.49162400  0.48091600  0.00864700  1
  C  487  1  0.51500800  0.50214200  0.03471100  1
  C  497  1  0.21265600  0.54067300  0.13593200  1
  C  498  1  0.23163500  0.53852300  0.16989800  1
  C  499  1  0.27576500  0.53640700  0.17295300  1
  C  500  1  0.30030300  0.54016600  0.14232900  1
  C  501  1  0.28240100  0.54409100  0.10858800  1
  C  502  1  0.23829400  0.54228700  0.10523800  1
  C  503  1  0.20543100  0.53756900  0.19978800  1
  C  504  1  0.21872700  0.54120600  0.07194100  1
  C  506  1  0.16817800  0.54073700  0.13264700  1
  C  507  1  0.14253800  0.54209200  0.16335600  1
  C  508  1  0.09841700  0.54444500  0.16006600  1
  C  509  1  0.08057900  0.54065900  0.12625800  1
  C  510  1  0.10508800  0.53682500  0.09559900  1
  C  511  1  0.14921500  0.53899000  0.09865700  1
  C  512  1  0.16214400  0.54020300  0.19661800  1
  C  514  1  0.17543200  0.53859600  0.06875200  1
  C  519  1  0.30964400  0.55002500  0.08059100  1
  C  520  1  0.08468300  0.53074900  0.06370200  1
  C  521  1  0.07118600  0.55148700  0.18802600  1
  C  522  1  0.29615500  0.53022500  0.20480100  1
  C  527  1  0.66637600  0.54183100  0.63678600  1
  C  528  1  0.64764900  0.54396400  0.67086100  1
  C  529  1  0.60357300  0.54702200  0.67415700  1
  C  530  1  0.57880600  0.54380500  0.64361200  1
  C  531  1  0.59638500  0.53978400  0.60973900  1
  C  532  1  0.64051100  0.54111400  0.60620900  1
  C  533  1  0.67410300  0.54389400  0.70060800  1
  C  534  1  0.65990000  0.54254300  0.57284000  1
  C  536  1  0.71082800  0.54076500  0.63325500  1
  C  537  1  0.73664400  0.53839500  0.66381300  1
  C  538  1  0.78067700  0.53512400  0.66024900  1
  C  539  1  0.79836200  0.53874900  0.62636900  1
  C  540  1  0.77375600  0.54349900  0.59586300  1
  C  541  1  0.72960800  0.54249400  0.59918300  1
  C  542  1  0.71730500  0.54025800  0.69719100  1
  C  544  1  0.70321100  0.54415000  0.56943600  1
  C  549  1  0.56890900  0.53315700  0.58193500  1
  C  550  1  0.79410200  0.54924100  0.56387100  1
  C  551  1  0.80801300  0.52761400  0.68802500  1
  C  552  1  0.58343200  0.55309000  0.70618600  1
  C  557  1  0.17348400  0.04293820  0.62369400  1
  C  558  1  0.15541600  0.04004320  0.58939500  1
  C  559  1  0.11139500  0.03732220  0.58547800  1
  C  560  1  0.08607500  0.04147020  0.61562600  1
  C  561  1  0.10300000  0.04616220  0.64968500  1
  C  562  1  0.14704100  0.04467320  0.65388400  1
  C  563  1  0.18243800  0.03899520  0.56003500  1
  C  564  1  0.16579100  0.04404820  0.68754000  1
  C  566  1  0.21786500  0.04374620  0.62784300  1
  C  567  1  0.24425500  0.04507120  0.59760900  1
  C  568  1  0.28821400  0.04823320  0.60170800  1
  C  569  1  0.30529700  0.04541620  0.63582500  1
  C  570  1  0.28010300  0.04151120  0.66607200  1
  C  571  1  0.23601400  0.04278220  0.66218100  1
  C  572  1  0.22558300  0.04235620  0.56400800  1
  C  574  1  0.20903000  0.04213520  0.69157600  1
  C  579  1  0.07494200  0.05317320  0.67699700  1
  C  580  1  0.29993100  0.03593920  0.69830200  1
  C  581  1  0.31592600  0.05530020  0.57417900  1
  C  582  1  0.09180900  0.03100120  0.55319800  1
  C  587  1  0.71690400  0.04033820  0.12481900  1
  C  588  1  0.73578900  0.04228220  0.09080400  1
  C  589  1  0.77991800  0.04425320  0.08762800  1
  C  590  1  0.80454300  0.04081720  0.11823200  1
  C  591  1  0.78675200  0.03726020  0.15205800  1
  C  592  1  0.74262900  0.03902320  0.15546600  1
  C  593  1  0.70950100  0.04318320  0.06096500  1
  C  594  1  0.72310700  0.04039420  0.18878100  1
  C  596  1  0.67243000  0.04017720  0.12820200  1
  C  597  1  0.64672300  0.03894220  0.09754300  1
  C  598  1  0.60262500  0.03668220  0.10092100  1
  C  599  1  0.58480300  0.03977620  0.13474900  1
  C  600  1  0.60937200  0.04331120  0.16538500  1
  C  601  1  0.65351700  0.04169120  0.16222200  1
  C  602  1  0.66621500  0.04081720  0.06423700  1
  C  604  1  0.67979900  0.04250920  0.19206600  1
  C  609  1  0.81407600  0.03164520  0.18008800  1
  C  610  1  0.58894800  0.04878020  0.19732800  1
  C  611  1  0.57541700  0.03005620  0.07297200  1
  C  612  1  0.80019000  0.04985920  0.05563600  1
  C  617  1  0.94263800  0.81197700  0.37548400  1
  C  618  1  0.93864000  0.83133200  0.34176700  1
  C  619  1  0.93189300  0.87522400  0.33915300  1
  C  620  1  0.93714400  0.89936700  0.37002900  1
  C  621  1  0.94497000  0.88139000  0.40329100  1
  C  622  1  0.94465000  0.83725500  0.40633700  1
  C  623  1  0.94122900  0.80543500  0.31168800  1
  C  624  1  0.94556400  0.81725000  0.43948000  1
  C  626  1  0.94351800  0.76744600  0.37843200  1
  C  627  1  0.94510400  0.74216800  0.34754200  1
  C  628  1  0.94632900  0.69801100  0.35043800  1
  C  629  1  0.94223400  0.67966200  0.38401000  1
  C  630  1  0.93937000  0.70384000  0.41492100  1
  C  631  1  0.94213700  0.74801800  0.41224700  1
  C  632  1  0.94532700  0.76222500  0.31445700  1
  C  634  1  0.94291800  0.77390800  0.44235400  1
  C  639  1  0.94966200  0.90763100  0.43223500  1
  C  640  1  0.93439900  0.68300900  0.44674800  1
  C  641  1  0.95078700  0.67198100  0.32145400  1
  C  642  1  0.91512500  0.89391400  0.30872100  1
  C  647  1  0.94093400  0.26741900  0.87235500  1
  C  648  1  0.94220600  0.24829700  0.83840300  1
  C  649  1  0.94489200  0.20415900  0.83542600  1
  C  650  1  0.94245100  0.17967100  0.86618900  1
  C  651  1  0.93919600  0.19778800  0.89985900  1
  C  652  1  0.94031500  0.24189200  0.90312100  1
  C  653  1  0.94138500  0.27439000  0.80843800  1
  C  654  1  0.94124500  0.26154900  0.93639000  1
  C  656  1  0.94063600  0.31190500  0.87556900  1
  C  657  1  0.93850600  0.33741900  0.84483200  1
  C  658  1  0.93684900  0.38153300  0.84808300  1
  C  659  1  0.94078500  0.39963100  0.88177600  1
  C  660  1  0.94447600  0.37520900  0.91247900  1
  C  661  1  0.94267200  0.33102400  0.90949700  1
  C  662  1  0.93853100  0.31768500  0.81156200  1
  C  664  1  0.94341800  0.30488200  0.93945400  1
  C  669  1  0.93493000  0.17112100  0.92830800  1
  C  670  1  0.94866000  0.39578500  0.94449800  1
  C  671  1  0.93130200  0.40775900  0.81937600  1
  C  672  1  0.95057300  0.18366600  0.80355200  1
  C  677  1  0.44104600  0.77019900  0.88746800  1
  C  678  1  0.43793100  0.75161500  0.92160100  1
  C  679  1  0.43136400  0.70772400  0.92518100  1
  C  680  1  0.43519500  0.68296500  0.89447600  1
  C  681  1  0.44148800  0.70026700  0.86078700  1
  C  682  1  0.44168400  0.74426700  0.85699400  1
  C  683  1  0.44169000  0.77828600  0.95112400  1
  C  684  1  0.44228400  0.76336900  0.82348000  1
  C  686  1  0.44335300  0.81457900  0.88365600  1
  C  687  1  0.44632300  0.84048500  0.91406400  1
  C  688  1  0.44929500  0.88442800  0.91031800  1
  C  689  1  0.44618600  0.90221500  0.87653200  1
  C  690  1  0.44201600  0.87746300  0.84605900  1
  C  691  1  0.44242400  0.83326900  0.84951200  1
  C  692  1  0.44646600  0.82132300  0.94750500  1
  C  694  1  0.44134500  0.80668200  0.81986300  1
  C  699  1  0.44693800  0.67301500  0.83279600  1
  C  700  1  0.43767300  0.89782800  0.81395300  1
  C  701  1  0.45535200  0.91125700  0.93839100  1
  C  702  1  0.42026700  0.68895700  0.95747700  1
  C  707  1  0.44335600  0.31396700  0.38570800  1
  C  708  1  0.44471500  0.33339600  0.41953900  1
  C  709  1  0.44624200  0.37761200  0.42224500  1
  C  710  1  0.44298000  0.40176100  0.39135200  1
  C  711  1  0.43985500  0.38327400  0.35782200  1
  C  712  1  0.44175800  0.33918500  0.35479500  1
  C  713  1  0.44504800  0.30753400  0.44966500  1
  C  714  1  0.44241100  0.31925800  0.32163300  1
  C  716  1  0.44372900  0.26946800  0.38274200  1
  C  717  1  0.44262300  0.24424900  0.41366800  1
  C  718  1  0.44134800  0.20014500  0.41066400  1
  C  719  1  0.44451000  0.18167000  0.37713200  1
  C  720  1  0.44732100  0.20583500  0.34621300  1
  C  721  1  0.44522500  0.25004500  0.34891400  1
  C  722  1  0.44305200  0.26417600  0.44683200  1
  C  724  1  0.44507900  0.27592900  0.31879600  1
  C  729  1  0.43443600  0.40959300  0.32930700  1
  C  730  1  0.45130000  0.18493800  0.31433600  1
  C  731  1  0.43562400  0.17384700  0.43914500  1
  C  732  1  0.45079700  0.39854000  0.45404300  1
  C  737  1  0.04175700  0.48336900  0.03130000  1
  C  738  1  0.05991900  0.47767500  0.99766400  1
  C  739  1  0.03717200  0.45648600  0.97121800  1
  C  740  1  0.99697700  0.44028700  0.97736000  1
  C  741  1  0.97856200  0.44681000  0.01091800  1
  C  743  1  0.00145500  0.46773500  0.03745200  1
  C  753  1  0.83879700  0.59561500  0.53182800  1
  C  754  1  0.82138500  0.60154100  0.49792900  1
  C  755  1  0.84479500  0.62275800  0.47190200  1
  C  756  1  0.88496500  0.63868200  0.47868000  1
  C  757  1  0.90268500  0.63175300  0.51244200  1
  C  759  1  0.87911400  0.61087300  0.53856700  1
  C  769  1  0.34508700  0.98965800  0.73023700  1
  C  770  1  0.32787100  0.98421700  0.76426400  1
  C  771  1  0.35094500  0.96231300  0.79006300  1
  C  772  1  0.39050000  0.94521200  0.78287600  1
  C  773  1  0.40821300  0.95183500  0.74908500  1
  C  775  1  0.38495900  0.97342500  0.72317900  1
  C  785  1  0.54449200  0.09518820  0.22942300  1
  C  786  1  0.56203500  0.10073800  0.26331000  1
  C  787  1  0.53899500  0.12228100  0.28934100  1
  C  788  1  0.49914800  0.13891200  0.28251200  1
  C  789  1  0.48118600  0.13225900  0.24880900  1
  C  791  1  0.50439300  0.11100400  0.22267700  1
  C  801  1  0.38166100  0.14426600  0.47569800  1
  C  802  1  0.39926800  0.13799800  0.50956200  1
  C  803  1  0.37586200  0.11677800  0.53562100  1
  C  804  1  0.33533300  0.10198800  0.52870300  1
  C  805  1  0.31772000  0.10845800  0.49505200  1
  C  807  1  0.34116600  0.12935800  0.46896900  1
  C  817  1  0.88615600  0.95161100  0.27978200  1
  C  818  1  0.90239200  0.95523600  0.24524400  1
  C  819  1  0.87725500  0.97279100  0.21842500  1
  C  820  1  0.83643400  0.98673300  0.22545500  1
  C  821  1  0.82034100  0.98318500  0.25998700  1
  C  823  1  0.84569600  0.96631500  0.28690300  1
  C  833  1  0.49863200  0.64423300  0.79396900  1
  C  834  1  0.47988000  0.63975600  0.76037300  1
  C  835  1  0.50153900  0.61817700  0.73346400  1
  C  836  1  0.54119000  0.60062900  0.73921300  1
  C  837  1  0.55995100  0.60522300  0.77277300  1
  C  839  1  0.53844200  0.62702200  0.79958500  1
  C  849  1  0.04827400  0.98413300  0.52047400  1
  C  850  1  0.06636600  0.97897500  0.48671700  1
  C  851  1  0.04381100  0.95773900  0.46015300  1
  C  852  1  0.00371200  0.94132000  0.46621000  1
  C  853  1  0.98561000  0.94664900  0.50002700  1
  C  855  1  0.00827800  0.96767000  0.52664700  1
  C  865  1  0.84155800  0.09727720  0.02202700  1
  C  866  1  0.82225900  0.10204400  0.98871900  1
  C  867  1  0.84362900  0.12345300  0.96161000  1
  C  868  1  0.88367800  0.14033000  0.96676700  1
  C  869  1  0.90291200  0.13569400  0.00016800  1
  C  871  1  0.88146800  0.11437500  0.02733000  1
  C  881  1  0.33835200  0.48247600  0.23733800  1
  C  882  1  0.31979400  0.47740200  0.27091600  1
  C  883  1  0.34186300  0.45593900  0.29758300  1
  C  884  1  0.38186600  0.43929500  0.29169400  1
  C  885  1  0.40026600  0.44404300  0.25797600  1
  C  887  1  0.37814400  0.46546200  0.23127200  1
  C  897  1  0.38611300  0.63233000  0.98495500  1
  C  898  1  0.40117100  0.62755400  0.01978900  1
  C  899  1  0.37486100  0.60985900  0.04570700  1
  C  900  1  0.33410500  0.59670200  0.03748200  1
  C  901  1  0.31920000  0.60133400  0.00266300  1
  C  903  1  0.34568400  0.61846000  0.97663600  1
  C  913  1  0.87511200  0.43858600  0.78584000  1
  C  914  1  0.89258000  0.44636300  0.75212600  1
  C  915  1  0.86851500  0.46729700  0.72633000  1
  C  916  1  0.82748600  0.48061400  0.73331700  1
  C  917  1  0.81006800  0.47283000  0.76685500  1
  C  919  1  0.83414200  0.45211500  0.79267900  1
  C  929  1  0.54843200  0.48603100  0.53709300  1
  C  930  1  0.56534900  0.47881600  0.50331500  1
  C  931  1  0.54114700  0.45780400  0.47778000  1
  C  932  1  0.50072700  0.44304800  0.48521900  1
  C  933  1  0.48341200  0.45121900  0.51893900  1
  C  935  1  0.50762000  0.47243400  0.54447400  1
  C  945  1  0.05306700  0.10063800  0.72118100  1
  C  946  1  0.07002800  0.11069000  0.75442700  1
  C  947  1  0.04475100  0.13082200  0.77972200  1
  C  948  1  0.00314300  0.14200900  0.77254600  1
  C  949  1  0.98589900  0.13120800  0.73934200  1
  C  951  1  0.01118800  0.11081800  0.71406000  1
  C  961  1  0.00585400  0.63999900  0.28727400  1
  C  962  1  0.98784000  0.63265600  0.25369700  1
  C  963  1  0.01132600  0.61166000  0.22754800  1
  C  964  1  0.05228900  0.59783500  0.23407300  1
  C  965  1  0.07019400  0.60506000  0.26751400  1
  C  967  1  0.04670700  0.62584500  0.29367600  1
  C  977  1  0.55554300  0.98327800  0.02779900  1
  C  978  1  0.57310600  0.97701300  0.99411000  1
  C  979  1  0.54968500  0.95608200  0.96802500  1
  C  980  1  0.50926200  0.94099900  0.97479000  1
  C  981  1  0.49162400  0.94729600  0.00864700  1
  C  983  1  0.51500800  0.96852200  0.03471100  1
  N  249  1  0.93792400  0.96593200  0.01793400  1
  N  250  1  0.10094600  0.02544800  0.99158800  1
  N  255  1  0.06245200  0.03157600  0.05907800  1
  N  256  1  0.98093100  0.95189700  0.95071900  1
  N  265  1  0.94331600  0.17944500  0.52006100  1
  N  266  1  0.78044000  0.12120100  0.49116900  1
  N  271  1  0.81754200  0.11482800  0.55938700  1
  N  272  1  0.90173300  0.19448400  0.45244200  1
  N  281  1  0.44850800  0.47049300  0.74135600  1
  N  282  1  0.28741400  0.53286100  0.77144000  1
  N  287  1  0.32388200  0.53798200  0.70280600  1
  N  288  1  0.40669900  0.45605100  0.80889300  1
  N  297  1  0.44075700  0.68061000  0.24128400  1
  N  298  1  0.60277800  0.61981900  0.27006800  1
  N  303  1  0.56568500  0.61446800  0.20187000  1
  N  304  1  0.48310400  0.69524800  0.30865000  1
  N  313  1  0.27694500  0.62754900  0.48837600  1
  N  314  1  0.43887600  0.68836100  0.51732500  1
  N  319  1  0.39847200  0.70080100  0.45018100  1
  N  320  1  0.31154800  0.62120900  0.55460700  1
  N  329  1  0.77913100  0.53001300  0.26668300  1
  N  330  1  0.94305500  0.47418400  0.23843500  1
  N  335  1  0.90650300  0.46657300  0.30599900  1
  N  336  1  0.81179000  0.53237300  0.19922400  1
  N  345  1  0.60048900  0.12314500  0.77846100  1
  N  346  1  0.44076600  0.19195300  0.75385500  1
  N  351  1  0.48352100  0.20140300  0.81990200  1
  N  352  1  0.56133500  0.11954800  0.71114800  1
  N  361  1  0.94587200  0.46342300  0.50717200  1
  N  362  1  0.10720800  0.52725800  0.48062000  1
  N  367  1  0.06878300  0.53239500  0.54839400  1
  N  368  1  0.98724600  0.45265600  0.43989300  1
  N  377  1  0.94222100  0.68759600  0.00641100  1
  N  378  1  0.78133300  0.62068700  0.98365400  1
  N  383  1  0.82170300  0.61660400  0.05034400  1
  N  384  1  0.89844400  0.69730700  0.94057300  1
  N  393  1  0.43942600  0.95942100  0.25100500  1
  N  394  1  0.27891900  0.02578400  0.27669100  1
  N  399  1  0.31798400  0.03079400  0.20945300  1
  N  400  1  0.39751700  0.94981400  0.31765300  1
  N  409  1  0.27809400  0.12235800  0.99481900  1
  N  410  1  0.44198200  0.17456300  0.02780700  1
  N  415  1  0.40824100  0.18388700  0.95941700  1
  N  416  1  0.30869500  0.11779000  0.06301000  1
  N  425  1  0.76892400  0.01976400  0.77373100  1
  N  426  1  0.93299300  0.96533200  0.74428100  1
  N  431  1  0.89306800  0.95000400  0.81138600  1
  N  432  1  0.80349800  0.02888500  0.70755000  1
  N  441  1  0.44266900  0.97145100  0.52702100  1
  N  442  1  0.60610400  0.02653900  0.49592800  1
  N  447  1  0.57264900  0.03410000  0.56271200  1
  N  448  1  0.48341800  0.95437800  0.45943400  1
  N  457  1  0.94406200  0.67467200  0.73161600  1
  N  458  1  0.11189100  0.63373300  0.76161100  1
  N  463  1  0.07784500  0.61984100  0.69588300  1
  N  464  1  0.98444700  0.69702000  0.79817400  1
  N  473  1  0.11123800  0.12478000  0.27397500  1
  N  474  1  0.94747300  0.18139900  0.24632100  1
  N  479  1  0.98865100  0.19595200  0.31310700  1
  N  480  1  0.07590200  0.11707300  0.20796300  1
  N  489  1  0.45201600  0.46417900  0.01644400  1
  N  490  1  0.61382500  0.52530600  0.98743700  1
  N  495  1  0.57927500  0.53094300  0.05386500  1
  N  496  1  0.49253100  0.45148700  0.94937400  1
  N  745  1  0.93792400  0.43231200  0.01793400  1
  N  746  1  0.10094600  0.49182800  0.99158800  1
  N  751  1  0.06245200  0.49795600  0.05907800  1
  N  752  1  0.98093100  0.41827700  0.95071900  1
  N  761  1  0.94331600  0.64582500  0.52006100  1
  N  762  1  0.78044000  0.58758100  0.49116900  1
  N  767  1  0.81754200  0.58120800  0.55938700  1
  N  768  1  0.90173300  0.66086400  0.45244200  1
  N  777  1  0.44850800  0.93687300  0.74135600  1
  N  778  1  0.28741400  0.99924100  0.77144000  1
  N  783  1  0.32388200  0.00436221  0.70280600  1
  N  784  1  0.40669900  0.92243100  0.80889300  1
  N  793  1  0.44075700  0.14699000  0.24128400  1
  N  794  1  0.60277800  0.08619920  0.27006800  1
  N  799  1  0.56568500  0.08084820  0.20187000  1
  N  800  1  0.48310400  0.16162800  0.30865000  1
  N  809  1  0.27694500  0.09392920  0.48837600  1
  N  810  1  0.43887600  0.15474100  0.51732500  1
  N  815  1  0.39847200  0.16718100  0.45018100  1
  N  816  1  0.31154800  0.08758920  0.55460700  1
  N  825  1  0.77913100  0.99639300  0.26668300  1
  N  826  1  0.94305500  0.94056400  0.23843500  1
  N  831  1  0.90650300  0.93295300  0.30599900  1
  N  832  1  0.81179000  0.99875300  0.19922400  1
  N  841  1  0.60048900  0.58952500  0.77846100  1
  N  842  1  0.44076600  0.65833300  0.75385500  1
  N  847  1  0.48352100  0.66778300  0.81990200  1
  N  848  1  0.56133500  0.58592800  0.71114800  1
  N  857  1  0.94587200  0.92980300  0.50717200  1
  N  858  1  0.10720800  0.99363800  0.48062000  1
  N  863  1  0.06878300  0.99877500  0.54839400  1
  N  864  1  0.98724600  0.91903600  0.43989300  1
  N  873  1  0.94222100  0.15397600  0.00641100  1
  N  874  1  0.78133300  0.08706720  0.98365400  1
  N  879  1  0.82170300  0.08298420  0.05034400  1
  N  880  1  0.89844400  0.16368700  0.94057300  1
  N  889  1  0.43942600  0.42580100  0.25100500  1
  N  890  1  0.27891900  0.49216400  0.27669100  1
  N  895  1  0.31798400  0.49717400  0.20945300  1
  N  896  1  0.39751700  0.41619400  0.31765300  1
  N  905  1  0.27809400  0.58873800  0.99481900  1
  N  906  1  0.44198200  0.64094300  0.02780700  1
  N  911  1  0.40824100  0.65026700  0.95941700  1
  N  912  1  0.30869500  0.58417000  0.06301000  1
  N  921  1  0.76892400  0.48614400  0.77373100  1
  N  922  1  0.93299300  0.43171200  0.74428100  1
  N  927  1  0.89306800  0.41638400  0.81138600  1
  N  928  1  0.80349800  0.49526500  0.70755000  1
  N  937  1  0.44266900  0.43783100  0.52702100  1
  N  938  1  0.60610400  0.49291900  0.49592800  1
  N  943  1  0.57264900  0.50048000  0.56271200  1
  N  944  1  0.48341800  0.42075800  0.45943400  1
  N  953  1  0.94406200  0.14105200  0.73161600  1
  N  954  1  0.11189100  0.10011300  0.76161100  1
  N  959  1  0.07784500  0.08622120  0.69588300  1
  N  960  1  0.98444700  0.16340000  0.79817400  1
  N  969  1  0.11123800  0.59116000  0.27397500  1
  N  970  1  0.94747300  0.64777900  0.24632100  1
  N  975  1  0.98865100  0.66233200  0.31310700  1
  N  976  1  0.07590200  0.58345300  0.20796300  1
  N  985  1  0.45201600  0.93055900  0.01644400  1
  N  986  1  0.61382500  0.99168600  0.98743700  1
  N  991  1  0.57927500  0.99732300  0.05386500  1
  N  992  1  0.49253100  0.91786700  0.94937400  1
  O  251  1  0.93742400  0.93986500  0.04258100  1
  O  252  1  0.10200000  0.05183600  0.96720900  1
  O  253  1  0.12499600  0.99602900  0.98392500  1
  O  254  1  0.91371000  0.99528900  0.02545300  1
  O  267  1  0.94362400  0.20531300  0.54485300  1
  O  268  1  0.77982500  0.09488600  0.46672100  1
  O  269  1  0.75666700  0.15072700  0.48318700  1
  O  270  1  0.96712600  0.14979700  0.52768700  1
  O  283  1  0.44816300  0.44484600  0.71639800  1
  O  284  1  0.28785100  0.55911500  0.79594100  1
  O  285  1  0.26296900  0.50395800  0.77960400  1
  O  286  1  0.47295000  0.49965200  0.73380900  1
  O  299  1  0.44079400  0.70642000  0.21644300  1
  O  300  1  0.60300400  0.59347500  0.29449800  1
  O  301  1  0.62696700  0.64899900  0.27806600  1
  O  302  1  0.41647100  0.65133400  0.23369700  1
  O  315  1  0.27671700  0.60091200  0.46417800  1
  O  316  1  0.46408500  0.66036900  0.52610500  1
  O  317  1  0.43708800  0.71489800  0.54155800  1
  O  318  1  0.25290600  0.65672500  0.48007300  1
  O  331  1  0.77827900  0.55884800  0.28898500  1
  O  332  1  0.94278700  0.44543600  0.21603700  1
  O  333  1  0.96611200  0.50289800  0.22740300  1
  O  334  1  0.75691000  0.50059100  0.27760700  1
  O  347  1  0.60080900  0.09655300  0.80269900  1
  O  348  1  0.41407700  0.16510700  0.74566000  1
  O  349  1  0.44269700  0.21855300  0.72968100  1
  O  350  1  0.62574500  0.15157100  0.78603000  1
  O  363  1  0.92044400  0.49135000  0.51567200  1
  O  364  1  0.10790700  0.55385700  0.45639900  1
  O  365  1  0.13158400  0.49817800  0.47276200  1
  O  366  1  0.94717700  0.43674300  0.53130900  1
  O  379  1  0.96875800  0.66064300  0.01471900  1
  O  380  1  0.77998900  0.59407500  0.95946100  1
  O  381  1  0.75646800  0.64957400  0.97641500  1
  O  382  1  0.94062300  0.71452500  0.03033600  1
  O  395  1  0.46574900  0.98640000  0.24227900  1
  O  396  1  0.27797000  0.05218900  0.30105800  1
  O  397  1  0.25434900  0.99671600  0.28414100  1
  O  398  1  0.43724100  0.93255200  0.22706600  1
  O  411  1  0.27770100  0.09404500  0.97203200  1
  O  412  1  0.44178600  0.20262200  0.05082600  1
  O  413  1  0.46397300  0.14493800  0.03868700  1
  O  414  1  0.25661500  0.15228600  0.98381700  1
  O  427  1  0.76804100  0.04597000  0.79825800  1
  O  428  1  0.95694700  0.99469200  0.73621200  1
  O  429  1  0.93261400  0.93940100  0.71953800  1
  O  430  1  0.74571700  0.98981400  0.78175700  1
  O  443  1  0.44234600  0.94610200  0.55219800  1
  O  444  1  0.60600800  0.05292700  0.47153000  1
  O  445  1  0.62969100  0.99708000  0.48741500  1
  O  446  1  0.41936300  0.00155100  0.53449500  1
  O  459  1  0.92305000  0.64256000  0.72538200  1
  O  460  1  0.11430100  0.60853000  0.78680900  1
  O  461  1  0.13323500  0.66530400  0.76885800  1
  O  462  1  0.94125400  0.69883600  0.70572300  1
  O  475  1  0.11204600  0.09831900  0.29830700  1
  O  476  1  0.92312200  0.15232300  0.23836600  1
  O  477  1  0.94777400  0.20744600  0.22166600  1
  O  478  1  0.13492300  0.15434300  0.28202200  1
  O  491  1  0.42680600  0.49219900  0.02516800  1
  O  492  1  0.61391800  0.55203500  0.96331000  1
  O  493  1  0.63793600  0.49624100  0.97900800  1
  O  494  1  0.45378500  0.43770400  0.04072300  1
  O  747  1  0.93742400  0.40624500  0.04258100  1
  O  748  1  0.10200000  0.51821600  0.96720900  1
  O  749  1  0.12499600  0.46240900  0.98392500  1
  O  750  1  0.91371000  0.46166900  0.02545300  1
  O  763  1  0.94362400  0.67169300  0.54485300  1
  O  764  1  0.77982500  0.56126600  0.46672100  1
  O  765  1  0.75666700  0.61710700  0.48318700  1
  O  766  1  0.96712600  0.61617700  0.52768700  1
  O  779  1  0.44816300  0.91122600  0.71639800  1
  O  780  1  0.28785100  0.02549520  0.79594100  1
  O  781  1  0.26296900  0.97033800  0.77960400  1
  O  782  1  0.47295000  0.96603200  0.73380900  1
  O  795  1  0.44079400  0.17280000  0.21644300  1
  O  796  1  0.60300400  0.05985520  0.29449800  1
  O  797  1  0.62696700  0.11537900  0.27806600  1
  O  798  1  0.41647100  0.11771400  0.23369700  1
  O  811  1  0.27671700  0.06729220  0.46417800  1
  O  812  1  0.46408500  0.12674900  0.52610500  1
  O  813  1  0.43708800  0.18127800  0.54155800  1
  O  814  1  0.25290600  0.12310500  0.48007300  1
  O  827  1  0.77827900  0.02522820  0.28898500  1
  O  828  1  0.94278700  0.91181600  0.21603700  1
  O  829  1  0.96611200  0.96927800  0.22740300  1
  O  830  1  0.75691000  0.96697100  0.27760700  1
  O  843  1  0.60080900  0.56293300  0.80269900  1
  O  844  1  0.41407700  0.63148700  0.74566000  1
  O  845  1  0.44269700  0.68493300  0.72968100  1
  O  846  1  0.62574500  0.61795100  0.78603000  1
  O  859  1  0.92044400  0.95773000  0.51567200  1
  O  860  1  0.10790700  0.02023720  0.45639900  1
  O  861  1  0.13158400  0.96455800  0.47276200  1
  O  862  1  0.94717700  0.90312300  0.53130900  1
  O  875  1  0.96875800  0.12702300  0.01471900  1
  O  876  1  0.77998900  0.06045520  0.95946100  1
  O  877  1  0.75646800  0.11595400  0.97641500  1
  O  878  1  0.94062300  0.18090500  0.03033600  1
  O  891  1  0.46574900  0.45278000  0.24227900  1
  O  892  1  0.27797000  0.51856900  0.30105800  1
  O  893  1  0.25434900  0.46309600  0.28414100  1
  O  894  1  0.43724100  0.39893200  0.22706600  1
  O  907  1  0.27770100  0.56042500  0.97203200  1
  O  908  1  0.44178600  0.66900200  0.05082600  1
  O  909  1  0.46397300  0.61131800  0.03868700  1
  O  910  1  0.25661500  0.61866600  0.98381700  1
  O  923  1  0.76804100  0.51235000  0.79825800  1
  O  924  1  0.95694700  0.46107200  0.73621200  1
  O  925  1  0.93261400  0.40578100  0.71953800  1
  O  926  1  0.74571700  0.45619400  0.78175700  1
  O  939  1  0.44234600  0.41248200  0.55219800  1
  O  940  1  0.60600800  0.51930700  0.47153000  1
  O  941  1  0.62969100  0.46346000  0.48741500  1
  O  942  1  0.41936300  0.46793100  0.53449500  1
  O  955  1  0.92305000  0.10894000  0.72538200  1
  O  956  1  0.11430100  0.07491020  0.78680900  1
  O  957  1  0.13323500  0.13168400  0.76885800  1
  O  958  1  0.94125400  0.16521600  0.70572300  1
  O  971  1  0.11204600  0.56469900  0.29830700  1
  O  972  1  0.92312200  0.61870300  0.23836600  1
  O  973  1  0.94777400  0.67382600  0.22166600  1
  O  974  1  0.13492300  0.62072300  0.28202200  1
  O  987  1  0.42680600  0.95857900  0.02516800  1
  O  988  1  0.61391800  0.01841520  0.96331000  1
  O  989  1  0.63793600  0.96262100  0.97900800  1
  O  990  1  0.45378500  0.90408400  0.04072300  1
