# generated using pymatgen
data_H8C13N5O2
_symmetry_space_group_name_H-M   'P 1'
_cell_length_a   49.53420000
_cell_length_b   61.02740000
_cell_length_c   61.02740000
_cell_angle_alpha   120.00000000
_cell_angle_beta   90.00000000
_cell_angle_gamma   90.00000000
_symmetry_Int_Tables_number   1
_chemical_formula_structural   H8C13N5O2
_chemical_formula_sum   'H384 C624 N240 O96'
_cell_volume   159766.42616881
_cell_formula_units_Z   48
loop_
 _symmetry_equiv_pos_site_id
 _symmetry_equiv_pos_as_xyz
  1  'x, y, z'
loop_
 _atom_site_type_symbol
 _atom_site_label
 _atom_site_symmetry_multiplicity
 _atom_site_fract_x
 _atom_site_fract_y
 _atom_site_fract_z
 _atom_site_occupancy
  H  6  1  0.85298700  0.91700300  0.60547400  1
  H  7  1  0.90210800  0.87590700  0.62820800  1
  H  14  1  0.76672700  0.88596900  0.53276500  1
  H  15  1  0.84534500  0.86599200  0.54130800  1
  H  17  1  0.77251500  0.90534900  0.61732800  1
  H  18  1  0.80301900  0.89666200  0.62079400  1
  H  27  1  0.51027200  0.91587300  0.35017100  1
  H  28  1  0.46256200  0.87478200  0.28542700  1
  H  35  1  0.59922100  0.88624700  0.39026500  1
  H  36  1  0.52074200  0.86561700  0.36156700  1
  H  38  1  0.59285900  0.90594000  0.32530200  1
  H  39  1  0.56236900  0.89707600  0.31315900  1
  H  48  1  0.51344000  0.91752100  0.60752100  1
  H  49  1  0.46112000  0.87464200  0.62519300  1
  H  56  1  0.59581900  0.89105800  0.53350600  1
  H  57  1  0.51829100  0.86919100  0.54204700  1
  H  59  1  0.59400400  0.90138100  0.61533500  1
  H  60  1  0.56348600  0.89307100  0.61895900  1
  H  69  1  0.85565000  0.91730900  0.34877200  1
  H  70  1  0.90561300  0.87336600  0.28678100  1
  H  77  1  0.77003000  0.89162500  0.39474200  1
  H  78  1  0.84764500  0.86968700  0.36455900  1
  H  80  1  0.77239200  0.90231600  0.32341300  1
  H  81  1  0.80303100  0.89417300  0.31175400  1
  H  91  1  0.69642000  0.91109300  0.54534100  1
  H  95  1  0.64654700  0.90558800  0.62974800  1
  H  97  1  0.61719400  0.93376000  0.60934400  1
  H  99  1  0.74445100  0.92716100  0.56805600  1
  H  106  1  0.66950300  0.91136300  0.40262400  1
  H  110  1  0.71950700  0.90566700  0.31265400  1
  H  112  1  0.74856200  0.93408200  0.36114800  1
  H  114  1  0.62149600  0.92729800  0.39600900  1
  H  119  1  0.92399900  0.97338600  0.62228800  1
  H  122  1  0.89272700  0.94026800  0.61678700  1
  H  127  1  0.42397200  0.98388500  0.39293700  1
  H  131  1  0.43397500  0.93540100  0.28259600  1
  H  133  1  0.47966700  0.93630100  0.30901900  1
  H  138  1  0.94181600  0.98468000  0.39273100  1
  H  142  1  0.92961200  0.93452900  0.28260400  1
  H  144  1  0.88203500  0.93895300  0.31288000  1
  H  149  1  0.44170500  0.97273500  0.62241500  1
  H  152  1  0.47496500  0.94159500  0.61889400  1
  H  157  1  0.85932200  0.88469100  0.47239900  1
  H  159  1  0.84956800  0.86652400  0.50235300  1
  H  164  1  0.50656100  0.88469900  0.44940400  1
  H  166  1  0.51645000  0.86706700  0.40147600  1
  H  169  1  0.81852100  0.83409800  0.56370900  1
  H  170  1  0.83756500  0.81804100  0.57282900  1
  H  174  1  0.54905300  0.83443500  0.30622100  1
  H  175  1  0.53025000  0.81833100  0.28083800  1
  H  179  1  0.54442600  0.83378500  0.55997000  1
  H  180  1  0.52374800  0.81665100  0.56643000  1
  H  184  1  0.81928100  0.83495100  0.31027000  1
  H  185  1  0.83924100  0.81738700  0.28617800  1
  H  192  1  0.85434800  0.82724900  0.22556300  1
  H  194  1  0.91437400  0.83131500  0.25581200  1
  H  200  1  0.89312500  0.81055600  0.56919400  1
  H  206  1  0.47381800  0.80970100  0.27760400  1
  H  212  1  0.51104900  0.82776400  0.63894800  1
  H  214  1  0.45153500  0.83254800  0.61458600  1
  H  220  1  0.76009700  0.84701600  0.41230000  1
  H  222  1  0.80868800  0.83828200  0.38531100  1
  H  228  1  0.60585200  0.84692400  0.47144800  1
  H  230  1  0.55732600  0.83784400  0.48959200  1
  H  237  1  0.85296800  0.63810100  0.06929200  1
  H  238  1  0.90213800  0.70189900  0.11038100  1
  H  245  1  0.76672700  0.59643200  0.10031900  1
  H  246  1  0.84536600  0.62490200  0.12023500  1
  H  249  1  0.81850700  0.67927000  0.15218800  1
  H  250  1  0.83757400  0.70443100  0.16824200  1
  H  251  1  0.77249300  0.66165200  0.08099800  1
  H  252  1  0.80299600  0.67380600  0.08968600  1
  H  260  1  0.35300500  0.57648100  0.66711400  1
  H  261  1  0.40216300  0.59917400  0.73091300  1
  H  263  1  0.27252700  0.58830600  0.69060200  1
  H  264  1  0.30302300  0.59178100  0.70277100  1
  H  269  1  0.01031300  0.57336000  0.94488200  1
  H  270  1  0.96254600  0.59702100  0.90383300  1
  H  272  1  0.09292400  0.58824300  0.93477800  1
  H  273  1  0.06242000  0.59153300  0.92594700  1
  H  281  1  0.51027800  0.63613300  0.60235400  1
  H  282  1  0.46251500  0.70084200  0.62596200  1
  H  289  1  0.59921500  0.59605200  0.53262000  1
  H  290  1  0.52074000  0.62476300  0.54071200  1
  H  293  1  0.54908600  0.68012800  0.56492400  1
  H  294  1  0.53025800  0.70549400  0.57418400  1
  H  295  1  0.59287100  0.66098800  0.61728800  1
  H  296  1  0.56238700  0.67314500  0.62057500  1
  H  304  1  0.01334300  0.57812000  0.66839800  1
  H  305  1  0.96107600  0.59606800  0.72907700  1
  H  307  1  0.09385900  0.58639400  0.69252700  1
  H  308  1  0.06336700  0.58993300  0.70448900  1
  H  316  1  0.51340700  0.63947700  0.06893100  1
  H  317  1  0.46098500  0.70001800  0.11165600  1
  H  324  1  0.59584500  0.59210900  0.09526400  1
  H  325  1  0.51833300  0.62253300  0.11723800  1
  H  328  1  0.54453300  0.67605000  0.15259100  1
  H  329  1  0.52384800  0.69965600  0.16968600  1
  H  330  1  0.59390500  0.66357100  0.08484700  1
  H  331  1  0.56340300  0.67552700  0.09323300  1
  H  342  1  0.85562200  0.63756500  0.60523900  1
  H  343  1  0.90570000  0.69945500  0.62316800  1
  H  350  1  0.77007000  0.59155500  0.53351300  1
  H  351  1  0.84766500  0.62178200  0.54179000  1
  H  354  1  0.81931200  0.67604400  0.56133700  1
  H  355  1  0.83931500  0.70009600  0.56781800  1
  H  356  1  0.77240400  0.66285800  0.61555600  1
  H  357  1  0.80303000  0.67454100  0.61907400  1
  H  365  1  0.35561900  0.57634700  0.94634400  1
  H  366  1  0.40578900  0.59410000  0.90232300  1
  H  368  1  0.27239400  0.58659300  0.93134500  1
  H  369  1  0.30301700  0.59012300  0.92317800  1
  H  375  1  0.90226500  0.73817200  0.22207500  1
  H  377  1  0.89315600  0.70827900  0.17574500  1
  H  382  1  0.90224000  0.76421700  0.55273300  1
  H  384  1  0.85438200  0.76074900  0.63843600  1
  H  386  1  0.91433200  0.73061000  0.61234800  1
  H  392  1  0.35448900  0.60940200  0.85635500  1
  H  394  1  0.41416100  0.58370800  0.86049600  1
  H  400  1  0.01108800  0.60995500  0.78989800  1
  H  402  1  0.95122100  0.58506100  0.76034400  1
  H  407  1  0.46374300  0.76357200  0.24733300  1
  H  409  1  0.51111000  0.76088400  0.15853600  1
  H  411  1  0.45139400  0.73157800  0.15377000  1
  H  416  1  0.46379100  0.73895400  0.55284900  1
  H  418  1  0.47381800  0.70867300  0.56871300  1
  H  425  1  0.69633100  0.58383800  0.07515400  1
  H  429  1  0.64637200  0.67375000  0.08067300  1
  H  431  1  0.61709100  0.62507200  0.05246600  1
  H  433  1  0.74442100  0.59060300  0.05912900  1
  H  439  1  0.14647500  0.60065600  0.70278800  1
  H  440  1  0.11717800  0.58048200  0.65431500  1
  H  446  1  0.21952400  0.60062500  0.93455800  1
  H  447  1  0.24864900  0.58059600  0.96320200  1
  H  454  1  0.66954400  0.58358300  0.54537600  1
  H  458  1  0.71958600  0.67359300  0.62953900  1
  H  460  1  0.74857800  0.62510000  0.60955500  1
  H  462  1  0.62149000  0.59028900  0.56788100  1
  H  469  1  0.92408300  0.59864000  0.01297800  1
  H  473  1  0.93395200  0.66034800  0.96432500  1
  H  475  1  0.97960400  0.63496900  0.96527900  1
  H  477  1  0.89238500  0.62617900  0.04574500  1
  H  484  1  0.42399000  0.59332200  0.62756500  1
  H  488  1  0.43398900  0.70367600  0.68945000  1
  H  490  1  0.47964500  0.67724300  0.66389300  1
  H  492  1  0.39258400  0.58793000  0.65517100  1
  H  499  1  0.94191400  0.59360600  0.62870100  1
  H  503  1  0.92952800  0.70369000  0.68848500  1
  H  505  1  0.88186100  0.67325200  0.66264700  1
  H  507  1  0.97693500  0.59182700  0.65636200  1
  H  514  1  0.44198200  0.59971200  0.01371700  1
  H  518  1  0.42950200  0.65951900  0.96345100  1
  H  520  1  0.38179900  0.63363600  0.96811000  1
  H  522  1  0.47703200  0.62740300  0.04314100  1
  H  524  1  0.84957100  0.58545200  0.11975100  1
  H  526  1  0.76011300  0.57402700  0.47143600  1
  H  528  1  0.80865900  0.60100500  0.48961300  1
  H  530  1  0.60578400  0.57428200  0.13936200  1
  H  532  1  0.55719500  0.60144100  0.14852100  1
  H  534  1  0.51644600  0.58488600  0.50221300  1
  H  548  1  0.85296100  0.38081400  0.34815800  1
  H  549  1  0.90212700  0.35813300  0.28436600  1
  H  556  1  0.76670700  0.45351800  0.38984300  1
  H  557  1  0.84533700  0.44499600  0.36136200  1
  H  560  1  0.81855400  0.42264800  0.30706500  1
  H  561  1  0.83763700  0.41357200  0.28192200  1
  H  562  1  0.77251300  0.36897100  0.32464300  1
  H  563  1  0.80301400  0.36551700  0.31248900  1
  H  574  1  0.35298700  0.31918800  0.94600500  1
  H  575  1  0.40214100  0.25537700  0.90491800  1
  H  582  1  0.26673300  0.36083900  0.91494300  1
  H  583  1  0.34536800  0.33235100  0.89500300  1
  H  586  1  0.31851200  0.27801200  0.86310800  1
  H  587  1  0.33756500  0.25284000  0.84706000  1
  H  588  1  0.27252700  0.29566600  0.93433200  1
  H  589  1  0.30303400  0.28351800  0.92565400  1
  H  602  1  0.26678200  0.50374200  0.62542700  1
  H  603  1  0.34540600  0.51232400  0.65393500  1
  H  605  1  0.31851600  0.53475300  0.70827300  1
  H  606  1  0.33757700  0.54385500  0.73343600  1
  H  615  1  0.35298100  0.04029600  0.40983700  1
  H  616  1  0.40220500  0.08137600  0.38715900  1
  H  623  1  0.26675800  0.07132100  0.48252800  1
  H  624  1  0.34539400  0.09123900  0.47397300  1
  H  627  1  0.31856600  0.12321200  0.45158600  1
  H  628  1  0.33766200  0.13926900  0.44250500  1
  H  629  1  0.27251700  0.05200500  0.39798700  1
  H  630  1  0.30301900  0.06069700  0.39452200  1
  H  643  1  0.09923100  0.50363400  0.91523000  1
  H  644  1  0.02071000  0.51172700  0.89471700  1
  H  646  1  0.04899700  0.53584100  0.86340500  1
  H  647  1  0.03017400  0.54512600  0.84731700  1
  H  656  1  0.01031300  0.04142000  0.66507900  1
  H  657  1  0.96254400  0.08245700  0.72979400  1
  H  664  1  0.09923100  0.07106800  0.62501700  1
  H  665  1  0.02074200  0.09164400  0.65369300  1
  H  668  1  0.04906600  0.12286300  0.70911400  1
  H  669  1  0.03023800  0.13894500  0.73448600  1
  H  670  1  0.09291600  0.05141500  0.69000700  1
  H  671  1  0.06242800  0.06027600  0.70215800  1
  H  682  1  0.01030100  0.32120800  0.41296100  1
  H  683  1  0.96252600  0.25649400  0.38928200  1
  H  690  1  0.09920900  0.36126300  0.48268200  1
  H  691  1  0.02071600  0.33259400  0.47457400  1
  H  694  1  0.04903500  0.27718300  0.45038600  1
  H  695  1  0.03020200  0.25181500  0.44110300  1
  H  696  1  0.09290000  0.29627200  0.39803900  1
  H  697  1  0.06241200  0.28411800  0.39475000  1
  H  708  1  0.51027400  0.38392200  0.07039200  1
  H  709  1  0.46250900  0.36035800  0.11152200  1
  H  716  1  0.59923100  0.45363800  0.10000300  1
  H  717  1  0.52074800  0.44558600  0.12063100  1
  H  720  1  0.54901100  0.42148800  0.15185800  1
  H  721  1  0.53015700  0.41226900  0.16798200  1
  H  722  1  0.59285900  0.36899400  0.08033100  1
  H  723  1  0.56237500  0.36572400  0.08921600  1
  H  734  1  0.01338500  0.31794300  0.94628900  1
  H  735  1  0.96105400  0.25729700  0.90360900  1
  H  742  1  0.09594200  0.36518000  0.91996700  1
  H  743  1  0.01842000  0.33479200  0.89796800  1
  H  746  1  0.04461600  0.28123000  0.86266300  1
  H  747  1  0.02395600  0.25759900  0.84558100  1
  H  748  1  0.09393200  0.29375400  0.93043500  1
  H  749  1  0.06342300  0.28181300  0.92203400  1
  H  763  1  0.09587000  0.50453900  0.62105400  1
  H  764  1  0.01840200  0.51286800  0.65152700  1
  H  766  1  0.04457000  0.53109200  0.70500100  1
  H  767  1  0.02393000  0.53764000  0.72864800  1
  H  777  1  0.01334700  0.03988400  0.40804900  1
  H  778  1  0.96114200  0.08264500  0.39009300  1
  H  785  1  0.09584100  0.06625400  0.48179200  1
  H  786  1  0.01833500  0.08823700  0.47333600  1
  H  789  1  0.04455000  0.12353600  0.45517800  1
  H  790  1  0.02392100  0.14063800  0.44862500  1
  H  791  1  0.09394800  0.05596200  0.39997100  1
  H  792  1  0.06341700  0.06426500  0.39637000  1
  H  803  1  0.51335100  0.37914700  0.34686200  1
  H  804  1  0.46108200  0.36118300  0.28617800  1
  H  811  1  0.59583300  0.45280600  0.39420000  1
  H  812  1  0.51830300  0.44432800  0.36380600  1
  H  815  1  0.54458800  0.42614300  0.31023500  1
  H  816  1  0.52395300  0.41958600  0.28658300  1
  H  817  1  0.59393500  0.37094500  0.32270800  1
  H  818  1  0.56342500  0.36737500  0.31076900  1
  H  829  1  0.85562400  0.38108100  0.06896200  1
  H  830  1  0.90566200  0.36307200  0.11288700  1
  H  837  1  0.77004000  0.45285100  0.09483200  1
  H  838  1  0.84768600  0.44445400  0.11659500  1
  H  841  1  0.81928400  0.42490600  0.15133300  1
  H  842  1  0.83928400  0.41840900  0.16889400  1
  H  843  1  0.77228700  0.37084200  0.08415100  1
  H  844  1  0.80295400  0.36724600  0.09218000  1
  H  858  1  0.27010100  0.50457500  0.92063700  1
  H  859  1  0.34769800  0.51286500  0.89870400  1
  H  861  1  0.31935600  0.53233100  0.86395400  1
  H  862  1  0.33939400  0.53874300  0.84635500  1
  H  872  1  0.35567400  0.03997000  0.66664000  1
  H  873  1  0.40577900  0.08401600  0.72846600  1
  H  880  1  0.27007200  0.06577300  0.62065300  1
  H  881  1  0.34773000  0.08754100  0.65078600  1
  H  884  1  0.31932100  0.12233000  0.70502900  1
  H  885  1  0.33934000  0.13993800  0.72905500  1
  H  886  1  0.27233800  0.05512100  0.69199300  1
  H  887  1  0.30300500  0.06316500  0.70361900  1
  H  898  1  0.35565200  0.31965800  0.40994900  1
  H  899  1  0.40574000  0.25780900  0.39213500  1
  H  906  1  0.27008500  0.36567400  0.48174900  1
  H  907  1  0.34773600  0.33553600  0.47338900  1
  H  910  1  0.31930900  0.28125800  0.45391600  1
  H  911  1  0.33931300  0.25721800  0.44747400  1
  H  912  1  0.27237600  0.29437700  0.39971100  1
  H  913  1  0.30301900  0.28271200  0.39615600  1
  H  924  1  0.90229100  0.43354500  0.24808300  1
  H  928  1  0.85436300  0.34794600  0.15902600  1
  H  930  1  0.91438000  0.37405300  0.15492500  1
  H  932  1  0.89318200  0.41712700  0.27799300  1
  H  939  1  0.40221300  0.21917300  0.79321200  1
  H  943  1  0.35448300  0.12996400  0.78968500  1
  H  945  1  0.41419900  0.12587400  0.75980000  1
  H  947  1  0.39311900  0.24905800  0.83955800  1
  H  952  1  0.40221900  0.52371400  0.76716900  1
  H  954  1  0.39312700  0.54015300  0.73726600  1
  H  961  1  0.40221300  0.19310600  0.46259000  1
  H  965  1  0.35448300  0.19655000  0.37686100  1
  H  967  1  0.41423500  0.22656300  0.40279000  1
  H  969  1  0.39314100  0.14677600  0.44616700  1
  H  973  1  0.96374200  0.52388100  0.79258600  1
  H  975  1  0.97377200  0.53974600  0.83872100  1
  H  982  1  0.96372200  0.19368000  0.76792300  1
  H  986  1  0.01115900  0.19644700  0.85663100  1
  H  988  1  0.95125700  0.22592500  0.86136100  1
  H  990  1  0.97380000  0.14755700  0.73766200  1
  H  997  1  0.96365000  0.21835800  0.46236200  1
  H  1001  1  0.01118900  0.12968800  0.37643500  1
  H  1003  1  0.95113900  0.12498400  0.40135800  1
  H  1005  1  0.97373400  0.24862200  0.44650600  1
  H  1012  1  0.46364800  0.43340700  0.22270800  1
  H  1016  1  0.51116600  0.34743200  0.22539200  1
  H  1018  1  0.45114900  0.37232100  0.25499800  1
  H  1020  1  0.47370100  0.41757100  0.17658200  1
  H  1027  1  0.69639200  0.44095700  0.40240200  1
  H  1031  1  0.64641400  0.35655900  0.31251700  1
  H  1033  1  0.61712500  0.37704600  0.36118300  1
  H  1035  1  0.74442500  0.41817900  0.39571200  1
  H  1042  1  0.19647300  0.37337500  0.94003900  1
  H  1046  1  0.14628300  0.28364100  0.93471700  1
  H  1048  1  0.11715600  0.33225500  0.96277900  1
  H  1050  1  0.24451800  0.36669700  0.95619800  1
  H  1055  1  0.19627300  0.51636800  0.61272700  1
  H  1058  1  0.24439300  0.53899600  0.61955200  1
  H  1065  1  0.19629300  0.04601500  0.46990100  1
  H  1069  1  0.14648500  0.05183100  0.38564100  1
  H  1071  1  0.11715200  0.02356500  0.40584500  1
  H  1073  1  0.24440300  0.03018300  0.44722900  1
  H  1078  1  0.16963100  0.51641600  0.94050000  1
  H  1081  1  0.12151700  0.53897500  0.95622500  1
  H  1088  1  0.16962100  0.04584200  0.61256400  1
  H  1092  1  0.21957800  0.05167100  0.70263000  1
  H  1094  1  0.24864700  0.02318700  0.65407600  1
  H  1096  1  0.12150700  0.03004400  0.61931300  1
  H  1103  1  0.16959900  0.37369800  0.46994000  1
  H  1107  1  0.21965100  0.28371800  0.38567300  1
  H  1109  1  0.24865500  0.33235500  0.40581800  1
  H  1111  1  0.12152700  0.36696600  0.44733800  1
  H  1118  1  0.66951100  0.44092600  0.07488400  1
  H  1122  1  0.71956600  0.35669000  0.08062900  1
  H  1124  1  0.74862800  0.37683900  0.05222700  1
  H  1126  1  0.62150600  0.41831900  0.05894100  1
  H  1133  1  0.92407200  0.36402000  0.38766800  1
  H  1137  1  0.93394100  0.25364700  0.32593600  1
  H  1139  1  0.97951900  0.27993900  0.35134500  1
  H  1141  1  0.89256300  0.36936900  0.36010000  1
  H  1145  1  0.93384800  0.02180600  0.73267200  1
  H  1147  1  0.97949300  0.02108000  0.70635400  1
  H  1154  1  0.42399200  0.35874400  0.00239500  1
  H  1158  1  0.43401800  0.29683200  0.05083800  1
  H  1160  1  0.47969500  0.32240500  0.04993500  1
  H  1162  1  0.39263200  0.33113900  0.96935600  1
  H  1166  1  0.39233100  0.01669000  0.39817000  1
  H  1173  1  0.94216100  0.35756400  0.00159900  1
  H  1177  1  0.92961400  0.29768600  0.05175500  1
  H  1179  1  0.88195200  0.32359600  0.04727000  1
  H  1181  1  0.97746500  0.32981000  0.97243400  1
  H  1185  1  0.97625900  0.01469000  0.39511600  1
  H  1192  1  0.44206100  0.36360400  0.38660000  1
  H  1196  1  0.42957200  0.25352300  0.32660700  1
  H  1198  1  0.38170800  0.28422000  0.35269700  1
  H  1200  1  0.47702600  0.36536100  0.35887700  1
  H  1204  1  0.42985100  0.02245800  0.73261300  1
  H  1206  1  0.38227000  0.01838500  0.70249700  1
  H  1213  1  0.85941500  0.53729900  0.10163000  1
  H  1217  1  0.76012100  0.51483600  0.13920900  1
  H  1219  1  0.80860500  0.49670900  0.14806300  1
  H  1226  1  0.85935700  0.51392600  0.44894600  1
  H  1230  1  0.84954600  0.48397000  0.40081600  1
  H  1237  1  0.35924100  0.42001600  0.91373000  1
  H  1241  1  0.25981900  0.44209300  0.87618100  1
  H  1243  1  0.30812500  0.46062400  0.86740900  1
  H  1245  1  0.34957500  0.37186400  0.89554300  1
  H  1252  1  0.35929400  0.44334800  0.56627100  1
  H  1256  1  0.25981900  0.38375800  0.54417900  1
  H  1258  1  0.30807000  0.35645900  0.52563300  1
  H  1260  1  0.34961700  0.47331600  0.61446400  1
  H  1267  1  0.35935400  0.07260200  0.54299000  1
  H  1271  1  0.25985900  0.11005700  0.60257100  1
  H  1273  1  0.30817300  0.11889400  0.62988100  1
  H  1275  1  0.34960900  0.09085100  0.51300900  1
  H  1282  1  0.00627300  0.44284500  0.91348300  1
  H  1286  1  0.10535600  0.38223500  0.87568800  1
  H  1288  1  0.05627300  0.35561200  0.86650200  1
  H  1290  1  0.01645400  0.47318000  0.89590800  1
  H  1297  1  0.00644100  0.07268600  0.56590200  1
  H  1301  1  0.10576600  0.11032500  0.54370500  1
  H  1303  1  0.05714300  0.11957000  0.52573400  1
  H  1305  1  0.01645000  0.09030700  0.61386300  1
  H  1312  1  0.00644500  0.42039800  0.54341800  1
  H  1316  1  0.10574200  0.44254200  0.60327800  1
  H  1318  1  0.05696300  0.46052500  0.63050000  1
  H  1320  1  0.01642200  0.37243800  0.51305300  1
  H  1327  1  0.50652900  0.51435600  0.10160400  1
  H  1331  1  0.51646600  0.48407100  0.11925500  1
  H  1338  1  0.50659800  0.53692900  0.47193900  1
  H  1342  1  0.60604200  0.51504900  0.41248400  1
  H  1344  1  0.55766100  0.49671900  0.38498900  1
  C  1  1  0.84298000  0.87835600  0.58866000  1
  C  2  1  0.85823700  0.90025800  0.60438100  1
  C  3  1  0.88028000  0.89972000  0.61882500  1
  C  4  1  0.88642800  0.87658100  0.61760000  1
  C  5  1  0.84944700  0.85495500  0.58736100  1
  C  8  1  0.82151900  0.88091400  0.57450200  1
  C  9  1  0.79570700  0.89103700  0.58525100  1
  C  10  1  0.77576900  0.89340600  0.56973600  1
  C  11  1  0.78146800  0.88493800  0.54401400  1
  C  12  1  0.80688700  0.87516000  0.53338400  1
  C  13  1  0.82680800  0.87326100  0.54887000  1
  C  22  1  0.52293600  0.87794900  0.32658900  1
  C  23  1  0.50652300  0.89937000  0.33360000  1
  C  24  1  0.48487100  0.89852500  0.31830300  1
  C  25  1  0.47885300  0.87560000  0.29615600  1
  C  26  1  0.51724500  0.85473500  0.30394100  1
  C  29  1  0.54438000  0.88070900  0.34334900  1
  C  30  1  0.57003900  0.89111500  0.34280900  1
  C  31  1  0.59003500  0.89358500  0.36068400  1
  C  32  1  0.58445300  0.88512400  0.37796900  1
  C  33  1  0.55911100  0.87521500  0.37881900  1
  C  34  1  0.53919300  0.87306200  0.36133600  1
  C  43  1  0.52216700  0.87854600  0.58848000  1
  C  44  1  0.50749600  0.90042900  0.60522000  1
  C  45  1  0.48463700  0.89929000  0.61846100  1
  C  46  1  0.47735100  0.87555600  0.61532400  1
  C  47  1  0.51443300  0.85453300  0.58510200  1
  C  50  1  0.54333200  0.88171500  0.57445100  1
  C  51  1  0.56940900  0.89140700  0.58487700  1
  C  52  1  0.58861000  0.89514000  0.56959300  1
  C  53  1  0.58196200  0.88851400  0.54455300  1
  C  54  1  0.55650700  0.87861200  0.53426500  1
  C  55  1  0.53713200  0.87566500  0.54940300  1
  C  64  1  0.84386900  0.87885100  0.32735100  1
  C  65  1  0.85977300  0.90022000  0.33298100  1
  C  66  1  0.88203700  0.89833100  0.31786500  1
  C  67  1  0.88895300  0.87458700  0.29722000  1
  C  68  1  0.85042100  0.85478500  0.30608700  1
  C  71  1  0.82279900  0.88241500  0.34473500  1
  C  72  1  0.79677500  0.89214900  0.34392000  1
  C  73  1  0.77745100  0.89579800  0.36281800  1
  C  74  1  0.78397600  0.88914900  0.38124300  1
  C  75  1  0.80940900  0.87925900  0.38172900  1
  C  76  1  0.82886800  0.87629100  0.36370000  1
  C  85  1  0.65454600  0.92208500  0.59192100  1
  C  87  1  0.69076900  0.91597700  0.56333900  1
  C  88  1  0.70985300  0.92080600  0.58232400  1
  C  90  1  0.67364800  0.92807100  0.61152300  1
  C  92  1  0.66654600  0.93456600  0.63606300  1
  C  96  1  0.62686200  0.92071800  0.59412300  1
  C  98  1  0.73697400  0.91849600  0.57687500  1
  C  100  1  0.71130700  0.92227800  0.36693700  1
  C  102  1  0.67512000  0.91617300  0.38944800  1
  C  103  1  0.65600200  0.92092100  0.37525800  1
  C  105  1  0.69216800  0.92811800  0.35323300  1
  C  107  1  0.69923200  0.93453000  0.33511800  1
  C  111  1  0.73900700  0.92107800  0.36347000  1
  C  113  1  0.62888700  0.91866100  0.37849100  1
  C  115  1  0.92772900  0.97585800  0.63986800  1
  C  116  1  0.91705700  0.95944800  0.64768700  1
  C  118  1  0.93937200  0.98433600  0.68803700  1
  C  121  1  0.90038600  0.93965200  0.63154600  1
  C  123  1  0.44994400  0.95653800  0.33543700  1
  C  125  1  0.42771300  0.98140300  0.37535200  1
  C  126  1  0.43937400  0.97291200  0.32718500  1
  C  128  1  0.44420100  0.96967900  0.30327000  1
  C  132  1  0.46722100  0.93620500  0.32176000  1
  C  134  1  0.91490400  0.95712900  0.33566700  1
  C  136  1  0.93784700  0.98197100  0.37509500  1
  C  137  1  0.92566300  0.97292500  0.32681000  1
  C  139  1  0.92061600  0.96920700  0.30273500  1
  C  143  1  0.89704500  0.93725100  0.32275900  1
  C  145  1  0.43781700  0.97539200  0.64004400  1
  C  146  1  0.44868600  0.95941200  0.64831500  1
  C  148  1  0.42572800  0.98424900  0.68827900  1
  C  151  1  0.46593100  0.94001800  0.63260300  1
  C  153  1  0.81886200  0.85437600  0.42311300  1
  C  155  1  0.84429500  0.87256300  0.46168000  1
  C  156  1  0.82797800  0.86003800  0.47089900  1
  C  158  1  0.83111800  0.86411000  0.49509900  1
  C  160  1  0.54697400  0.85411500  0.46809400  1
  C  162  1  0.52158700  0.87254000  0.44792200  1
  C  163  1  0.53795400  0.86016300  0.42619700  1
  C  165  1  0.53487100  0.86440700  0.40618000  1
  C  167  1  0.87174000  0.85427200  0.60182400  1
  C  172  1  0.49459200  0.85371900  0.28897800  1
  C  177  1  0.49183200  0.85320300  0.59890300  1
  C  182  1  0.87327900  0.85277800  0.29090900  1
  C  187  1  0.89593500  0.79702100  0.23410000  1
  C  188  1  0.88928200  0.79227300  0.20947800  1
  C  189  1  0.88395900  0.81119100  0.20370700  1
  C  193  1  0.89842000  0.82098800  0.25471600  1
  C  195  1  0.89200000  0.79263700  0.59032200  1
  C  197  1  0.88401200  0.78249300  0.64409900  1
  C  199  1  0.88865300  0.81279300  0.58610600  1
  C  201  1  0.47434300  0.79219400  0.23856200  1
  C  203  1  0.48173200  0.78287100  0.17491300  1
  C  205  1  0.47810400  0.81211900  0.26300900  1
  C  207  1  0.46925000  0.79763100  0.60026800  1
  C  208  1  0.47632200  0.79259300  0.61986500  1
  C  209  1  0.48172200  0.81131300  0.64459100  1
  C  213  1  0.46661100  0.82175100  0.60398200  1
  C  216  1  0.80281100  0.84095600  0.43185600  1
  C  217  1  0.78169800  0.82487300  0.41814300  1
  C  221  1  0.81458000  0.85415500  0.40061100  1
  C  224  1  0.56307000  0.84084700  0.44594500  1
  C  225  1  0.58421700  0.82477200  0.44349700  1
  C  229  1  0.55126600  0.85373400  0.49029200  1
  C  231  1  0.84298000  0.65993800  0.10793700  1
  C  232  1  0.85823000  0.65375300  0.08603000  1
  C  233  1  0.88028500  0.66872000  0.08656200  1
  C  234  1  0.88644700  0.69062500  0.10970500  1
  C  235  1  0.87176900  0.69716500  0.13202100  1
  C  236  1  0.84946000  0.68203200  0.13133600  1
  C  239  1  0.82151600  0.64322700  0.10538200  1
  C  240  1  0.79569500  0.64387000  0.09528200  1
  C  241  1  0.77576100  0.62597500  0.09289100  1
  C  242  1  0.78146800  0.60871000  0.10134500  1
  C  243  1  0.80689700  0.60783300  0.11109000  1
  C  244  1  0.82682000  0.62521600  0.11299000  1
  C  257  1  0.35825800  0.57539100  0.68276500  1
  C  258  1  0.38031300  0.58981800  0.69773400  1
  C  259  1  0.38647100  0.58858000  0.71964000  1
  C  266  1  0.00654200  0.57342700  0.92838000  1
  C  267  1  0.98488700  0.58788300  0.92755500  1
  C  268  1  0.97884200  0.58710600  0.90463500  1
  C  275  1  0.52294200  0.65972400  0.58802100  1
  C  276  1  0.50652100  0.65270100  0.60241700  1
  C  277  1  0.48482500  0.66795800  0.61681500  1
  C  278  1  0.47881300  0.69011800  0.61605600  1
  C  279  1  0.49456800  0.69731200  0.60137500  1
  C  280  1  0.51723700  0.68236700  0.58744600  1
  C  283  1  0.54438600  0.64297100  0.57401900  1
  C  284  1  0.57004500  0.64349800  0.58496000  1
  C  285  1  0.59003300  0.62561700  0.56955000  1
  C  286  1  0.58445100  0.60834600  0.54380100  1
  C  287  1  0.55910700  0.60750900  0.53305100  1
  C  288  1  0.53919100  0.62498900  0.54838600  1
  C  301  1  0.00739200  0.57595200  0.68326000  1
  C  302  1  0.98453900  0.58924300  0.69762500  1
  C  303  1  0.97730000  0.58618600  0.71828700  1
  C  310  1  0.52214900  0.65957800  0.10785100  1
  C  311  1  0.50742600  0.65431800  0.08596100  1
  C  312  1  0.48454400  0.66865000  0.08703000  1
  C  313  1  0.47725000  0.68927400  0.11075300  1
  C  314  1  0.49178800  0.69533100  0.13311200  1
  C  315  1  0.51444300  0.68027800  0.13182600  1
  C  318  1  0.54335400  0.64243400  0.10472400  1
  C  319  1  0.56940100  0.64315300  0.09497500  1
  C  320  1  0.58861200  0.62414300  0.09123300  1
  C  321  1  0.58198200  0.60570000  0.09782600  1
  C  322  1  0.55653300  0.60530000  0.10772500  1
  C  323  1  0.53716500  0.62341800  0.11075000  1
  C  336  1  0.84387900  0.65896400  0.58816400  1
  C  337  1  0.85977400  0.65333400  0.60390900  1
  C  338  1  0.88206200  0.66842800  0.61710900  1
  C  339  1  0.88901700  0.68904200  0.61397300  1
  C  340  1  0.87335400  0.69535300  0.59847000  1
  C  341  1  0.85047000  0.68020100  0.58532700  1
  C  344  1  0.82281100  0.64158000  0.57433900  1
  C  345  1  0.79678900  0.64237500  0.58487800  1
  C  346  1  0.77747500  0.62346500  0.56962700  1
  C  347  1  0.78400800  0.60505900  0.54454400  1
  C  348  1  0.80943800  0.60459600  0.53417400  1
  C  349  1  0.82888700  0.62263000  0.54924500  1
  C  362  1  0.35976800  0.57501000  0.92924200  1
  C  363  1  0.38208000  0.58817900  0.92733600  1
  C  364  1  0.38907300  0.58495600  0.90355900  1
  C  372  1  0.89883800  0.75242800  0.21823100  1
  C  373  1  0.89200000  0.74732300  0.19364700  1
  C  376  1  0.88868100  0.72294400  0.17349300  1
  C  378  1  0.89599800  0.75218000  0.59955800  1
  C  380  1  0.89883700  0.76805700  0.57083600  1
  C  381  1  0.88935000  0.77679700  0.61944100  1
  C  385  1  0.89850200  0.73155300  0.60289600  1
  C  388  1  0.38934600  0.59043800  0.82125900  1
  C  389  1  0.38402800  0.61511200  0.84016800  1
  C  393  1  0.39852300  0.57394400  0.84999400  1
  C  396  1  0.97629100  0.59088400  0.80593500  1
  C  397  1  0.98169800  0.61560400  0.81192800  1
  C  401  1  0.96664900  0.57496900  0.76087700  1
  C  403  1  0.46919300  0.75230200  0.18865100  1
  C  405  1  0.46706800  0.76762000  0.23320200  1
  C  406  1  0.47629300  0.77692700  0.19367900  1
  C  410  1  0.46656100  0.73188500  0.16453700  1
  C  413  1  0.46710000  0.75308200  0.57103400  1
  C  414  1  0.47434100  0.74771700  0.59025300  1
  C  417  1  0.47807600  0.72327000  0.58573500  1
  C  419  1  0.65447900  0.61944200  0.06417300  1
  C  421  1  0.69069300  0.59697300  0.07029500  1
  C  422  1  0.70978100  0.61116000  0.06551200  1
  C  424  1  0.67358500  0.63310000  0.05824800  1
  C  426  1  0.66648300  0.65114700  0.05175400  1
  C  430  1  0.62680200  0.62303300  0.06557500  1
  C  432  1  0.73687700  0.60807000  0.06794500  1
  C  435  1  0.17365000  0.58252000  0.66215100  1
  C  436  1  0.16661300  0.60707100  0.68026300  1
  C  442  1  0.19223500  0.58253500  0.95710100  1
  C  443  1  0.19933800  0.60704500  0.96344700  1
  C  448  1  0.71132900  0.61934100  0.59196400  1
  C  450  1  0.67515200  0.59679000  0.56335500  1
  C  451  1  0.65602800  0.61103000  0.58226500  1
  C  453  1  0.69218300  0.63308100  0.61149000  1
  C  455  1  0.69922400  0.65123300  0.63602800  1
  C  459  1  0.73902900  0.62279900  0.59423600  1
  C  461  1  0.62892100  0.60779300  0.57675000  1
  C  463  1  0.94995200  0.62877000  0.98556700  1
  C  465  1  0.92777900  0.61373200  0.01047000  1
  C  466  1  0.91699600  0.63793300  0.02679200  1
  C  468  1  0.93931700  0.65337800  0.00189700  1
  C  470  1  0.94406900  0.67406800  0.99864300  1
  C  474  1  0.96723300  0.62211200  0.96523700  1
  C  476  1  0.90022500  0.64156300  0.04651200  1
  C  478  1  0.44990200  0.65084500  0.65771200  1
  C  480  1  0.42771900  0.61090700  0.64266700  1
  C  481  1  0.41705000  0.61873700  0.66689900  1
  C  483  1  0.43937400  0.65907600  0.68234700  1
  C  485  1  0.44420900  0.68298500  0.70303400  1
  C  489  1  0.46719100  0.66451200  0.65105400  1
  C  491  1  0.40034000  0.60261800  0.67054800  1
  C  493  1  0.91482200  0.65059900  0.65812700  1
  C  495  1  0.93788300  0.61123900  0.64360600  1
  C  496  1  0.94893400  0.61979200  0.66783900  1
  C  498  1  0.92560600  0.65953100  0.68278400  1
  C  500  1  0.92053500  0.68362200  0.70310300  1
  C  504  1  0.89694200  0.66345700  0.65112100  1
  C  506  1  0.96677200  0.60447600  0.67148200  1
  C  508  1  0.41483900  0.62914800  0.98618200  1
  C  510  1  0.43793800  0.61462000  0.01099400  1
  C  511  1  0.44898100  0.63885500  0.02667500  1
  C  513  1  0.42562300  0.65380400  0.00190100  1
  C  515  1  0.42052800  0.67412500  0.99814000  1
  C  519  1  0.39694000  0.62215000  0.96633700  1
  C  521  1  0.46681100  0.64250500  0.04564000  1
  C  523  1  0.83112000  0.58050900  0.12203600  1
  C  527  1  0.81468300  0.58574500  0.49019600  1
  C  531  1  0.55112900  0.58625300  0.13263500  1
  C  533  1  0.53487300  0.58017400  0.49486900  1
  C  536  1  0.94420300  0.98759700  0.71197100  1
  C  537  1  0.42067500  0.98784700  0.71230100  1
  C  538  1  0.37179200  0.57279900  0.72617200  1
  C  539  1  0.99455600  0.57239400  0.88273800  1
  C  541  1  0.96922800  0.57128100  0.78130200  1
  C  542  1  0.84297900  0.39765300  0.32634600  1
  C  543  1  0.85822800  0.38192100  0.33251800  1
  C  544  1  0.88027900  0.36748800  0.31754400  1
  C  545  1  0.88644200  0.36873500  0.29564500  1
  C  546  1  0.87178200  0.38454200  0.28913300  1
  C  547  1  0.84947000  0.39898200  0.30426600  1
  C  550  1  0.82151200  0.41180200  0.34305800  1
  C  551  1  0.79569900  0.40105000  0.34242200  1
  C  552  1  0.77576100  0.41654700  0.36031200  1
  C  553  1  0.78145200  0.44227300  0.37756700  1
  C  554  1  0.80686900  0.45291000  0.37843100  1
  C  555  1  0.82679900  0.43743000  0.36105600  1
  C  568  1  0.34299800  0.29735500  0.90735700  1
  C  569  1  0.35824600  0.30353600  0.92926300  1
  C  570  1  0.38029500  0.28856600  0.92873000  1
  C  571  1  0.38645700  0.26665900  0.90559100  1
  C  572  1  0.37177200  0.26012100  0.88328100  1
  C  573  1  0.34947200  0.27525700  0.88395700  1
  C  576  1  0.32153600  0.31406400  0.90990800  1
  C  577  1  0.29572100  0.31342900  0.92002000  1
  C  578  1  0.27578400  0.33130900  0.92238600  1
  C  579  1  0.28147900  0.34856600  0.91392000  1
  C  580  1  0.30690200  0.34942600  0.90415400  1
  C  581  1  0.32682700  0.33204900  0.90226200  1
  C  594  1  0.34300600  0.55966600  0.68894400  1
  C  595  1  0.34948000  0.55835500  0.71103600  1
  C  596  1  0.32155200  0.54550300  0.67222300  1
  C  597  1  0.29573400  0.55623900  0.67284400  1
  C  598  1  0.27580800  0.54072700  0.65494800  1
  C  599  1  0.28152100  0.51500500  0.63770100  1
  C  600  1  0.30694800  0.50438900  0.63684700  1
  C  601  1  0.32686400  0.51987900  0.65422900  1
  C  609  1  0.34300600  0.07894100  0.42664100  1
  C  610  1  0.35825800  0.05703300  0.41093000  1
  C  611  1  0.38032600  0.05756100  0.39650400  1
  C  612  1  0.38650300  0.08070200  0.39774800  1
  C  613  1  0.37183600  0.10302600  0.41353300  1
  C  614  1  0.34950200  0.10234100  0.42795500  1
  C  617  1  0.32154000  0.07639300  0.44079900  1
  C  618  1  0.29571900  0.06629000  0.43005400  1
  C  619  1  0.27578800  0.06389400  0.44555500  1
  C  620  1  0.28149700  0.07235000  0.47127500  1
  C  621  1  0.30692400  0.08210100  0.48189800  1
  C  622  1  0.32684500  0.08399900  0.46641500  1
  C  635  1  0.02293600  0.55901100  0.90694800  1
  C  636  1  0.01721300  0.55844100  0.88373500  1
  C  637  1  0.04438600  0.54500800  0.90969400  1
  C  638  1  0.07006700  0.55594000  0.92004300  1
  C  639  1  0.09006400  0.54054100  0.92252200  1
  C  640  1  0.08446100  0.51480900  0.91411100  1
  C  641  1  0.05910500  0.50406200  0.90425700  1
  C  642  1  0.03918000  0.51938900  0.90210600  1
  C  650  1  0.02295700  0.07934600  0.68869400  1
  C  651  1  0.00654600  0.05791700  0.68165200  1
  C  652  1  0.98485500  0.05875200  0.69690100  1
  C  653  1  0.97883700  0.08165700  0.71907600  1
  C  654  1  0.99457800  0.10354400  0.72628600  1
  C  655  1  0.01724100  0.10255000  0.71134300  1
  C  658  1  0.04440600  0.07660800  0.67194800  1
  C  659  1  0.07007500  0.06621500  0.67249200  1
  C  660  1  0.09006200  0.06373800  0.65460700  1
  C  661  1  0.08446800  0.07218900  0.63731600  1
  C  662  1  0.05911700  0.08207300  0.63645700  1
  C  663  1  0.03920400  0.08422600  0.65394200  1
  C  676  1  0.02293400  0.29759800  0.42728000  1
  C  677  1  0.00653200  0.30463600  0.41288700  1
  C  678  1  0.98484400  0.28938300  0.39847100  1
  C  679  1  0.97882700  0.26720400  0.39919100  1
  C  680  1  0.99454800  0.26000900  0.41389200  1
  C  681  1  0.01721500  0.27494900  0.42783600  1
  C  684  1  0.04438400  0.31434200  0.44128700  1
  C  685  1  0.07005500  0.31379400  0.43035300  1
  C  686  1  0.09003900  0.33168300  0.44575500  1
  C  687  1  0.08444300  0.34896800  0.47149900  1
  C  688  1  0.05909100  0.34983200  0.48224400  1
  C  689  1  0.03917600  0.33235200  0.46690900  1
  C  702  1  0.52293200  0.39828200  0.10832000  1
  C  703  1  0.50651500  0.38387100  0.08690200  1
  C  704  1  0.48483300  0.36945900  0.08776100  1
  C  705  1  0.47881300  0.37025000  0.11069600  1
  C  706  1  0.49453900  0.38497500  0.13258000  1
  C  707  1  0.51721500  0.39888900  0.13154900  1
  C  710  1  0.54438000  0.41227400  0.10555300  1
  C  711  1  0.57003900  0.40132500  0.09514700  1
  C  712  1  0.59003100  0.41671500  0.09264900  1
  C  713  1  0.58445900  0.44246600  0.10112500  1
  C  714  1  0.55912100  0.45322900  0.11103500  1
  C  715  1  0.53919500  0.43790400  0.11318600  1
  C  728  1  0.02218100  0.29776600  0.90739400  1
  C  729  1  0.00741800  0.30307300  0.92927500  1
  C  730  1  0.98455000  0.28873200  0.92822300  1
  C  731  1  0.97729600  0.26806500  0.90450900  1
  C  732  1  0.99186100  0.26197700  0.88215500  1
  C  733  1  0.01451400  0.27702700  0.88343200  1
  C  736  1  0.04340500  0.31489100  0.91050900  1
  C  737  1  0.06944600  0.31416000  0.92026300  1
  C  738  1  0.08867300  0.33316100  0.92401100  1
  C  739  1  0.08206300  0.35159800  0.91740800  1
  C  740  1  0.05663000  0.35200500  0.90749200  1
  C  741  1  0.03724600  0.33389400  0.90445700  1
  C  754  1  0.02214700  0.55934600  0.68853000  1
  C  755  1  0.99186300  0.56989700  0.72434500  1
  C  756  1  0.01448800  0.55610200  0.70925800  1
  C  757  1  0.04335500  0.54534000  0.67137900  1
  C  758  1  0.06937700  0.55584600  0.67208500  1
  C  759  1  0.08859200  0.54060900  0.65306200  1
  C  760  1  0.08200500  0.51554900  0.63465600  1
  C  761  1  0.05660400  0.50518800  0.63430100  1
  C  762  1  0.03721500  0.52026900  0.65240200  1
  C  771  1  0.02214700  0.07880600  0.42688100  1
  C  772  1  0.00740800  0.05693100  0.41024700  1
  C  773  1  0.98456500  0.05802300  0.39695700  1
  C  774  1  0.97734300  0.08173700  0.40000000  1
  C  775  1  0.99188900  0.10408300  0.41632300  1
  C  776  1  0.01449400  0.10278500  0.43013400  1
  C  779  1  0.04333600  0.07566100  0.44090300  1
  C  780  1  0.06938900  0.06592300  0.43044000  1
  C  781  1  0.08861400  0.06221800  0.44572400  1
  C  782  1  0.08198000  0.06881700  0.47076000  1
  C  783  1  0.05653900  0.07873900  0.48106800  1
  C  784  1  0.03716500  0.08173600  0.46596100  1
  C  797  1  0.52215100  0.39791400  0.32672800  1
  C  798  1  0.50739500  0.38131300  0.33200300  1
  C  799  1  0.48454000  0.36802200  0.31763900  1
  C  800  1  0.47730500  0.37106800  0.29697000  1
  C  801  1  0.49186700  0.38735600  0.29091000  1
  C  802  1  0.51449900  0.40114300  0.30598800  1
  C  805  1  0.54334600  0.41193300  0.34388000  1
  C  806  1  0.56940500  0.40147800  0.34314700  1
  C  807  1  0.58861200  0.41674100  0.36216400  1
  C  808  1  0.58197200  0.44177200  0.38061000  1
  C  809  1  0.55650900  0.45205800  0.38102900  1
  C  810  1  0.53714200  0.43696200  0.36291300  1
  C  823  1  0.84384800  0.39808800  0.10742000  1
  C  824  1  0.85975100  0.38236200  0.08604400  1
  C  825  1  0.88203200  0.36914000  0.08792300  1
  C  826  1  0.88898300  0.37227200  0.11167100  1
  C  827  1  0.87331000  0.38775400  0.13348400  1
  C  828  1  0.85043200  0.40090800  0.13148600  1
  C  831  1  0.82279400  0.41193600  0.10387800  1
  C  832  1  0.79674300  0.40143400  0.09419700  1
  C  833  1  0.77741300  0.41673500  0.09063300  1
  C  834  1  0.78397800  0.44180000  0.09727500  1
  C  835  1  0.80943900  0.45212900  0.10711800  1
  C  836  1  0.82889100  0.43702500  0.11002500  1
  C  849  1  0.34388800  0.55923400  0.90786700  1
  C  850  1  0.37341100  0.56944400  0.88174700  1
  C  851  1  0.35051200  0.55633200  0.88377500  1
  C  852  1  0.32283600  0.54540900  0.91144500  1
  C  853  1  0.29681200  0.55594300  0.92118700  1
  C  854  1  0.27750600  0.54069000  0.92484900  1
  C  855  1  0.28403500  0.51560400  0.91815600  1
  C  856  1  0.30946300  0.50523300  0.90824100  1
  C  857  1  0.32891900  0.52031700  0.90530900  1
  C  866  1  0.34389000  0.07843000  0.68802200  1
  C  867  1  0.35979800  0.05707000  0.68241700  1
  C  868  1  0.38209600  0.05899400  0.69751600  1
  C  869  1  0.38906100  0.08276900  0.71808200  1
  C  870  1  0.37338300  0.10457000  0.72437300  1
  C  871  1  0.35048800  0.10252600  0.70922100  1
  C  874  1  0.32284000  0.07484900  0.67061300  1
  C  875  1  0.29679300  0.06516500  0.67144200  1
  C  876  1  0.27745700  0.06159300  0.65257800  1
  C  877  1  0.28401400  0.06822700  0.63414700  1
  C  878  1  0.30948000  0.07805400  0.63364300  1
  C  879  1  0.32893700  0.08096900  0.65165000  1
  C  892  1  0.34389400  0.29829100  0.42705300  1
  C  893  1  0.35979000  0.30389400  0.41129000  1
  C  894  1  0.38209200  0.28880200  0.39812000  1
  C  895  1  0.38904500  0.26821600  0.40130200  1
  C  896  1  0.37336700  0.26191800  0.41680600  1
  C  897  1  0.35047700  0.27707500  0.42992600  1
  C  900  1  0.32284000  0.31569100  0.44087700  1
  C  901  1  0.29679300  0.31486700  0.43036200  1
  C  902  1  0.27747700  0.33375700  0.44563700  1
  C  903  1  0.28402600  0.35218000  0.47070600  1
  C  904  1  0.30949000  0.35268600  0.48103800  1
  C  905  1  0.32894500  0.33467200  0.46595200  1
  C  918  1  0.89596400  0.38670200  0.18924300  1
  C  920  1  0.89886000  0.41544300  0.23383200  1
  C  921  1  0.89201100  0.39597500  0.23895000  1
  C  923  1  0.88929300  0.36684100  0.19400500  1
  C  925  1  0.88396500  0.34215200  0.17509500  1
  C  929  1  0.89845400  0.38333500  0.16526900  1
  C  931  1  0.88869300  0.40021100  0.26333300  1
  C  933  1  0.39597300  0.16031700  0.78119100  1
  C  935  1  0.39882400  0.20491200  0.79705800  1
  C  936  1  0.39201400  0.21000700  0.82164400  1
  C  938  1  0.38934200  0.16506000  0.80581500  1
  C  940  1  0.38403400  0.14614300  0.81157100  1
  C  944  1  0.39851300  0.13634800  0.76058400  1
  C  946  1  0.38868900  0.23438100  0.84180400  1
  C  948  1  0.39598300  0.57056600  0.82601700  1
  C  950  1  0.39883400  0.54182400  0.78142500  1
  C  951  1  0.39202000  0.56130500  0.77631400  1
  C  953  1  0.38867700  0.55707300  0.75193500  1
  C  955  1  0.39595900  0.20509200  0.41573400  1
  C  957  1  0.39883000  0.18924600  0.44447900  1
  C  958  1  0.39204100  0.16465000  0.42499700  1
  C  960  1  0.38934600  0.18045800  0.39586100  1
  C  962  1  0.38404600  0.17468600  0.37118100  1
  C  966  1  0.39848100  0.22569200  0.41235900  1
  C  968  1  0.38875600  0.14449300  0.42922400  1
  C  971  1  0.96704500  0.54206500  0.79663800  1
  C  972  1  0.97428300  0.56128900  0.82122000  1
  C  974  1  0.97801200  0.55677400  0.84115500  1
  C  976  1  0.96924800  0.20498500  0.82661000  1
  C  978  1  0.96704800  0.18963700  0.78205800  1
  C  979  1  0.97432800  0.16506500  0.77670600  1
  C  981  1  0.97634600  0.18036200  0.82158800  1
  C  983  1  0.98177200  0.17436600  0.84032500  1
  C  987  1  0.96666100  0.22541100  0.85072200  1
  C  989  1  0.97804800  0.14512700  0.75225700  1
  C  991  1  0.96923100  0.15967400  0.41498700  1
  C  993  1  0.96700900  0.20422300  0.44419100  1
  C  994  1  0.97429700  0.20958000  0.42497500  1
  C  996  1  0.97634100  0.16469800  0.39539100  1
  C  998  1  0.98177400  0.14596200  0.37065900  1
  C  1002  1  0.96665700  0.13556500  0.41130500  1
  C  1004  1  0.97803000  0.23402700  0.42949100  1
  C  1006  1  0.46922600  0.38600200  0.23397200  1
  C  1008  1  0.46701100  0.41523200  0.21865800  1
  C  1009  1  0.47430100  0.39603000  0.19408200  1
  C  1011  1  0.47634400  0.36642000  0.20934700  1
  C  1013  1  0.48176600  0.34168000  0.20333200  1
  C  1017  1  0.46664800  0.38230100  0.25438800  1
  C  1019  1  0.47801100  0.40055800  0.17415500  1
  C  1021  1  0.65450800  0.39439100  0.36681200  1
  C  1023  1  0.69073700  0.42296000  0.38928800  1
  C  1024  1  0.70981300  0.40397300  0.37511700  1
  C  1026  1  0.67360100  0.37478700  0.35317900  1
  C  1028  1  0.66648700  0.35024800  0.33514400  1
  C  1032  1  0.62682600  0.39220800  0.36324200  1
  C  1034  1  0.73692700  0.40944200  0.37823000  1
  C  1036  1  0.15455000  0.33781700  0.95102600  1
  C  1038  1  0.19080200  0.36026600  0.94492500  1
  C  1039  1  0.20986200  0.34609800  0.94976400  1
  C  1041  1  0.17362400  0.32420200  0.95703800  1
  C  1043  1  0.16650200  0.30618700  0.96358600  1
  C  1047  1  0.12686400  0.33428500  0.94966300  1
  C  1049  1  0.23697800  0.34923200  0.94746700  1
  C  1051  1  0.15450400  0.56298300  0.64846600  1
  C  1053  1  0.19066900  0.53434900  0.62593600  1
  C  1054  1  0.20979100  0.55326500  0.64015400  1
  C  1056  1  0.12682600  0.56521700  0.65204700  1
  C  1057  1  0.23688100  0.54770100  0.63703200  1
  C  1059  1  0.15449600  0.03516700  0.42331500  1
  C  1061  1  0.19067500  0.04124400  0.45192500  1
  C  1062  1  0.20978700  0.03653700  0.43299700  1
  C  1064  1  0.17363000  0.02930500  0.40376500  1
  C  1066  1  0.16657800  0.02286600  0.37921900  1
  C  1070  1  0.12681800  0.03655100  0.42110200  1
  C  1072  1  0.23688100  0.03897600  0.43854600  1
  C  1074  1  0.21139000  0.56302800  0.95136500  1
  C  1076  1  0.17522700  0.53438500  0.94522800  1
  C  1077  1  0.15609500  0.55327700  0.94986100  1
  C  1079  1  0.23908600  0.56530200  0.95016100  1
  C  1080  1  0.12901000  0.54768300  0.94744600  1
  C  1082  1  0.21137200  0.03498200  0.64832000  1
  C  1084  1  0.17521500  0.04107400  0.62577700  1
  C  1085  1  0.15607900  0.03640700  0.64001000  1
  C  1087  1  0.19221500  0.02921500  0.66206400  1
  C  1089  1  0.19925900  0.02282700  0.68020200  1
  C  1093  1  0.23906400  0.03623500  0.65184300  1
  C  1095  1  0.12898800  0.03876900  0.63680400  1
  C  1097  1  0.21137200  0.33799200  0.42332500  1
  C  1099  1  0.17520100  0.36050200  0.45195500  1
  C  1100  1  0.15607500  0.34628400  0.43303900  1
  C  1102  1  0.19222500  0.32425200  0.40380200  1
  C  1104  1  0.19928500  0.30613300  0.37927300  1
  C  1108  1  0.23906600  0.33450100  0.42106100  1
  C  1110  1  0.12898200  0.34946400  0.43861100  1
  C  1112  1  0.71133700  0.39435300  0.06400700  1
  C  1114  1  0.67513800  0.42294300  0.07007600  1
  C  1115  1  0.65603000  0.40399900  0.06533400  1
  C  1117  1  0.69220900  0.37480200  0.05817000  1
  C  1119  1  0.69928700  0.35027600  0.05176300  1
  C  1123  1  0.73903100  0.39211200  0.06526700  1
  C  1125  1  0.62891900  0.40950500  0.06764200  1
  C  1127  1  0.94991100  0.30646600  0.35754500  1
  C  1129  1  0.92776300  0.34641900  0.37257600  1
  C  1130  1  0.91701500  0.33855600  0.34836600  1
  C  1132  1  0.93930100  0.29820000  0.33293000  1
  C  1134  1  0.94406500  0.27426100  0.31223600  1
  C  1138  1  0.96718900  0.29279800  0.36421200  1
  C  1140  1  0.90030600  0.35467600  0.34472000  1
  C  1142  1  0.94990600  0.00074400  0.67981200  1
  C  1146  1  0.96714300  0.02111100  0.69351800  1
  C  1148  1  0.44991000  0.32858100  0.02975200  1
  C  1150  1  0.42771900  0.34363900  0.00487400  1
  C  1151  1  0.41703800  0.31941300  0.98847500  1
  C  1153  1  0.43937800  0.30394900  0.01334500  1
  C  1155  1  0.44421700  0.28325500  0.01655800  1
  C  1159  1  0.46719500  0.33523100  0.05007800  1
  C  1161  1  0.40034200  0.31576200  0.96869800  1
  C  1163  1  0.41700100  0.99777200  0.36750000  1
  C  1165  1  0.40020500  0.01747700  0.38357600  1
  C  1167  1  0.91486400  0.32814800  0.02909400  1
  C  1169  1  0.93804400  0.34265500  0.00429800  1
  C  1170  1  0.94904400  0.31840000  0.98860900  1
  C  1172  1  0.92558800  0.30347100  0.01335000  1
  C  1174  1  0.92043700  0.28317700  0.01712100  1
  C  1178  1  0.89696400  0.33516700  0.04894900  1
  C  1180  1  0.96701400  0.31475900  0.96975000  1
  C  1182  1  0.94884900  0.99774400  0.36663400  1
  C  1184  1  0.96646200  0.01686600  0.38210600  1
  C  1186  1  0.41480900  0.30668100  0.35713500  1
  C  1188  1  0.43797100  0.34599400  0.37168100  1
  C  1189  1  0.44896100  0.33746200  0.34743100  1
  C  1191  1  0.42553100  0.29776700  0.33246200  1
  C  1193  1  0.42036000  0.27368500  0.31217600  1
  C  1197  1  0.39692200  0.29382200  0.36413500  1
  C  1199  1  0.46679500  0.35277000  0.34377700  1
  C  1201  1  0.41507700  0.00022000  0.67959200  1
  C  1205  1  0.39725900  0.02011500  0.69261700  1
  C  1207  1  0.81890800  0.51836100  0.13194100  1
  C  1209  1  0.84434300  0.53870800  0.11372000  1
  C  1210  1  0.82798700  0.56043000  0.12617800  1
  C  1212  1  0.80279600  0.54049300  0.14527100  1
  C  1214  1  0.78166800  0.54287000  0.16134100  1
  C  1218  1  0.81469200  0.49610200  0.13222700  1
  C  1220  1  0.81888800  0.56320700  0.46792900  1
  C  1222  1  0.84431400  0.52463500  0.44754500  1
  C  1223  1  0.82795900  0.51539900  0.42582300  1
  C  1225  1  0.80279600  0.55444400  0.44579000  1
  C  1227  1  0.78168600  0.56816100  0.44342600  1
  C  1229  1  0.83108700  0.49119000  0.40571300  1
  C  1231  1  0.31869500  0.43894300  0.88342800  1
  C  1233  1  0.34421100  0.41858300  0.90159500  1
  C  1234  1  0.32793500  0.39681100  0.88905600  1
  C  1236  1  0.30271700  0.41673700  0.86997300  1
  C  1238  1  0.28158000  0.41431800  0.85388500  1
  C  1242  1  0.31433700  0.46122200  0.88321000  1
  C  1244  1  0.33111900  0.37668100  0.89311500  1
  C  1246  1  0.31869700  0.39415100  0.54733200  1
  C  1248  1  0.34421300  0.43267600  0.56768200  1
  C  1249  1  0.32796600  0.44189800  0.58946800  1
  C  1251  1  0.30271900  0.40290700  0.56953800  1
  C  1253  1  0.28157400  0.38924500  0.57195900  1
  C  1257  1  0.31431900  0.37166300  0.52505200  1
  C  1259  1  0.33116200  0.46608400  0.60959700  1
  C  1261  1  0.31874400  0.10286800  0.59217300  1
  C  1263  1  0.34426600  0.08467800  0.55365200  1
  C  1264  1  0.32798200  0.09718900  0.54439500  1
  C  1266  1  0.30272900  0.11626700  0.58338300  1
  C  1268  1  0.28157400  0.13234100  0.59703400  1
  C  1272  1  0.31437300  0.10309300  0.61467000  1
  C  1274  1  0.33113700  0.09305700  0.52018000  1
  C  1276  1  0.04669400  0.39357600  0.88299500  1
  C  1278  1  0.02140400  0.43221200  0.90144700  1
  C  1279  1  0.03793200  0.44160900  0.88922000  1
  C  1281  1  0.06300200  0.40250600  0.86989700  1
  C  1283  1  0.08415100  0.38879700  0.85383800  1
  C  1287  1  0.05077200  0.37094300  0.88252000  1
  C  1289  1  0.03488800  0.46589300  0.89352900  1
  C  1291  1  0.04688900  0.10323600  0.54720100  1
  C  1293  1  0.02151500  0.08479500  0.56736400  1
  C  1294  1  0.03794200  0.09710400  0.58905400  1
  C  1296  1  0.06306400  0.11641700  0.56930900  1
  C  1298  1  0.08422500  0.13247100  0.57173800  1
  C  1302  1  0.05108700  0.10367700  0.52502300  1
  C  1304  1  0.03487400  0.09281000  0.60903600  1
  C  1306  1  0.04688300  0.43905300  0.59266500  1
  C  1308  1  0.02150500  0.41891800  0.55406500  1
  C  1309  1  0.03790800  0.39721400  0.54468100  1
  C  1311  1  0.06304400  0.41693600  0.58373300  1
  C  1313  1  0.08420500  0.41449200  0.59734800  1
  C  1317  1  0.05114500  0.46123100  0.61525200  1
  C  1319  1  0.03484300  0.37724900  0.52039400  1
  C  1321  1  0.54693400  0.56363500  0.13218700  1
  C  1323  1  0.52156700  0.52502800  0.11374800  1
  C  1324  1  0.53797200  0.51566800  0.12609000  1
  C  1326  1  0.56308200  0.55473300  0.14540500  1
  C  1328  1  0.58422100  0.56837400  0.16148200  1
  C  1330  1  0.53489700  0.49139800  0.12181800  1
  C  1332  1  0.54709100  0.51822900  0.42271400  1
  C  1334  1  0.52163600  0.53841100  0.46127400  1
  C  1335  1  0.53798600  0.56014700  0.47062200  1
  C  1337  1  0.56315100  0.54039900  0.43159200  1
  C  1339  1  0.58433000  0.54286000  0.41799100  1
  C  1343  1  0.55141500  0.49603800  0.40014100  1
  N  16  1  0.78998400  0.89834600  0.60983900  1
  N  19  1  0.81025800  0.86857600  0.50921900  1
  N  20  1  0.75076800  0.90131400  0.57815800  1
  N  21  1  0.89545100  0.92006100  0.63366700  1
  N  37  1  0.57553200  0.89864800  0.32566100  1
  N  40  1  0.55578600  0.86862900  0.39639900  1
  N  41  1  0.61500600  0.90151000  0.36008400  1
  N  42  1  0.46871500  0.91841400  0.32719100  1
  N  58  1  0.57605500  0.89628100  0.60857400  1
  N  61  1  0.55062600  0.87466700  0.51144200  1
  N  62  1  0.61398600  0.90275700  0.57558600  1
  N  63  1  0.46937500  0.91952200  0.63345000  1
  N  79  1  0.79032300  0.89712000  0.32512300  1
  N  82  1  0.81516000  0.87516500  0.40053900  1
  N  83  1  0.75205200  0.90333000  0.36430100  1
  N  84  1  0.89844200  0.91795600  0.32589100  1
  N  86  1  0.66424800  0.91648600  0.56881600  1
  N  89  1  0.70041300  0.92672900  0.60557500  1
  N  101  1  0.70163700  0.91673900  0.38449300  1
  N  104  1  0.66540900  0.92676300  0.35786100  1
  N  117  1  0.92344800  0.96459000  0.67152100  1
  N  124  1  0.44355300  0.96193200  0.35930000  1
  N  135  1  0.92148600  0.96273800  0.35953800  1
  N  147  1  0.44208900  0.96469200  0.67215300  1
  N  154  1  0.83884900  0.86952800  0.43857400  1
  N  161  1  0.52699200  0.86932400  0.46788800  1
  N  168  1  0.83418300  0.83386300  0.57316000  1
  N  171  1  0.87805200  0.83371900  0.60309100  1
  N  173  1  0.53328600  0.83402800  0.29656900  1
  N  176  1  0.48839000  0.83321100  0.26708900  1
  N  178  1  0.52864300  0.83323900  0.56912500  1
  N  181  1  0.48579400  0.83088000  0.59680300  1
  N  183  1  0.83512800  0.83398600  0.30045300  1
  N  186  1  0.87880700  0.83039800  0.27053100  1
  N  196  1  0.88754700  0.79560200  0.61365800  1
  N  202  1  0.47863300  0.79543600  0.21834000  1
  N  215  1  0.80804100  0.84479700  0.45546900  1
  N  223  1  0.55788600  0.84487000  0.42628400  1
  N  247  1  0.83420200  0.68892400  0.15243200  1
  N  248  1  0.78995700  0.66117200  0.08800700  1
  N  253  1  0.81027200  0.59020700  0.11761100  1
  N  254  1  0.75072800  0.62652700  0.08507200  1
  N  255  1  0.87807400  0.71899000  0.15256500  1
  N  256  1  0.89547500  0.66322700  0.06623300  1
  N  262  1  0.28999000  0.58081900  0.69013400  1
  N  265  1  0.39549500  0.60465700  0.69223900  1
  N  271  1  0.07558100  0.58060300  0.92752000  1
  N  274  1  0.96875500  0.59888500  0.94746300  1
  N  291  1  0.53328200  0.68974600  0.57412000  1
  N  292  1  0.57554400  0.66063700  0.60964100  1
  N  297  1  0.55578000  0.58993600  0.50888800  1
  N  298  1  0.61501600  0.62621000  0.57805200  1
  N  299  1  0.48835800  0.71919700  0.60275200  1
  N  300  1  0.46866800  0.65909200  0.62783500  1
  N  306  1  0.07595800  0.57957400  0.69088100  1
  N  309  1  0.96913200  0.60412900  0.69233700  1
  N  326  1  0.52871400  0.68570600  0.15312100  1
  N  327  1  0.57601800  0.66196100  0.09007200  1
  N  332  1  0.55064600  0.58643200  0.11167900  1
  N  333  1  0.61397600  0.62253200  0.08359700  1
  N  334  1  0.48576400  0.71560100  0.15539900  1
  N  335  1  0.46913900  0.66335000  0.06685400  1
  N  352  1  0.83518300  0.68583500  0.57016000  1
  N  353  1  0.79032900  0.66116300  0.60865000  1
  N  358  1  0.81522100  0.58580100  0.51127100  1
  N  359  1  0.75207200  0.62198300  0.57566500  1
  N  360  1  0.87892300  0.71569700  0.59641700  1
  N  361  1  0.89844900  0.66041000  0.62873100  1
  N  367  1  0.29034900  0.57971800  0.92617900  1
  N  370  1  0.39848900  0.59978700  0.94695700  1
  N  371  1  0.90048000  0.77682600  0.23731200  1
  N  374  1  0.88752000  0.76768500  0.19067400  1
  N  379  1  0.90050800  0.74897200  0.57614600  1
  N  387  1  0.38756900  0.58464800  0.79667300  1
  N  395  1  0.97857900  0.58475000  0.82445700  1
  N  404  1  0.46489100  0.74881200  0.20871600  1
  N  412  1  0.46495000  0.77757000  0.57671000  1
  N  415  1  0.47862100  0.76793500  0.61372000  1
  N  420  1  0.66417200  0.60192200  0.06975400  1
  N  423  1  0.70035100  0.62851200  0.05961800  1
  N  434  1  0.20040600  0.57651300  0.65754800  1
  N  441  1  0.16547800  0.57651100  0.95566000  1
  N  449  1  0.70166700  0.60174500  0.56888100  1
  N  452  1  0.66542500  0.62845700  0.60549500  1
  N  464  1  0.94361600  0.61031300  0.99099600  1
  N  467  1  0.92334400  0.65661100  0.02161400  1
  N  479  1  0.44352200  0.62697800  0.63924400  1
  N  482  1  0.42344500  0.64257200  0.68558900  1
  N  494  1  0.92144700  0.62672700  0.63989500  1
  N  497  1  0.94226000  0.64364100  0.68630200  1
  N  509  1  0.42148500  0.61090900  0.99180800  1
  N  512  1  0.44228700  0.65732300  0.02130300  1
  N  535  1  0.37810300  0.57406400  0.74798700  1
  N  540  1  0.98832800  0.57377800  0.86223600  1
  N  558  1  0.83420600  0.41318200  0.29737600  1
  N  559  1  0.78997600  0.37646600  0.32512800  1
  N  564  1  0.81023500  0.47706500  0.39604200  1
  N  565  1  0.75074400  0.40815000  0.35977500  1
  N  566  1  0.87807800  0.38324700  0.26729900  1
  N  567  1  0.89545300  0.35263800  0.32303100  1
  N  584  1  0.33420600  0.26835900  0.86286500  1
  N  585  1  0.28999200  0.29614500  0.92732200  1
  N  590  1  0.31026900  0.36700900  0.89757300  1
  N  591  1  0.25077100  0.33078500  0.93025800  1
  N  592  1  0.37809900  0.23831100  0.86272900  1
  N  593  1  0.39546700  0.29406100  0.94906900  1
  N  604  1  0.33421400  0.54415400  0.71792600  1
  N  607  1  0.31032300  0.48023000  0.61925700  1
  N  608  1  0.25077300  0.54909400  0.65549500  1
  N  625  1  0.33423000  0.12343400  0.44213200  1
  N  626  1  0.28998400  0.05901000  0.40547600  1
  N  631  1  0.31030300  0.08860400  0.50603800  1
  N  632  1  0.25075500  0.05607100  0.43718200  1
  N  633  1  0.37816100  0.12356000  0.41224200  1
  N  634  1  0.39551100  0.03722800  0.38167000  1
  N  645  1  0.03323000  0.54509500  0.86301300  1
  N  648  1  0.05578000  0.47992300  0.89776900  1
  N  649  1  0.11506700  0.54901900  0.93036800  1
  N  666  1  0.03327100  0.12326800  0.71873300  1
  N  667  1  0.07558500  0.05870000  0.68965000  1
  N  672  1  0.05577800  0.08859800  0.61883500  1
  N  673  1  0.11505800  0.05586300  0.65521500  1
  N  674  1  0.98835900  0.12404400  0.74817600  1
  N  675  1  0.96872300  0.03884600  0.68801500  1
  N  692  1  0.03323800  0.26756300  0.44117000  1
  N  693  1  0.07556700  0.29663200  0.40568300  1
  N  698  1  0.05575200  0.36744400  0.50639300  1
  N  699  1  0.11504400  0.33105500  0.43728600  1
  N  700  1  0.98834200  0.23811100  0.41249100  1
  N  701  1  0.96872800  0.29827400  0.38744500  1
  N  718  1  0.53325000  0.41223300  0.15225800  1
  N  719  1  0.57553400  0.37664800  0.08762800  1
  N  724  1  0.55580400  0.47738600  0.11759200  1
  N  725  1  0.61501800  0.40821600  0.08476500  1
  N  726  1  0.48835000  0.38357500  0.15307900  1
  N  727  1  0.46866000  0.35844700  0.06788900  1
  N  744  1  0.02880700  0.27156500  0.86213900  1
  N  745  1  0.07603500  0.29535700  0.92518300  1
  N  750  1  0.05081600  0.37088100  0.90353600  1
  N  751  1  0.11404100  0.33475400  0.93162500  1
  N  752  1  0.98591100  0.24163700  0.85989800  1
  N  753  1  0.96911300  0.29403900  0.94838600  1
  N  765  1  0.02878100  0.54025100  0.71469300  1
  N  768  1  0.05076800  0.48235900  0.61541800  1
  N  769  1  0.11393600  0.54666400  0.65142200  1
  N  770  1  0.98591700  0.56795800  0.74467300  1
  N  787  1  0.02876900  0.12407300  0.44601200  1
  N  788  1  0.07599500  0.06099400  0.40671700  1
  N  793  1  0.05064800  0.08271100  0.50389800  1
  N  794  1  0.11395200  0.05449400  0.43966500  1
  N  795  1  0.98596700  0.12634700  0.41824500  1
  N  796  1  0.96920400  0.03783100  0.38203300  1
  N  813  1  0.52879300  0.41699200  0.30055000  1
  N  814  1  0.57602900  0.37777400  0.32432400  1
  N  819  1  0.55061400  0.47487800  0.39989600  1
  N  820  1  0.61398800  0.41073400  0.36376100  1
  N  821  1  0.48593900  0.38926900  0.27056600  1
  N  822  1  0.46912500  0.35314800  0.32293500  1
  N  839  1  0.83514400  0.41606400  0.15229000  1
  N  840  1  0.79027200  0.37765300  0.08918000  1
  N  845  1  0.81525300  0.47502100  0.11121400  1
  N  846  1  0.75202200  0.41068500  0.08307400  1
  N  847  1  0.87885700  0.38976500  0.15586600  1
  N  848  1  0.89841900  0.35757100  0.06827600  1
  N  860  1  0.33523100  0.54114200  0.86297500  1
  N  863  1  0.31525300  0.48234300  0.90416800  1
  N  864  1  0.25210900  0.54673400  0.93238200  1
  N  865  1  0.37902300  0.56731900  0.85932500  1
  N  882  1  0.33519700  0.12331800  0.71482300  1
  N  883  1  0.29032500  0.06016100  0.69021400  1
  N  888  1  0.31527800  0.08213500  0.61483300  1
  N  889  1  0.25206900  0.05402900  0.65106800  1
  N  890  1  0.37898100  0.12699400  0.74466700  1
  N  891  1  0.39853500  0.03938700  0.68943900  1
  N  908  1  0.33518300  0.27146500  0.44510800  1
  N  909  1  0.29031500  0.29607300  0.40660100  1
  N  914  1  0.31529000  0.37149300  0.50392900  1
  N  915  1  0.25206900  0.33522900  0.43961000  1
  N  916  1  0.37893900  0.24159700  0.41889700  1
  N  917  1  0.39851300  0.29677600  0.38648300  1
  N  919  1  0.90051100  0.41011400  0.20943000  1
  N  922  1  0.88752600  0.37263500  0.21859400  1
  N  934  1  0.40047900  0.18051600  0.77797500  1
  N  937  1  0.38756900  0.18964300  0.82461900  1
  N  949  1  0.40049100  0.54714600  0.80582300  1
  N  956  1  0.40046300  0.20832200  0.43915500  1
  N  959  1  0.38759500  0.16166000  0.40165000  1
  N  970  1  0.96491900  0.54772900  0.77781600  1
  N  977  1  0.96491500  0.20846200  0.80654200  1
  N  980  1  0.97864200  0.16183700  0.79693200  1
  N  992  1  0.96487500  0.17973900  0.43852700  1
  N  995  1  0.97863000  0.18935400  0.40152100  1
  N  1007  1  0.46487100  0.40954900  0.23746500  1
  N  1010  1  0.47863100  0.37257000  0.19083600  1
  N  1022  1  0.66421400  0.41748900  0.38432400  1
  N  1025  1  0.70036900  0.38072700  0.35778000  1
  N  1037  1  0.16427500  0.35531400  0.94542600  1
  N  1040  1  0.20039700  0.32879100  0.95570500  1
  N  1052  1  0.16415600  0.53988800  0.63088800  1
  N  1060  1  0.16416000  0.04067800  0.44640500  1
  N  1063  1  0.20038700  0.03069200  0.40975600  1
  N  1075  1  0.20174000  0.53993900  0.94587200  1
  N  1083  1  0.20172600  0.04048300  0.63073000  1
  N  1086  1  0.16546000  0.03060100  0.65744100  1
  N  1098  1  0.20171600  0.35556200  0.44641800  1
  N  1101  1  0.16546800  0.32886200  0.40980200  1
  N  1113  1  0.70165500  0.41743900  0.06952900  1
  N  1116  1  0.66544800  0.38077000  0.05951400  1
  N  1128  1  0.94357400  0.33035300  0.37599900  1
  N  1131  1  0.92336200  0.31469900  0.32969000  1
  N  1143  1  0.94351800  0.99535700  0.65595000  1
  N  1149  1  0.44352800  0.34705500  0.02436100  1
  N  1152  1  0.42344300  0.30071600  0.99360700  1
  N  1164  1  0.42340100  0.99262900  0.34366700  1
  N  1168  1  0.92157200  0.34638500  0.02348100  1
  N  1171  1  0.94229300  0.29993800  0.99397000  1
  N  1183  1  0.94221400  0.99238600  0.34278200  1
  N  1187  1  0.42151100  0.33052100  0.37539200  1
  N  1190  1  0.44221200  0.31364300  0.32894700  1
  N  1202  1  0.42160000  0.99468900  0.65573100  1
  N  1208  1  0.83892500  0.51866900  0.11681300  1
  N  1211  1  0.80801600  0.56024500  0.14139300  1
  N  1221  1  0.83889300  0.54775400  0.46760700  1
  N  1224  1  0.80800900  0.53082200  0.42602100  1
  N  1232  1  0.33870200  0.43865500  0.89857800  1
  N  1235  1  0.30799600  0.39696500  0.87380100  1
  N  1247  1  0.33871200  0.40958100  0.54761800  1
  N  1250  1  0.30801400  0.42650000  0.58931600  1
  N  1262  1  0.33877600  0.08773800  0.57676100  1
  N  1265  1  0.30801000  0.11242000  0.55977700  1
  N  1277  1  0.02666300  0.40897000  0.89813100  1
  N  1280  1  0.05791400  0.42623900  0.87399700  1
  N  1292  1  0.02687500  0.08806100  0.54742200  1
  N  1295  1  0.05790600  0.11236400  0.58895400  1
  N  1307  1  0.02688100  0.43885600  0.57727100  1
  N  1310  1  0.05787200  0.39729700  0.56003300  1
  N  1322  1  0.52693700  0.54822600  0.11699400  1
  N  1325  1  0.55791800  0.53104100  0.14136700  1
  N  1333  1  0.52708300  0.51843500  0.43810800  1
  N  1336  1  0.55793400  0.56006800  0.45525900  1
  O  93  1  0.68005000  0.95054700  0.65352500  1
  O  94  1  0.65453000  0.91979200  0.64099500  1
  O  108  1  0.68561700  0.95036300  0.33347900  1
  O  109  1  0.71140600  0.91978500  0.31550300  1
  O  120  1  0.94508300  0.96878400  0.71421100  1
  O  129  1  0.44509900  0.98838800  0.30086300  1
  O  130  1  0.43854400  0.94988100  0.28355700  1
  O  140  1  0.92000300  0.98766800  0.29990800  1
  O  141  1  0.92541100  0.94893000  0.28322600  1
  O  150  1  0.42032200  0.96938500  0.71513800  1
  O  190  1  0.89185700  0.80806800  0.18336600  1
  O  191  1  0.86422100  0.82536800  0.21263600  1
  O  198  1  0.89167400  0.80298700  0.66126300  1
  O  204  1  0.47435700  0.80356300  0.17858300  1
  O  210  1  0.47443800  0.80780600  0.66173400  1
  O  211  1  0.50145600  0.82551300  0.64991300  1
  O  218  1  0.77782800  0.80603500  0.41992400  1
  O  219  1  0.76156900  0.83226100  0.41168900  1
  O  226  1  0.58806900  0.80597500  0.42284200  1
  O  227  1  0.60439900  0.83219500  0.45727200  1
  O  383  1  0.86418800  0.77376100  0.64943500  1
  O  390  1  0.39157600  0.63239500  0.83698800  1
  O  391  1  0.36428400  0.62041600  0.85435400  1
  O  398  1  0.97437800  0.63275400  0.83256200  1
  O  399  1  0.00146600  0.62092300  0.80308600  1
  O  408  1  0.50152900  0.77411500  0.16081300  1
  O  427  1  0.68002100  0.65266900  0.03581400  1
  O  428  1  0.65437400  0.67080900  0.06648300  1
  O  437  1  0.18003400  0.62448800  0.68154900  1
  O  438  1  0.15441100  0.61194100  0.69986000  1
  O  444  1  0.18555300  0.62440700  0.97922300  1
  O  445  1  0.21135600  0.61189600  0.94863300  1
  O  456  1  0.68573000  0.65265200  0.65346600  1
  O  457  1  0.71156900  0.67074800  0.64084700  1
  O  471  1  0.94527200  0.69513400  0.01739300  1
  O  472  1  0.93862000  0.67387600  0.97875800  1
  O  486  1  0.44511100  0.68538500  0.72414900  1
  O  487  1  0.43856400  0.70270700  0.70296300  1
  O  501  1  0.91993700  0.68649400  0.72440900  1
  O  502  1  0.92534300  0.70310200  0.70228700  1
  O  516  1  0.41993200  0.69543000  0.01657800  1
  O  517  1  0.42532100  0.67331600  0.97784400  1
  O  525  1  0.76156500  0.57462000  0.45728000  1
  O  529  1  0.60436300  0.57479800  0.15407600  1
  O  926  1  0.89185300  0.32493600  0.17822800  1
  O  927  1  0.86422700  0.33690300  0.16091700  1
  O  941  1  0.39159000  0.14931300  0.83202700  1
  O  942  1  0.36428800  0.13195700  0.80269200  1
  O  963  1  0.39161700  0.15422800  0.35390500  1
  O  964  1  0.36429800  0.18354800  0.36585800  1
  O  984  1  0.97415900  0.15382800  0.83687900  1
  O  985  1  0.00151300  0.18330300  0.85450000  1
  O  999  1  0.97414800  0.14940500  0.35356700  1
  O  1000  1  0.00152900  0.13180700  0.36542300  1
  O  1014  1  0.47414800  0.32460100  0.18278800  1
  O  1015  1  0.50151200  0.33642800  0.21225000  1
  O  1029  1  0.68000700  0.33278300  0.33363800  1
  O  1030  1  0.65440500  0.34531100  0.31546700  1
  O  1044  1  0.17988400  0.30494100  0.97976100  1
  O  1045  1  0.15417700  0.28663000  0.94896600  1
  O  1067  1  0.17998100  0.00672000  0.36179600  1
  O  1068  1  0.15440100  0.03760600  0.37435300  1
  O  1090  1  0.18561600  0.00702600  0.68187000  1
  O  1091  1  0.21146900  0.03756100  0.69979700  1
  O  1105  1  0.18564000  0.30446100  0.36180300  1
  O  1106  1  0.21153900  0.28655500  0.37440000  1
  O  1120  1  0.68567400  0.33279700  0.03593600  1
  O  1121  1  0.71148200  0.34541200  0.06650100  1
  O  1135  1  0.94528200  0.27195300  0.29117400  1
  O  1136  1  0.93862100  0.25456000  0.31241400  1
  O  1144  1  0.93841400  0.00731400  0.73168600  1
  O  1156  1  0.44510500  0.26214400  0.99783800  1
  O  1157  1  0.43858400  0.28332000  0.03635000  1
  O  1175  1  0.92009200  0.26182000  0.99874400  1
  O  1176  1  0.92550700  0.28389200  0.03733100  1
  O  1194  1  0.42008400  0.27087100  0.29088000  1
  O  1195  1  0.42550600  0.25418000  0.31282000  1
  O  1203  1  0.42571000  0.00799300  0.73187700  1
  O  1215  1  0.77776200  0.56350100  0.18015200  1
  O  1216  1  0.76155900  0.52900200  0.15394800  1
  O  1228  1  0.77779800  0.56637000  0.42280500  1
  O  1239  1  0.27815400  0.39380100  0.83480100  1
  O  1240  1  0.26138600  0.42806700  0.86133400  1
  O  1254  1  0.27814600  0.39067500  0.59247300  1
  O  1255  1  0.26138800  0.38293300  0.55820200  1
  O  1269  1  0.27810900  0.15140000  0.59556300  1
  O  1270  1  0.26140400  0.12489400  0.60336700  1
  O  1284  1  0.08823900  0.39108300  0.83531600  1
  O  1285  1  0.10407000  0.38194500  0.86107400  1
  O  1299  1  0.08814200  0.15123200  0.59240200  1
  O  1300  1  0.10436500  0.12503700  0.55790800  1
  O  1314  1  0.08813400  0.39381700  0.59541700  1
  O  1315  1  0.10433700  0.42833400  0.60377600  1
  O  1329  1  0.58811900  0.56648100  0.18025200  1
  O  1340  1  0.58779400  0.56341300  0.41951900  1
  O  1341  1  0.60452600  0.52911700  0.41173500  1
