# generated using pymatgen
data_H10C16N3
_symmetry_space_group_name_H-M   'P 1'
_cell_length_a   37.74090000
_cell_length_b   62.70105000
_cell_length_c   62.70100000
_cell_angle_alpha   119.99992086
_cell_angle_beta   90.00000000
_cell_angle_gamma   90.00000000
_symmetry_Int_Tables_number   1
_chemical_formula_structural   H10C16N3
_chemical_formula_sum   'H480 C768 N144'
_cell_volume   128496.85889562
_cell_formula_units_Z   48
loop_
 _symmetry_equiv_pos_site_id
 _symmetry_equiv_pos_as_xyz
  1  'x, y, z'
loop_
 _atom_site_type_symbol
 _atom_site_label
 _atom_site_symmetry_multiplicity
 _atom_site_fract_x
 _atom_site_fract_y
 _atom_site_fract_z
 _atom_site_occupancy
  H  7  1  0.79909000  0.66150900  0.07751700  1
  H  16  1  0.87189200  0.72184200  0.10958300  1
  H  17  1  0.86977800  0.70852400  0.18793600  1
  H  18  1  0.88270000  0.73437900  0.18975100  1
  H  19  1  0.85308800  0.64214100  0.99046800  1
  H  20  1  0.81660400  0.62930000  0.99300600  1
  H  21  1  0.89306000  0.69302200  0.07086800  1
  H  22  1  0.84243800  0.65498800  0.10447400  1
  H  29  1  0.79922700  0.48979000  0.34429700  1
  H  38  1  0.87183400  0.46143400  0.28385600  1
  H  39  1  0.86960200  0.55302200  0.29695200  1
  H  40  1  0.88252100  0.52896100  0.27111700  1
  H  41  1  0.85327100  0.42195100  0.36352300  1
  H  42  1  0.81689500  0.43741500  0.37644400  1
  H  43  1  0.89319200  0.45165000  0.31270900  1
  H  44  1  0.84249300  0.52327000  0.35067600  1
  H  51  1  0.79896100  0.92834800  0.51593900  1
  H  60  1  0.87139800  0.89597200  0.54414800  1
  H  61  1  0.86907700  0.81767400  0.45241600  1
  H  62  1  0.88198900  0.81580800  0.47642400  1
  H  63  1  0.85329100  0.01525500  0.58386500  1
  H  64  1  0.81694000  0.01285700  0.56844900  1
  H  65  1  0.89278100  0.93461900  0.55410700  1
  H  66  1  0.84210500  0.90123100  0.48245800  1
  H  73  1  0.29891800  0.39142000  0.88099600  1
  H  82  1  0.37138800  0.33085800  0.84870400  1
  H  83  1  0.36920800  0.34425500  0.77039900  1
  H  84  1  0.38206600  0.31837300  0.76855500  1
  H  85  1  0.35354000  0.41082900  0.96788500  1
  H  86  1  0.31711600  0.42379200  0.96545400  1
  H  87  1  0.39272000  0.35958100  0.88736400  1
  H  88  1  0.34214400  0.39779100  0.85391000  1
  H  95  1  0.29916200  0.56318100  0.61412200  1
  H  104  1  0.37191800  0.59145600  0.67448000  1
  H  105  1  0.36974500  0.49979800  0.66119400  1
  H  106  1  0.38266200  0.52384200  0.68704600  1
  H  107  1  0.35314500  0.63094100  0.59485900  1
  H  108  1  0.31667600  0.61555300  0.58199200  1
  H  109  1  0.39312100  0.60133900  0.64566600  1
  H  110  1  0.34248600  0.52969900  0.60762400  1
  H  117  1  0.29916200  0.12464100  0.44245100  1
  H  126  1  0.37179100  0.15677500  0.41412700  1
  H  127  1  0.36957600  0.23519700  0.50576100  1
  H  128  1  0.38250600  0.23700100  0.48171800  1
  H  129  1  0.35322500  0.03759500  0.37460900  1
  H  130  1  0.31686400  0.04013100  0.39008200  1
  H  131  1  0.39307000  0.11811100  0.40426200  1
  H  132  1  0.34241700  0.15171300  0.47591300  1
  H  139  1  0.06972400  0.56392400  0.88023900  1
  H  148  1  0.99473300  0.59186500  0.84958700  1
  H  149  1  0.99909500  0.50033700  0.77099100  1
  H  150  1  0.98569500  0.52424900  0.76913900  1
  H  151  1  0.02164300  0.63435000  0.96823900  1
  H  152  1  0.05821100  0.61882700  0.96495200  1
  H  153  1  0.97480200  0.60196100  0.88894800  1
  H  154  1  0.02577700  0.53030900  0.85453900  1
  H  161  1  0.06944300  0.12564400  0.61588100  1
  H  170  1  0.99424400  0.15622300  0.67440100  1
  H  171  1  0.99858100  0.23472000  0.66133500  1
  H  172  1  0.98515500  0.23659800  0.68711200  1
  H  173  1  0.02156700  0.03756700  0.59813800  1
  H  174  1  0.05808100  0.04096800  0.58591900  1
  H  175  1  0.97464200  0.11677700  0.64521600  1
  H  176  1  0.02547200  0.15120900  0.60790100  1
  H  183  1  0.06931600  0.38961200  0.44163100  1
  H  192  1  0.99430700  0.33102300  0.41364900  1
  H  193  1  0.99821500  0.34419400  0.50526200  1
  H  194  1  0.98490600  0.31838600  0.48134900  1
  H  195  1  0.02131200  0.40734100  0.37136400  1
  H  196  1  0.05789000  0.41956800  0.38692800  1
  H  197  1  0.97456700  0.36019700  0.40338800  1
  H  198  1  0.02521200  0.39760000  0.47516300  1
  H  205  1  0.56960500  0.48900000  0.07850500  1
  H  214  1  0.49438500  0.46098200  0.10897900  1
  H  215  1  0.49847800  0.55249300  0.18757500  1
  H  216  1  0.48503100  0.52857500  0.18940800  1
  H  217  1  0.52168900  0.41875200  0.99037300  1
  H  218  1  0.55822800  0.43435600  0.99379300  1
  H  219  1  0.47470800  0.45085900  0.06956800  1
  H  220  1  0.52557100  0.52255400  0.10411000  1
  H  227  1  0.56950500  0.92742900  0.34267100  1
  H  236  1  0.49469200  0.89659400  0.28393900  1
  H  237  1  0.49904300  0.81809900  0.29703600  1
  H  238  1  0.48566700  0.81620000  0.27124400  1
  H  239  1  0.52111400  0.01533100  0.36017700  1
  H  240  1  0.55764000  0.01211600  0.37250600  1
  H  241  1  0.47470600  0.93594200  0.31308800  1
  H  242  1  0.52564200  0.90168200  0.35052300  1
  H  249  1  0.56931100  0.66302200  0.51656700  1
  H  258  1  0.49415400  0.72150500  0.54450800  1
  H  259  1  0.49844700  0.70847700  0.45295900  1
  H  260  1  0.48507100  0.73426100  0.47687200  1
  H  261  1  0.52147500  0.64537600  0.58692900  1
  H  262  1  0.55807900  0.63318200  0.57138700  1
  H  263  1  0.47445900  0.69228800  0.55472300  1
  H  264  1  0.52526400  0.65499300  0.48299200  1
  H  271  1  0.06810500  0.39230700  0.88129500  1
  H  280  1  0.99680000  0.33062100  0.84892900  1
  H  281  1  0.01042700  0.34112700  0.76939000  1
  H  282  1  0.99868400  0.31506700  0.76753100  1
  H  283  1  0.01618500  0.40878300  0.96792500  1
  H  284  1  0.05199000  0.42237100  0.96558000  1
  H  285  1  0.97571000  0.35884200  0.88732200  1
  H  286  1  0.02558300  0.39731700  0.85360600  1
  H  293  1  0.06803300  0.56254200  0.61315700  1
  H  302  1  0.99712700  0.59192300  0.67495300  1
  H  303  1  0.01007800  0.50178200  0.66434100  1
  H  304  1  0.99851000  0.52598200  0.69044400  1
  H  305  1  0.01603700  0.63276000  0.59672900  1
  H  306  1  0.05178800  0.61679500  0.58312900  1
  H  307  1  0.97567900  0.60201300  0.64670700  1
  H  308  1  0.02533400  0.52982400  0.60815200  1
  H  315  1  0.06829000  0.12410000  0.44297800  1
  H  324  1  0.99724600  0.15650100  0.41362100  1
  H  325  1  0.01074300  0.23614300  0.50367600  1
  H  326  1  0.99907500  0.23798900  0.47946700  1
  H  327  1  0.01631800  0.03743900  0.37272600  1
  H  328  1  0.05208500  0.03975900  0.38865100  1
  H  329  1  0.97582800  0.11817700  0.40359700  1
  H  330  1  0.02575800  0.15188800  0.47572200  1
  H  337  1  0.56765800  0.66031800  0.07694600  1
  H  346  1  0.49648000  0.72195600  0.10919100  1
  H  347  1  0.50995700  0.71156100  0.18880700  1
  H  348  1  0.49830900  0.73761900  0.19063000  1
  H  349  1  0.51609300  0.64393600  0.99026500  1
  H  350  1  0.55190800  0.63037900  0.99264900  1
  H  351  1  0.47521700  0.69366100  0.07080500  1
  H  352  1  0.52496900  0.65524600  0.10459900  1
  H  359  1  0.56820400  0.49019500  0.34500000  1
  H  368  1  0.49698700  0.46082100  0.28330600  1
  H  369  1  0.51048600  0.55085000  0.29375400  1
  H  370  1  0.49882500  0.52662400  0.26768800  1
  H  371  1  0.51620700  0.42014600  0.36159800  1
  H  372  1  0.55201400  0.43607600  0.37517800  1
  H  373  1  0.47580300  0.45070800  0.31156300  1
  H  374  1  0.52558700  0.52289600  0.35000500  1
  H  381  1  0.56831500  0.92851200  0.51539400  1
  H  390  1  0.49715600  0.89607500  0.54470000  1
  H  391  1  0.51051600  0.81654500  0.45460500  1
  H  392  1  0.49877500  0.81464200  0.47877500  1
  H  393  1  0.51614600  0.01516500  0.58548900  1
  H  394  1  0.55190600  0.01280100  0.56952900  1
  H  395  1  0.47589800  0.93442600  0.55481600  1
  H  396  1  0.52580700  0.90077000  0.48266900  1
  H  403  1  0.80732900  0.48966400  0.07814300  1
  H  412  1  0.88085600  0.46055300  0.10896500  1
  H  413  1  0.86604300  0.55047500  0.18866200  1
  H  414  1  0.87798300  0.52635700  0.19056000  1
  H  415  1  0.85320500  0.41711100  0.99055500  1
  H  416  1  0.81729700  0.43321700  0.99372600  1
  H  417  1  0.90070500  0.45019400  0.06988800  1
  H  418  1  0.85085800  0.52246100  0.10446100  1
  H  425  1  0.80708200  0.92752200  0.34323300  1
  H  434  1  0.88093200  0.89673900  0.28346500  1
  H  435  1  0.86572900  0.81716600  0.29379700  1
  H  436  1  0.87769500  0.81523400  0.26776100  1
  H  437  1  0.85280700  0.01514700  0.35831800  1
  H  438  1  0.81687200  0.01188900  0.37117700  1
  H  439  1  0.90053100  0.93589300  0.31216100  1
  H  440  1  0.85064700  0.90134300  0.34987300  1
  H  447  1  0.80753000  0.66218100  0.51587200  1
  H  456  1  0.88142600  0.72190300  0.54502500  1
  H  457  1  0.86646400  0.71182800  0.45521300  1
  H  458  1  0.87847300  0.73781600  0.47936100  1
  H  459  1  0.85302900  0.64697900  0.58834500  1
  H  460  1  0.81702500  0.63417600  0.57225800  1
  H  461  1  0.90099200  0.69311100  0.55537600  1
  H  462  1  0.85118200  0.65558100  0.48309200  1
  H  469  1  0.30730100  0.56331900  0.88029700  1
  H  478  1  0.38080200  0.59229200  0.84929100  1
  H  479  1  0.36578400  0.50230200  0.76979800  1
  H  480  1  0.37771600  0.52636400  0.76778600  1
  H  481  1  0.35333600  0.63599100  0.96775800  1
  H  482  1  0.31744900  0.61986700  0.96462000  1
  H  483  1  0.40062200  0.60278700  0.88837600  1
  H  484  1  0.35081400  0.53050700  0.85402000  1
  H  491  1  0.30743600  0.12542500  0.61485500  1
  H  500  1  0.38124200  0.15604100  0.67461500  1
  H  501  1  0.36635900  0.23582300  0.66454500  1
  H  502  1  0.37838600  0.23767900  0.69052600  1
  H  503  1  0.35289900  0.03771800  0.59973900  1
  H  504  1  0.31694100  0.04098600  0.58691500  1
  H  505  1  0.40091100  0.11692200  0.64581800  1
  H  506  1  0.35103100  0.15166000  0.60829300  1
  H  513  1  0.30717400  0.39059100  0.44232600  1
  H  522  1  0.38083200  0.33074500  0.41325200  1
  H  523  1  0.36581900  0.34097200  0.50312900  1
  H  524  1  0.37772600  0.31493900  0.47898900  1
  H  525  1  0.35320400  0.40583900  0.37000400  1
  H  526  1  0.31721100  0.41871300  0.38606700  1
  H  527  1  0.40060100  0.35947800  0.40288500  1
  H  528  1  0.35076600  0.39714800  0.47514200  1
  H  541  1  0.94033400  0.83397600  0.26485100  1
  H  542  1  0.86882900  0.83473300  0.20140800  1
  H  543  1  0.85417100  0.86201700  0.24334200  1
  H  544  1  0.84388200  0.76201600  0.15147700  1
  H  545  1  0.94172900  0.73685100  0.16337600  1
  H  546  1  0.95855900  0.77876700  0.19080800  1
  H  559  1  0.94036300  0.50447900  0.17164900  1
  H  560  1  0.86838700  0.44051800  0.17097300  1
  H  561  1  0.85383500  0.45524800  0.14379400  1
  H  562  1  0.84377700  0.46301400  0.24358400  1
  H  563  1  0.94149700  0.50023800  0.26875100  1
  H  564  1  0.95831400  0.48576400  0.22687300  1
  H  577  1  0.94095800  0.74077500  0.50120900  1
  H  578  1  0.86843600  0.80389900  0.56485800  1
  H  579  1  0.85426500  0.76197900  0.55025500  1
  H  580  1  0.84347900  0.85417000  0.54255700  1
  H  581  1  0.94101600  0.84211600  0.50513900  1
  H  582  1  0.95802400  0.81469900  0.51954500  1
  H  595  1  0.44076400  0.21875900  0.69351900  1
  H  596  1  0.36845200  0.21808200  0.75665200  1
  H  597  1  0.35413100  0.19084800  0.71474400  1
  H  598  1  0.34350600  0.29065200  0.80682200  1
  H  599  1  0.44116900  0.31601700  0.79495900  1
  H  600  1  0.45819000  0.27414300  0.76752000  1
  H  613  1  0.44019400  0.54817500  0.78655100  1
  H  614  1  0.36857700  0.61234800  0.78734200  1
  H  615  1  0.35391100  0.59762300  0.81456300  1
  H  616  1  0.34383700  0.58971900  0.71464200  1
  H  617  1  0.44172000  0.55269000  0.68952700  1
  H  618  1  0.45847100  0.56712800  0.73144600  1
  H  631  1  0.44032400  0.31204400  0.45727300  1
  H  632  1  0.36856400  0.24870300  0.39319100  1
  H  633  1  0.35396900  0.29060000  0.40789400  1
  H  634  1  0.34380500  0.19862800  0.41572800  1
  H  635  1  0.44147400  0.21067600  0.45301000  1
  H  636  1  0.45833600  0.23809100  0.43855800  1
  H  649  1  0.93594000  0.54778300  0.69223700  1
  H  650  1  0.00542200  0.61202900  0.75719300  1
  H  651  1  0.02238000  0.59717600  0.71563700  1
  H  652  1  0.02519900  0.59012600  0.80851700  1
  H  653  1  0.92691600  0.55315600  0.79405200  1
  H  654  1  0.91295400  0.56726100  0.76589900  1
  H  667  1  0.93576300  0.31352000  0.78737400  1
  H  668  1  0.00426700  0.24834200  0.78697800  1
  H  669  1  0.02156400  0.28982200  0.81364600  1
  H  670  1  0.02450000  0.19732800  0.71371600  1
  H  671  1  0.92625500  0.21164700  0.69104200  1
  H  672  1  0.91212200  0.23979200  0.73334000  1
  H  685  1  0.93631300  0.21806900  0.45797000  1
  H  686  1  0.00484200  0.21842200  0.39315500  1
  H  687  1  0.02219400  0.19176000  0.40806500  1
  H  688  1  0.02487900  0.29183000  0.41569800  1
  H  689  1  0.92617300  0.31417300  0.45214300  1
  H  690  1  0.91231300  0.27182800  0.43793600  1
  H  703  1  0.43594700  0.50525700  0.26615200  1
  H  704  1  0.50432100  0.44032900  0.20099300  1
  H  705  1  0.52169200  0.45524700  0.24250200  1
  H  706  1  0.52461400  0.46273600  0.15013200  1
  H  707  1  0.42627300  0.49962200  0.16436300  1
  H  708  1  0.41213400  0.48540700  0.19242800  1
  H  721  1  0.43548600  0.73933400  0.17071900  1
  H  722  1  0.50503400  0.80424100  0.17137400  1
  H  723  1  0.52184300  0.76266800  0.14459100  1
  H  724  1  0.52514200  0.85545700  0.24461600  1
  H  725  1  0.42685600  0.84113900  0.26724400  1
  H  726  1  0.41275700  0.81301800  0.22500000  1
  H  739  1  0.43601300  0.83461700  0.50031000  1
  H  740  1  0.50461200  0.83407400  0.56498200  1
  H  741  1  0.52196700  0.86072400  0.55015700  1
  H  742  1  0.52456100  0.76077100  0.54269700  1
  H  743  1  0.42620900  0.73828800  0.50582200  1
  H  744  1  0.41223000  0.78061600  0.52001200  1
  H  757  1  0.76926400  0.62068000  0.04741900  1
  H  758  1  0.70760900  0.65901000  0.00793000  1
  H  759  1  0.76859300  0.66724600  0.01672800  1
  H  760  1  0.60126600  0.66851000  0.01935300  1
  H  761  1  0.59489900  0.61777900  0.04494100  1
  H  762  1  0.65733000  0.61032200  0.03758900  1
  H  775  1  0.76945200  0.50054300  0.38514500  1
  H  776  1  0.70793500  0.42268000  0.34680600  1
  H  777  1  0.76888100  0.42329200  0.33859900  1
  H  778  1  0.60166100  0.42445100  0.33720700  1
  H  779  1  0.59516100  0.50085500  0.38754500  1
  H  780  1  0.65751000  0.50103000  0.39521400  1
  H  793  1  0.76945100  0.95847300  0.50517500  1
  H  794  1  0.70782900  0.99796100  0.58299600  1
  H  795  1  0.76876300  0.98914400  0.58242000  1
  H  796  1  0.60150400  0.98650600  0.58114700  1
  H  797  1  0.59516900  0.96047800  0.50474900  1
  H  798  1  0.65750200  0.96802800  0.50463400  1
  H  811  1  0.26932900  0.43227100  0.91097200  1
  H  812  1  0.20783600  0.39432200  0.95088400  1
  H  813  1  0.26875700  0.38605400  0.94205800  1
  H  814  1  0.10156500  0.38438100  0.93910500  1
  H  815  1  0.09503000  0.43492500  0.91329800  1
  H  816  1  0.15739200  0.44261400  0.92083100  1
  H  829  1  0.26936100  0.55246400  0.57329700  1
  H  830  1  0.20766100  0.63026300  0.61163700  1
  H  831  1  0.26864000  0.62971700  0.61988700  1
  H  832  1  0.10133900  0.62833700  0.62111300  1
  H  833  1  0.09504400  0.55196700  0.57059400  1
  H  834  1  0.15743200  0.55187900  0.56305200  1
  H  847  1  0.26946400  0.09451600  0.45320900  1
  H  848  1  0.20785200  0.05495900  0.37538200  1
  H  849  1  0.26877300  0.06383900  0.37596200  1
  H  850  1  0.10153500  0.06629500  0.37726200  1
  H  851  1  0.09517900  0.09213200  0.45363000  1
  H  852  1  0.15756500  0.08470600  0.45374200  1
  H  865  1  0.10211600  0.55429600  0.91091900  1
  H  866  1  0.16453900  0.63167400  0.94539000  1
  H  867  1  0.10314100  0.63095400  0.93777900  1
  H  868  1  0.27101700  0.62951000  0.93506200  1
  H  869  1  0.27748000  0.55393800  0.91286300  1
  H  870  1  0.21472000  0.55391900  0.91933800  1
  H  883  1  0.10189000  0.09507500  0.57559900  1
  H  884  1  0.16452800  0.06042400  0.61825500  1
  H  885  1  0.10314100  0.06800600  0.62522700  1
  H  886  1  0.27100600  0.07085100  0.62636000  1
  H  887  1  0.27730700  0.09287200  0.57284200  1
  H  888  1  0.21448400  0.08649500  0.56650000  1
  H  901  1  0.10176300  0.42985600  0.45126000  1
  H  902  1  0.16440100  0.38725000  0.37394500  1
  H  903  1  0.10300900  0.38021400  0.37456400  1
  H  904  1  0.27088200  0.37930600  0.37621400  1
  H  905  1  0.27712700  0.43253700  0.45184600  1
  H  906  1  0.21432000  0.43889600  0.45182000  1
  H  919  1  0.60205300  0.49871000  0.04788900  1
  H  920  1  0.66459200  0.42135500  0.01314700  1
  H  921  1  0.60322100  0.42201600  0.02082800  1
  H  922  1  0.77105800  0.42358100  0.02337100  1
  H  923  1  0.77740700  0.49918800  0.04567700  1
  H  924  1  0.71460700  0.49918900  0.03929800  1
  H  937  1  0.60179100  0.95807700  0.38295400  1
  H  938  1  0.66413900  0.99274100  0.34019900  1
  H  939  1  0.60275500  0.98510100  0.33329000  1
  H  940  1  0.77060200  0.98230200  0.33188900  1
  H  941  1  0.77714700  0.96004400  0.38521700  1
  H  942  1  0.71439200  0.96653700  0.39175800  1
  H  955  1  0.60187000  0.62279100  0.50694600  1
  H  956  1  0.66447800  0.66567500  0.58424700  1
  H  957  1  0.60307300  0.67257200  0.58360800  1
  H  958  1  0.77096100  0.67370100  0.58198600  1
  H  959  1  0.77730400  0.62025200  0.50643100  1
  H  960  1  0.71448500  0.61389700  0.50644000  1
  H  973  1  0.93495300  0.61779700  0.92787000  1
  H  974  1  0.99160500  0.69679800  0.97667500  1
  H  975  1  0.02578700  0.66306400  0.94616700  1
  H  976  1  0.84507900  0.69102200  0.00860700  1
  H  977  1  0.93620000  0.67365400  0.03610400  1
  H  978  1  0.97145200  0.67995800  0.00850300  1
  H  991  1  0.93475100  0.38295800  0.38747300  1
  H  992  1  0.99179000  0.35374400  0.30877400  1
  H  993  1  0.02583800  0.35673300  0.34238000  1
  H  994  1  0.84513200  0.39141100  0.31452600  1
  H  995  1  0.93637600  0.43616600  0.33216800  1
  H  996  1  0.97143300  0.40222800  0.32587000  1
  H  1009  1  0.93492800  0.07795700  0.62221700  1
  H  1010  1  0.99186600  0.02874200  0.65179300  1
  H  1011  1  0.02584800  0.05939700  0.64883200  1
  H  1012  1  0.84499100  0.99681900  0.61434200  1
  H  1013  1  0.93615800  0.96940200  0.56959500  1
  H  1014  1  0.97132800  0.99689400  0.60341500  1
  H  1027  1  0.43496600  0.43508000  0.03064900  1
  H  1028  1  0.49186200  0.35624300  0.98160000  1
  H  1029  1  0.52584900  0.38983700  0.01223800  1
  H  1030  1  0.34507200  0.36195000  0.94985800  1
  H  1031  1  0.43614000  0.37880400  0.92193300  1
  H  1032  1  0.47150800  0.37248900  0.94949100  1
  H  1045  1  0.43479200  0.66929800  0.57063300  1
  H  1046  1  0.49160800  0.69939500  0.64956700  1
  H  1047  1  0.52571700  0.69621000  0.61582100  1
  H  1048  1  0.34509300  0.66162500  0.64376900  1
  H  1049  1  0.43625900  0.61679100  0.62633200  1
  H  1050  1  0.47147600  0.65073800  0.63271300  1
  H  1063  1  0.43464600  0.97467800  0.33589300  1
  H  1064  1  0.49164800  0.02396700  0.30642900  1
  H  1065  1  0.52571700  0.99344300  0.30956400  1
  H  1066  1  0.34501900  0.05598100  0.34403800  1
  H  1067  1  0.43625700  0.08315800  0.38878600  1
  H  1068  1  0.47129300  0.05544400  0.35490200  1
  H  1081  1  0.94027400  0.43311600  0.03017300  1
  H  1082  1  0.88025900  0.35516900  0.98316300  1
  H  1083  1  0.84787000  0.38966400  0.01394200  1
  H  1084  1  0.02568900  0.35961300  0.94805900  1
  H  1085  1  0.93275200  0.37753700  0.92286200  1
  H  1086  1  0.89915800  0.37063500  0.95057100  1
  H  1099  1  0.94031700  0.67049500  0.57254800  1
  H  1100  1  0.88015000  0.70162300  0.65046700  1
  H  1101  1  0.84785600  0.69793400  0.61596800  1
  H  1102  1  0.02545400  0.66197400  0.64580100  1
  H  1103  1  0.93258700  0.61880700  0.62813400  1
  H  1104  1  0.89880900  0.65355600  0.63522300  1
  H  1117  1  0.94000000  0.97560600  0.33488500  1
  H  1118  1  0.88044200  0.02256900  0.30367800  1
  H  1119  1  0.84777900  0.99179300  0.30739100  1
  H  1120  1  0.02556200  0.05737700  0.34360200  1
  H  1121  1  0.93270600  0.08264500  0.38688400  1
  H  1122  1  0.89896800  0.05496700  0.35212000  1
  H  1135  1  0.44033700  0.61999600  0.92789500  1
  H  1136  1  0.38032800  0.69790700  0.97514300  1
  H  1137  1  0.34781200  0.66342700  0.94444600  1
  H  1138  1  0.52546000  0.69312100  0.01025500  1
  H  1139  1  0.43241200  0.67484300  0.03505800  1
  H  1140  1  0.39899200  0.68175400  0.00722000  1
  H  1153  1  0.44013800  0.38208700  0.38585100  1
  H  1154  1  0.38023500  0.35126600  0.30788000  1
  H  1155  1  0.34777700  0.35493900  0.34233500  1
  H  1156  1  0.52572700  0.39077500  0.31243400  1
  H  1157  1  0.43281800  0.43391600  0.33028600  1
  H  1158  1  0.39918800  0.39931800  0.32338700  1
  H  1171  1  0.44032400  0.07709200  0.62310200  1
  H  1172  1  0.38023000  0.03035000  0.65431800  1
  H  1173  1  0.34791000  0.06114500  0.65061500  1
  H  1174  1  0.52556000  0.99537500  0.61476500  1
  H  1175  1  0.43276500  0.96977700  0.57153200  1
  H  1176  1  0.39893100  0.99748200  0.60623100  1
  H  1189  1  0.90979800  0.66487200  0.15615700  1
  H  1190  1  0.79672000  0.62725200  0.15268600  1
  H  1191  1  0.79939100  0.66008600  0.14364000  1
  H  1192  1  0.80481900  0.55462600  0.13931500  1
  H  1193  1  0.91176600  0.56523700  0.16218500  1
  H  1194  1  0.90771800  0.60698300  0.17130400  1
  H  1207  1  0.90971300  0.56497100  0.34052500  1
  H  1208  1  0.79681400  0.59915300  0.37845400  1
  H  1209  1  0.79937100  0.55728200  0.34563500  1
  H  1210  1  0.80521400  0.65838800  0.45102800  1
  H  1211  1  0.91217800  0.67044000  0.44026600  1
  H  1212  1  0.90793200  0.63789900  0.39851600  1
  H  1225  1  0.90921500  0.84940400  0.44064700  1
  H  1226  1  0.79632700  0.85326300  0.40651800  1
  H  1227  1  0.79888600  0.86223800  0.44836300  1
  H  1228  1  0.80462900  0.86648800  0.34717100  1
  H  1229  1  0.91158800  0.84367400  0.33512800  1
  H  1230  1  0.90739300  0.83455600  0.36773000  1
  H  1243  1  0.40938900  0.38780000  0.80211000  1
  H  1244  1  0.29646700  0.42571800  0.80589400  1
  H  1245  1  0.29903400  0.39285400  0.81487300  1
  H  1246  1  0.30474200  0.49831000  0.81920500  1
  H  1247  1  0.41164700  0.48756500  0.79627600  1
  H  1248  1  0.40750000  0.44582000  0.78715800  1
  H  1261  1  0.40979700  0.48789800  0.61754300  1
  H  1262  1  0.29670800  0.45376300  0.57993900  1
  H  1263  1  0.29939700  0.49565400  0.61274800  1
  H  1264  1  0.30481900  0.39450700  0.50731500  1
  H  1265  1  0.41172900  0.38220700  0.51796000  1
  H  1266  1  0.40767500  0.41483500  0.55970300  1
  H  1279  1  0.40964600  0.20354000  0.51767600  1
  H  1280  1  0.29670000  0.19981400  0.55181700  1
  H  1281  1  0.29930200  0.19076100  0.50994500  1
  H  1282  1  0.30498800  0.18654400  0.61110400  1
  H  1283  1  0.41197000  0.20932400  0.62317900  1
  H  1284  1  0.40778400  0.21849900  0.59061000  1
  H  1297  1  0.95989500  0.48730100  0.80234100  1
  H  1298  1  0.07486100  0.45561900  0.80620400  1
  H  1299  1  0.07000200  0.49747600  0.81550000  1
  H  1300  1  0.07060100  0.39575000  0.81880400  1
  H  1301  1  0.96368700  0.38160200  0.79611200  1
  H  1302  1  0.96565700  0.41440200  0.78721300  1
  H  1315  1  0.95951300  0.20332400  0.61684400  1
  H  1316  1  0.07468900  0.19951500  0.58158200  1
  H  1317  1  0.06963400  0.19027700  0.61417200  1
  H  1318  1  0.07077800  0.18668200  0.50902600  1
  H  1319  1  0.96393900  0.20949700  0.51732900  1
  H  1320  1  0.96568600  0.21847600  0.55908100  1
  H  1333  1  0.95913400  0.38870200  0.51822700  1
  H  1334  1  0.07426300  0.42392000  0.54991000  1
  H  1335  1  0.06932900  0.39130000  0.50806300  1
  H  1336  1  0.07024600  0.49647800  0.60961200  1
  H  1337  1  0.96334500  0.48816700  0.62400100  1
  H  1338  1  0.96511400  0.44643900  0.59118600  1
  H  1351  1  0.45943100  0.56553400  0.15617100  1
  H  1352  1  0.57441200  0.59724900  0.15239300  1
  H  1353  1  0.56958100  0.55541600  0.14318600  1
  H  1354  1  0.57002900  0.65684100  0.13938900  1
  H  1355  1  0.46315300  0.67111800  0.16218400  1
  H  1356  1  0.46516200  0.63841700  0.17124100  1
  H  1369  1  0.45987000  0.84949500  0.34142400  1
  H  1370  1  0.57488600  0.85340900  0.37692900  1
  H  1371  1  0.56997100  0.86266000  0.34433900  1
  H  1372  1  0.57079500  0.86594500  0.44937400  1
  H  1373  1  0.46386300  0.84331400  0.44093800  1
  H  1374  1  0.46572900  0.83444900  0.39924900  1
  H  1387  1  0.45930300  0.66401200  0.43985700  1
  H  1388  1  0.57443600  0.62870100  0.40833600  1
  H  1389  1  0.56942200  0.66125500  0.45018200  1
  H  1390  1  0.57046100  0.55620600  0.34852900  1
  H  1391  1  0.46360600  0.56456400  0.33410700  1
  H  1392  1  0.46539000  0.60629500  0.36691700  1
  C  1  1  0.84864500  0.67685000  0.07758700  1
  C  2  1  0.81779600  0.66300900  0.06649400  1
  C  3  1  0.81099500  0.65280500  0.04103000  1
  C  4  1  0.83639800  0.65600500  0.02601100  1
  C  5  1  0.86504700  0.67271100  0.03764400  1
  C  6  1  0.87141700  0.68200600  0.06291800  1
  C  9  1  0.85531100  0.68703000  0.10325900  1
  C  10  1  0.85052800  0.67294400  0.11487600  1
  C  11  1  0.85810200  0.68259100  0.14015600  1
  C  12  1  0.87136700  0.70705600  0.15452700  1
  C  13  1  0.87756500  0.72096200  0.14253100  1
  C  14  1  0.86862500  0.71112300  0.11753800  1
  C  23  1  0.84875800  0.47452600  0.32890700  1
  C  24  1  0.81797300  0.47730000  0.34281800  1
  C  25  1  0.81123400  0.46204300  0.35303400  1
  C  26  1  0.83665600  0.44382100  0.34979500  1
  C  27  1  0.86525600  0.43875200  0.33305900  1
  C  28  1  0.87158600  0.45472900  0.32376000  1
  C  31  1  0.85532700  0.48997600  0.31866500  1
  C  32  1  0.85049900  0.51567800  0.33269900  1
  C  33  1  0.85799100  0.53126500  0.32298400  1
  C  34  1  0.87119100  0.52112000  0.29849900  1
  C  35  1  0.87740800  0.49522100  0.28464000  1
  C  36  1  0.86854700  0.48011000  0.29454400  1
  C  45  1  0.84842200  0.92807700  0.53120800  1
  C  46  1  0.81773800  0.93930500  0.52843600  1
  C  47  1  0.81112100  0.96479800  0.54369500  1
  C  48  1  0.83656300  0.97968900  0.56194500  1
  C  49  1  0.86503900  0.96794400  0.56703000  1
  C  50  1  0.87124100  0.94265200  0.55103700  1
  C  53  1  0.85489600  0.90237900  0.51569500  1
  C  54  1  0.85004900  0.89078800  0.48999800  1
  C  55  1  0.85746900  0.86548700  0.47433900  1
  C  56  1  0.87066100  0.85107400  0.48440500  1
  C  57  1  0.87689500  0.86303100  0.51029700  1
  C  58  1  0.86808300  0.88804200  0.52548000  1
  C  67  1  0.34837900  0.37590800  0.88077300  1
  C  68  1  0.31769100  0.38991100  0.89197500  1
  C  69  1  0.31104500  0.40018200  0.91746600  1
  C  70  1  0.33653500  0.39692100  0.93240200  1
  C  71  1  0.36500500  0.38006900  0.92068600  1
  C  72  1  0.37119200  0.37069900  0.89538100  1
  C  75  1  0.35489700  0.36570600  0.85507700  1
  C  76  1  0.35010400  0.37980900  0.84347900  1
  C  77  1  0.35763400  0.37017500  0.81819300  1
  C  78  1  0.37083400  0.34569700  0.80379600  1
  C  79  1  0.37699200  0.33176200  0.81576500  1
  C  80  1  0.36810800  0.34159000  0.84076400  1
  C  89  1  0.34871000  0.57845000  0.62947800  1
  C  90  1  0.31786500  0.57571000  0.61563500  1
  C  91  1  0.31106600  0.59098200  0.60544400  1
  C  92  1  0.33646100  0.60921700  0.60867300  1
  C  93  1  0.36510900  0.61427800  0.62537800  1
  C  94  1  0.37148100  0.59828000  0.63464900  1
  C  97  1  0.35535800  0.56296100  0.63966300  1
  C  98  1  0.35056700  0.53725900  0.62558300  1
  C  99  1  0.35811900  0.52163200  0.63524100  1
  C  100  1  0.37136700  0.53173000  0.65970900  1
  C  101  1  0.37757500  0.55763100  0.67360900  1
  C  102  1  0.36865400  0.57278000  0.66376000  1
  C  111  1  0.34867000  0.12478200  0.42716500  1
  C  112  1  0.31790000  0.11363800  0.42994500  1
  C  113  1  0.31116400  0.08816500  0.41468800  1
  C  114  1  0.33658000  0.07318800  0.39645600  1
  C  115  1  0.36514800  0.08486100  0.39136700  1
  C  116  1  0.37147000  0.11013900  0.40734500  1
  C  119  1  0.35526000  0.15046900  0.44264000  1
  C  120  1  0.35043500  0.16211100  0.46834100  1
  C  121  1  0.35794400  0.18740700  0.48395400  1
  C  122  1  0.37116300  0.20176800  0.47383500  1
  C  123  1  0.37738400  0.18975200  0.44793700  1
  C  124  1  0.36850300  0.16474600  0.43280300  1
  C  133  1  0.01957700  0.57909800  0.88133000  1
  C  134  1  0.05143100  0.57657600  0.89164800  1
  C  135  1  0.05988800  0.59239200  0.91675300  1
  C  136  1  0.03529200  0.61101100  0.93222800  1
  C  137  1  0.00541400  0.61561500  0.92121000  1
  C  138  1  0.99726600  0.59909200  0.89634600  1
  C  141  1  0.01184800  0.56344900  0.85585400  1
  C  142  1  0.01720000  0.53780300  0.84418600  1
  C  143  1  0.00999300  0.52217300  0.81885200  1
  C  144  1  0.99662700  0.53221700  0.80446200  1
  C  145  1  0.98978700  0.55805300  0.81651600  1
  C  146  1  0.99814500  0.57319900  0.84162300  1
  C  155  1  0.01933000  0.12447300  0.62996000  1
  C  156  1  0.05120500  0.11420900  0.61713100  1
  C  157  1  0.05978200  0.08912700  0.60785700  1
  C  158  1  0.03522800  0.07359900  0.61096100  1
  C  159  1  0.00535600  0.08456800  0.62660400  1
  C  160  1  0.99711500  0.10942000  0.63495100  1
  C  163  1  0.01146300  0.14992700  0.63973100  1
  C  164  1  0.01681000  0.16156600  0.62572600  1
  C  165  1  0.00949500  0.18687600  0.63536900  1
  C  166  1  0.99604100  0.20128000  0.65977700  1
  C  167  1  0.98921200  0.18925100  0.67358600  1
  C  168  1  0.99764200  0.16416200  0.66367500  1
  C  177  1  0.01921900  0.37550300  0.42636200  1
  C  178  1  0.05111300  0.38830400  0.42890300  1
  C  179  1  0.05965500  0.39757500  0.41309000  1
  C  180  1  0.03511900  0.39446300  0.39444800  1
  C  181  1  0.00526100  0.37880400  0.38977300  1
  C  182  1  0.99703000  0.37047200  0.40629300  1
  C  185  1  0.01133900  0.36573600  0.44204200  1
  C  186  1  0.01657200  0.37977000  0.46769500  1
  C  187  1  0.00923000  0.37012900  0.48335900  1
  C  188  1  0.99585400  0.34569900  0.47334700  1
  C  189  1  0.98913400  0.33185900  0.44749500  1
  C  190  1  0.99760700  0.34176800  0.43232100  1
  C  199  1  0.51946600  0.47376400  0.07730300  1
  C  200  1  0.55136500  0.47632500  0.06705800  1
  C  201  1  0.55990000  0.46054300  0.04196700  1
  C  202  1  0.53533700  0.44193800  0.02640900  1
  C  203  1  0.50543400  0.43727900  0.03736500  1
  C  204  1  0.49720100  0.45376000  0.06222400  1
  C  207  1  0.51159400  0.48940700  0.10276000  1
  C  208  1  0.51690700  0.51505700  0.11444000  1
  C  209  1  0.50954900  0.53068200  0.13975000  1
  C  210  1  0.49608800  0.52062900  0.15411100  1
  C  211  1  0.48926600  0.49479000  0.14203800  1
  C  212  1  0.49777400  0.47965000  0.11695500  1
  C  221  1  0.51941000  0.92841900  0.32846900  1
  C  222  1  0.55119000  0.93880200  0.34138400  1
  C  223  1  0.55955800  0.96392400  0.35069600  1
  C  224  1  0.53492900  0.97934800  0.34749800  1
  C  225  1  0.50516300  0.96826700  0.33177800  1
  C  226  1  0.49710300  0.94338700  0.32341700  1
  C  229  1  0.51175300  0.90293200  0.31865800  1
  C  230  1  0.51710300  0.89130200  0.33267200  1
  C  231  1  0.50993500  0.86596900  0.32299800  1
  C  232  1  0.49659400  0.85153800  0.29856200  1
  C  233  1  0.48976900  0.86355400  0.28474000  1
  C  234  1  0.49810200  0.88865800  0.29466600  1
  C  243  1  0.51916900  0.67705200  0.53179300  1
  C  244  1  0.55108200  0.66426800  0.52925500  1
  C  245  1  0.55970900  0.65505900  0.54511000  1
  C  246  1  0.53517100  0.65817200  0.56375500  1
  C  247  1  0.50524500  0.67376300  0.56838300  1
  C  248  1  0.49694900  0.68204200  0.55183200  1
  C  251  1  0.51129700  0.68682400  0.51611400  1
  C  252  1  0.51662300  0.67282300  0.49046600  1
  C  253  1  0.50931500  0.68248200  0.47481300  1
  C  254  1  0.49591100  0.70690500  0.48483300  1
  C  255  1  0.48911400  0.72071400  0.51067600  1
  C  256  1  0.49752200  0.71078100  0.52583900  1
  C  265  1  0.01925900  0.37591700  0.88086600  1
  C  266  1  0.04960800  0.39033400  0.89215500  1
  C  267  1  0.05646000  0.40039300  0.91757200  1
  C  268  1  0.03190000  0.39622300  0.93238600  1
  C  269  1  0.00367600  0.37916900  0.92056000  1
  C  270  1  0.99699700  0.37020400  0.89537200  1
  C  273  1  0.01338700  0.36532600  0.85504000  1
  C  274  1  0.01877400  0.37910100  0.84316100  1
  C  275  1  0.01389600  0.36872400  0.81749600  1
  C  276  1  0.00289400  0.34370800  0.80297500  1
  C  277  1  0.99482600  0.33024000  0.81520300  1
  C  278  1  0.00110500  0.34096100  0.84068400  1
  C  287  1  0.01921900  0.57849900  0.62958200  1
  C  288  1  0.04950700  0.57534800  0.61510700  1
  C  289  1  0.05633500  0.59072700  0.60506600  1
  C  290  1  0.03172000  0.60968900  0.60924600  1
  C  291  1  0.00352500  0.61491300  0.62632100  1
  C  292  1  0.99691100  0.59869400  0.63529900  1
  C  295  1  0.01339500  0.56327400  0.64018500  1
  C  296  1  0.01864900  0.53761000  0.62639200  1
  C  297  1  0.01372900  0.52232600  0.63677300  1
  C  298  1  0.00287300  0.53285000  0.66182100  1
  C  299  1  0.99501700  0.55857700  0.67533100  1
  C  300  1  0.00130300  0.57332400  0.66459700  1
  C  309  1  0.01943400  0.12458000  0.42707000  1
  C  310  1  0.04971400  0.11324400  0.43021400  1
  C  311  1  0.05648100  0.08780500  0.41487600  1
  C  312  1  0.03187900  0.07303900  0.39590800  1
  C  313  1  0.00366000  0.08488800  0.39070900  1
  C  314  1  0.99708300  0.11009500  0.40690200  1
  C  317  1  0.01369700  0.15042400  0.44226600  1
  C  318  1  0.01908100  0.16232700  0.46791800  1
  C  319  1  0.01428500  0.18800800  0.48317400  1
  C  320  1  0.00338200  0.20250900  0.47263800  1
  C  321  1  0.99536300  0.19026400  0.44693500  1
  C  322  1  0.00155000  0.16476800  0.43220700  1
  C  331  1  0.51877200  0.67661400  0.07729600  1
  C  332  1  0.54915300  0.66221900  0.06604600  1
  C  333  1  0.55616400  0.65224400  0.04065500  1
  C  334  1  0.53162800  0.65641500  0.02582700  1
  C  335  1  0.50332500  0.67340700  0.03761200  1
  C  336  1  0.49651800  0.68230500  0.06277200  1
  C  339  1  0.51287900  0.68722500  0.10312000  1
  C  340  1  0.51823100  0.67347800  0.11502900  1
  C  341  1  0.51336100  0.68389500  0.14070300  1
  C  342  1  0.50245500  0.70893500  0.15520000  1
  C  343  1  0.49449100  0.72239400  0.14294500  1
  C  344  1  0.50070900  0.71162400  0.11745300  1
  C  353  1  0.51935500  0.47423700  0.32862800  1
  C  354  1  0.54970100  0.47737400  0.34304800  1
  C  355  1  0.55656400  0.46203200  0.35312600  1
  C  356  1  0.53197200  0.44307200  0.34898500  1
  C  357  1  0.50374800  0.43782900  0.33192800  1
  C  358  1  0.49708500  0.45402800  0.32293200  1
  C  361  1  0.51349900  0.48944900  0.31801100  1
  C  362  1  0.51882800  0.51510700  0.33177800  1
  C  363  1  0.51393400  0.53038000  0.32138100  1
  C  364  1  0.50299100  0.51985500  0.29635200  1
  C  365  1  0.49498100  0.49414800  0.28288600  1
  C  366  1  0.50126600  0.47940900  0.29363100  1
  C  375  1  0.51947900  0.92802700  0.53132900  1
  C  376  1  0.54975900  0.93936200  0.52818100  1
  C  377  1  0.55651300  0.96479700  0.54352500  1
  C  378  1  0.53188500  0.97958000  0.56247000  1
  C  379  1  0.50370900  0.96772100  0.56770100  1
  C  380  1  0.49714000  0.94251000  0.55150400  1
  C  383  1  0.51367400  0.90219400  0.51609600  1
  C  384  1  0.51905000  0.89031700  0.49044200  1
  C  385  1  0.51415600  0.86465300  0.47515000  1
  C  386  1  0.50317300  0.85013100  0.48564800  1
  C  387  1  0.49515800  0.86235300  0.51135200  1
  C  388  1  0.50144600  0.88783100  0.52611400  1
  C  397  1  0.85680900  0.47375000  0.07731500  1
  C  398  1  0.82540000  0.47671600  0.06685200  1
  C  399  1  0.81680800  0.46087500  0.04179800  1
  C  400  1  0.84058400  0.44154800  0.02650000  1
  C  401  1  0.87009900  0.43671100  0.03763700  1
  C  402  1  0.87857900  0.45336300  0.06241600  1
  C  405  1  0.86387300  0.48912300  0.10295100  1
  C  406  1  0.85815400  0.51473500  0.11486400  1
  C  407  1  0.86286200  0.52999400  0.14054600  1
  C  408  1  0.87398100  0.51950500  0.15504900  1
  C  409  1  0.88241500  0.49385100  0.14278200  1
  C  410  1  0.87651800  0.47913900  0.11724000  1
  C  419  1  0.85660800  0.92841300  0.32822400  1
  C  420  1  0.82512600  0.93882700  0.34157500  1
  C  421  1  0.81641300  0.96384100  0.35069100  1
  C  422  1  0.84018200  0.97918600  0.34671900  1
  C  423  1  0.86977700  0.96808500  0.33081000  1
  C  424  1  0.87835000  0.94333200  0.32274700  1
  C  427  1  0.86378700  0.90279900  0.31803500  1
  C  428  1  0.85802900  0.89092500  0.33176700  1
  C  429  1  0.86281300  0.86525700  0.32140200  1
  C  430  1  0.87396500  0.85071600  0.29641900  1
  C  431  1  0.88246600  0.86295500  0.28301200  1
  C  432  1  0.87656400  0.88849200  0.29380000  1
  C  441  1  0.85707100  0.67712200  0.53180700  1
  C  442  1  0.82551200  0.66384700  0.52887300  1
  C  443  1  0.81673600  0.65470400  0.54473700  1
  C  444  1  0.84044400  0.65863400  0.56406800  1
  C  445  1  0.87009600  0.67450300  0.56889500  1
  C  446  1  0.87876800  0.68255900  0.55221500  1
  C  449  1  0.86433800  0.68735600  0.51643600  1
  C  450  1  0.85861000  0.67368400  0.49082500  1
  C  451  1  0.86342600  0.68411400  0.47558100  1
  C  452  1  0.87459800  0.70910000  0.48609200  1
  C  453  1  0.88308100  0.72244200  0.51174100  1
  C  454  1  0.87711800  0.71159900  0.52643400  1
  C  463  1  0.35674400  0.57923800  0.88104300  1
  C  464  1  0.32535300  0.57631200  0.89154700  1
  C  465  1  0.31678200  0.59222600  0.91658500  1
  C  466  1  0.34056500  0.61157000  0.93184600  1
  C  467  1  0.37004700  0.61637000  0.92065000  1
  C  468  1  0.37851600  0.59964700  0.89588600  1
  C  471  1  0.36382300  0.56379400  0.85541800  1
  C  472  1  0.35811300  0.53818500  0.84357700  1
  C  473  1  0.36282500  0.52286400  0.81790400  1
  C  474  1  0.37388700  0.53328900  0.80333000  1
  C  475  1  0.38234200  0.55893700  0.81553000  1
  C  476  1  0.37646500  0.57370900  0.84106700  1
  C  485  1  0.35697900  0.12446600  0.62981100  1
  C  486  1  0.32547500  0.11409200  0.61647100  1
  C  487  1  0.31675800  0.08906800  0.60730600  1
  C  488  1  0.34047700  0.07369700  0.61126500  1
  C  489  1  0.37010800  0.08475700  0.62714600  1
  C  490  1  0.37871700  0.10950900  0.63524100  1
  C  493  1  0.36416300  0.15008800  0.64007100  1
  C  494  1  0.35840800  0.16203300  0.62640700  1
  C  495  1  0.36315300  0.18771300  0.63685300  1
  C  496  1  0.37433700  0.20218500  0.66183500  1
  C  497  1  0.38282900  0.18987800  0.67517600  1
  C  498  1  0.37689900  0.16433800  0.66432400  1
  C  507  1  0.35668800  0.37556500  0.42643000  1
  C  508  1  0.32523900  0.38895200  0.42938100  1
  C  509  1  0.31657000  0.39812100  0.41351800  1
  C  510  1  0.34038200  0.39415800  0.39422300  1
  C  511  1  0.36993600  0.37821000  0.38939100  1
  C  512  1  0.37846300  0.37010900  0.40605600  1
  C  515  1  0.36380000  0.36531900  0.44181200  1
  C  516  1  0.35808700  0.37902700  0.46742500  1
  C  517  1  0.36285600  0.36862300  0.48269500  1
  C  518  1  0.37397200  0.34362900  0.47221400  1
  C  519  1  0.38240300  0.33023700  0.44655600  1
  C  520  1  0.37649700  0.34106000  0.43183800  1
  C  529  1  0.89104600  0.74525500  0.15483200  1
  C  530  1  0.92517100  0.75070600  0.16549500  1
  C  531  1  0.93518500  0.77529900  0.18139000  1
  C  532  1  0.91070100  0.79444600  0.18672800  1
  C  534  1  0.86910100  0.76492100  0.15832100  1
  C  535  1  0.91198200  0.81750500  0.20892200  1
  C  536  1  0.88525800  0.83544200  0.21472300  1
  C  537  1  0.87645100  0.85139600  0.23946500  1
  C  538  1  0.89535500  0.85049400  0.25844800  1
  C  539  1  0.92564700  0.83530500  0.25186700  1
  C  547  1  0.89089100  0.48319000  0.26034800  1
  C  548  1  0.92503300  0.48837800  0.25490200  1
  C  549  1  0.93506100  0.47965700  0.23030700  1
  C  550  1  0.91057200  0.46588600  0.21113800  1
  C  552  1  0.86899600  0.46695900  0.24068800  1
  C  553  1  0.91181600  0.46505500  0.18810300  1
  C  554  1  0.88505900  0.45296500  0.17018200  1
  C  555  1  0.87626300  0.46182500  0.15427900  1
  C  556  1  0.89524300  0.48169200  0.15519900  1
  C  557  1  0.92560500  0.49019600  0.17032600  1
  C  565  1  0.89043900  0.85069800  0.52223800  1
  C  566  1  0.92456800  0.84004100  0.51695100  1
  C  567  1  0.93470400  0.82416000  0.52564100  1
  C  568  1  0.91030800  0.81878700  0.53948000  1
  C  570  1  0.86861700  0.84719000  0.53845400  1
  C  571  1  0.91191200  0.79663700  0.54038800  1
  C  572  1  0.88525100  0.79072300  0.55248700  1
  C  573  1  0.87668700  0.76594200  0.54371700  1
  C  574  1  0.89584000  0.74703700  0.52393500  1
  C  575  1  0.92619600  0.75373000  0.51549000  1
  C  583  1  0.39054800  0.30748900  0.80345100  1
  C  584  1  0.42471000  0.30211700  0.79284000  1
  C  585  1  0.43484400  0.27754900  0.77695900  1
  C  586  1  0.41044100  0.25834800  0.77157700  1
  C  588  1  0.36867500  0.28777000  0.79989200  1
  C  589  1  0.41186900  0.23532100  0.74937200  1
  C  590  1  0.38519000  0.21731900  0.74346000  1
  C  591  1  0.37652100  0.20137800  0.71868100  1
  C  592  1  0.39560900  0.20227700  0.69976600  1
  C  593  1  0.42593600  0.21743000  0.70645000  1
  C  601  1  0.39103000  0.56962800  0.69790600  1
  C  602  1  0.42514400  0.56441600  0.70337400  1
  C  603  1  0.43510900  0.57308800  0.72797200  1
  C  604  1  0.41058400  0.58685900  0.74709900  1
  C  606  1  0.36905400  0.58578500  0.71756100  1
  C  607  1  0.41180100  0.58766200  0.77012900  1
  C  608  1  0.38502100  0.59974000  0.78803800  1
  C  609  1  0.37620500  0.59090500  0.80395200  1
  C  610  1  0.39515000  0.57103300  0.80304300  1
  C  611  1  0.42546700  0.56247000  0.78787600  1
  C  619  1  0.39089000  0.20203500  0.43593300  1
  C  620  1  0.42503000  0.21267100  0.44114500  1
  C  621  1  0.43508600  0.22855100  0.43243600  1
  C  622  1  0.41062900  0.23394700  0.41864800  1
  C  624  1  0.36902500  0.20547300  0.41969300  1
  C  625  1  0.41190100  0.25614400  0.41780500  1
  C  626  1  0.38519500  0.26195400  0.40566500  1
  C  627  1  0.37637500  0.28671000  0.41450700  1
  C  628  1  0.39528000  0.30567100  0.43441300  1
  C  629  1  0.42561600  0.29907200  0.44296200  1
  C  637  1  0.97750600  0.57012800  0.80398900  1
  C  638  1  0.94401100  0.56493300  0.79242600  1
  C  639  1  0.93570600  0.57339400  0.77605300  1
  C  640  1  0.96125700  0.58696300  0.77118000  1
  C  642  1  0.00041500  0.58613600  0.80091800  1
  C  643  1  0.96173700  0.58747700  0.74881000  1
  C  644  1  0.98934000  0.59947400  0.74355800  1
  C  645  1  0.99956600  0.59054700  0.71902500  1
  C  646  1  0.98128900  0.57060700  0.69966400  1
  C  647  1  0.95022500  0.56210900  0.70555300  1
  C  655  1  0.97683600  0.20179100  0.69816800  1
  C  656  1  0.94332800  0.21334200  0.70448300  1
  C  657  1  0.93489800  0.22966000  0.72930600  1
  C  658  1  0.96034700  0.23449800  0.74778800  1
  C  660  1  0.99969200  0.20488900  0.71728400  1
  C  661  1  0.96093600  0.25688200  0.77066400  1
  C  662  1  0.98840100  0.26204100  0.78798600  1
  C  663  1  0.99884700  0.28653600  0.80355300  1
  C  664  1  0.98087800  0.30596300  0.80290500  1
  C  665  1  0.94992700  0.30017900  0.78842500  1
  C  673  1  0.97694700  0.30723500  0.43542600  1
  C  674  1  0.94343400  0.30080200  0.44052600  1
  C  675  1  0.93517700  0.27595100  0.43200500  1
  C  676  1  0.96080000  0.25756000  0.41848900  1
  C  678  1  0.99999000  0.28820400  0.41950000  1
  C  679  1  0.96150000  0.23467000  0.41798200  1
  C  680  1  0.98911200  0.21745900  0.40593400  1
  C  681  1  0.99952700  0.20191000  0.41488300  1
  C  682  1  0.98147800  0.20254900  0.43492900  1
  C  683  1  0.95050800  0.21702000  0.44359000  1
  C  691  1  0.47690000  0.48269500  0.15452800  1
  C  692  1  0.44337900  0.48788800  0.16605300  1
  C  693  1  0.43488700  0.47927900  0.18227700  1
  C  694  1  0.46036900  0.46570100  0.18719300  1
  C  696  1  0.49972100  0.46661900  0.15755100  1
  C  697  1  0.46098300  0.46517800  0.20955900  1
  C  698  1  0.48847100  0.45302700  0.21469900  1
  C  699  1  0.49894500  0.46200900  0.23919600  1
  C  700  1  0.48103000  0.48214100  0.25860600  1
  C  701  1  0.45007500  0.49083600  0.25281900  1
  C  709  1  0.47746400  0.85099600  0.26014600  1
  C  710  1  0.44393500  0.83947900  0.25382000  1
  C  711  1  0.43554700  0.82312900  0.22899500  1
  C  712  1  0.46104700  0.81823000  0.21051800  1
  C  714  1  0.50034100  0.84788700  0.24103700  1
  C  715  1  0.46140200  0.79588700  0.18760900  1
  C  716  1  0.48892400  0.79062000  0.17030200  1
  C  717  1  0.49905900  0.76607600  0.15464200  1
  C  718  1  0.48076800  0.74672900  0.15524000  1
  C  719  1  0.44976500  0.75264100  0.16968500  1
  C  727  1  0.47683100  0.74531600  0.52274100  1
  C  728  1  0.44333700  0.75169700  0.51755100  1
  C  729  1  0.43499800  0.77653500  0.52607600  1
  C  730  1  0.46052200  0.79497000  0.53969500  1
  C  732  1  0.49976300  0.76438700  0.53873600  1
  C  733  1  0.46119300  0.81784500  0.54018800  1
  C  734  1  0.48873300  0.83511500  0.55231400  1
  C  735  1  0.49921500  0.85066700  0.54337800  1
  C  736  1  0.48121300  0.85005700  0.52333200  1
  C  737  1  0.45020400  0.83563500  0.51467600  1
  C  745  1  0.59107300  0.64335800  0.03222800  1
  C  746  1  0.60845700  0.62625900  0.03711000  1
  C  747  1  0.64508000  0.62184500  0.03277400  1
  C  748  1  0.66474600  0.63487100  0.02372600  1
  C  750  1  0.61158100  0.65505500  0.02219200  1
  C  751  1  0.70240000  0.63549300  0.02332600  1
  C  752  1  0.72064800  0.65012100  0.01553100  1
  C  753  1  0.75683900  0.65484900  0.02059000  1
  C  754  1  0.77594000  0.64430400  0.03243400  1
  C  755  1  0.75715000  0.62848000  0.03840700  1
  C  763  1  0.59140700  0.46251600  0.36212500  1
  C  764  1  0.60870100  0.48453500  0.37924600  1
  C  765  1  0.64528400  0.48464800  0.38380100  1
  C  766  1  0.66500300  0.46258000  0.37091500  1
  C  768  1  0.61191500  0.44077800  0.35064300  1
  C  769  1  0.70265700  0.46159000  0.37034300  1
  C  770  1  0.72095000  0.43917400  0.35577800  1
  C  771  1  0.75713700  0.43953400  0.35104900  1
  C  772  1  0.77620900  0.46193600  0.36157500  1
  C  773  1  0.75737300  0.48372100  0.37736700  1
  C  781  1  0.59134000  0.97335300  0.54307500  1
  C  782  1  0.60868200  0.96847700  0.52107800  1
  C  783  1  0.64526900  0.97293500  0.52100000  1
  C  784  1  0.66493900  0.98211300  0.54308800  1
  C  786  1  0.61183500  0.98355500  0.56481800  1
  C  787  1  0.70259100  0.98262300  0.54408900  1
  C  788  1  0.72086800  0.99046300  0.56651300  1
  C  789  1  0.75705200  0.98537700  0.56617600  1
  C  790  1  0.77613300  0.97349300  0.54378000  1
  C  791  1  0.75735600  0.96755000  0.52198900  1
  C  799  1  0.09130500  0.40940000  0.92608200  1
  C  800  1  0.10860500  0.42653900  0.92121800  1
  C  801  1  0.14518300  0.43110000  0.92567400  1
  C  802  1  0.16489400  0.41818300  0.93482500  1
  C  804  1  0.11185800  0.39779400  0.93619200  1
  C  805  1  0.20254500  0.41769900  0.93533200  1
  C  806  1  0.22085400  0.40322200  0.94328700  1
  C  807  1  0.25703200  0.39845500  0.93818900  1
  C  808  1  0.27609600  0.40886800  0.92620000  1
  C  809  1  0.25726800  0.42459200  0.92011600  1
  C  817  1  0.09116700  0.59028300  0.59607500  1
  C  818  1  0.10856800  0.56829300  0.57900200  1
  C  819  1  0.14517500  0.56822400  0.57453700  1
  C  820  1  0.16481900  0.59031600  0.58749300  1
  C  822  1  0.11165200  0.61203200  0.60767500  1
  C  823  1  0.20247300  0.59135200  0.58810700  1
  C  824  1  0.22071100  0.61377900  0.60274300  1
  C  825  1  0.25690000  0.61345500  0.60747900  1
  C  826  1  0.27601400  0.59107200  0.59693200  1
  C  827  1  0.25723900  0.56927300  0.58109800  1
  C  835  1  0.09136300  0.07932100  0.41531500  1
  C  836  1  0.10870000  0.08416900  0.43730300  1
  C  837  1  0.14530500  0.07977100  0.43737800  1
  C  838  1  0.16498900  0.07067800  0.41530500  1
  C  840  1  0.11183200  0.06914700  0.39356300  1
  C  841  1  0.20263800  0.07030800  0.41429300  1
  C  842  1  0.22089100  0.06249200  0.39186700  1
  C  843  1  0.25706100  0.06761800  0.39220900  1
  C  844  1  0.27615700  0.07950300  0.41460000  1
  C  845  1  0.25736600  0.08547000  0.43639400  1
  C  853  1  0.28121000  0.59188300  0.92398900  1
  C  854  1  0.26376000  0.57012300  0.91972600  1
  C  855  1  0.22696100  0.57010300  0.92355000  1
  C  856  1  0.20723500  0.59199000  0.93144800  1
  C  858  1  0.26052700  0.61340500  0.93262200  1
  C  859  1  0.16960200  0.59304200  0.93194000  1
  C  860  1  0.15142000  0.61531000  0.93885500  1
  C  861  1  0.11499600  0.61490200  0.93449100  1
  C  862  1  0.09564500  0.59263700  0.92422800  1
  C  863  1  0.11447900  0.57102700  0.91884900  1
  C  871  1  0.28109400  0.08182900  0.59971900  1
  C  872  1  0.26359300  0.08610300  0.58225000  1
  C  873  1  0.22677300  0.08232700  0.57848800  1
  C  874  1  0.20710500  0.07446600  0.59253100  1
  C  876  1  0.26045600  0.07329100  0.61271100  1
  C  877  1  0.16947500  0.07398700  0.59315700  1
  C  878  1  0.15136200  0.06700700  0.60848500  1
  C  879  1  0.11494300  0.07136000  0.61249100  1
  C  880  1  0.09551500  0.08165300  0.60054900  1
  C  881  1  0.11430100  0.08713100  0.58437000  1
  C  889  1  0.28097700  0.40583000  0.41387500  1
  C  890  1  0.26343600  0.42320300  0.43564900  1
  C  891  1  0.22662000  0.42696900  0.43564400  1
  C  892  1  0.20696700  0.41300900  0.41371600  1
  C  894  1  0.26036300  0.39295600  0.39231200  1
  C  895  1  0.16933700  0.41231200  0.41260800  1
  C  896  1  0.15124000  0.39694400  0.39030900  1
  C  897  1  0.11482900  0.39292000  0.39065900  1
  C  898  1  0.09540700  0.40484600  0.41289600  1
  C  899  1  0.11417400  0.42107100  0.43454800  1
  C  907  1  0.78118700  0.46122800  0.03448400  1
  C  908  1  0.76370500  0.48299500  0.03880800  1
  C  909  1  0.72689600  0.48300000  0.03501300  1
  C  910  1  0.70720100  0.46109600  0.02709600  1
  C  912  1  0.76056300  0.43967400  0.02579000  1
  C  913  1  0.66957100  0.46001500  0.02671500  1
  C  914  1  0.65144500  0.43771900  0.01975600  1
  C  915  1  0.61504100  0.43809300  0.02416300  1
  C  916  1  0.59564600  0.46034400  0.03449500  1
  C  917  1  0.61444500  0.48198900  0.03994000  1
  C  925  1  0.78081600  0.97117700  0.35840000  1
  C  926  1  0.76340700  0.96691000  0.37590500  1
  C  927  1  0.72661500  0.97074800  0.37978000  1
  C  928  1  0.70687000  0.97867800  0.36582400  1
  C  930  1  0.76012500  0.97984200  0.34554500  1
  C  931  1  0.66923700  0.97919600  0.36530200  1
  C  932  1  0.65103400  0.98617100  0.35000300  1
  C  933  1  0.61461200  0.98179300  0.34603900  1
  C  934  1  0.59528300  0.97146300  0.35798700  1
  C  935  1  0.61413300  0.96605400  0.37419200  1
  C  943  1  0.78108700  0.64707900  0.54436600  1
  C  944  1  0.76358200  0.62964200  0.52260900  1
  C  945  1  0.72676400  0.62587100  0.52260600  1
  C  946  1  0.70708200  0.63989000  0.54450700  1
  C  948  1  0.76042500  0.66005900  0.56588700  1
  C  949  1  0.66945200  0.64050300  0.54560400  1
  C  950  1  0.65132000  0.65585900  0.56789700  1
  C  951  1  0.61489000  0.65982200  0.56753400  1
  C  952  1  0.59546800  0.64780800  0.54529900  1
  C  953  1  0.61427300  0.63161200  0.52366000  1
  C  961  1  0.88686200  0.68140100  0.02508000  1
  C  962  1  0.92416600  0.68019300  0.02588700  1
  C  963  1  0.94514100  0.68448300  0.00996100  1
  C  964  1  0.92841400  0.68877400  0.99224300  1
  C  966  1  0.87191400  0.68993600  0.01001700  1
  C  967  1  0.94343000  0.67674700  0.96854300  1
  C  968  1  0.97904000  0.68075900  0.96463800  1
  C  969  1  0.99913000  0.66071700  0.94719200  1
  C  970  1  0.98393600  0.63691100  0.93407900  1
  C  971  1  0.94719200  0.63458900  0.93640800  1
  C  979  1  0.88699700  0.41746200  0.32429000  1
  C  980  1  0.92429500  0.41941200  0.32554100  1
  C  981  1  0.94521300  0.39911800  0.32110800  1
  C  982  1  0.92841400  0.37714900  0.31692900  1
  C  984  1  0.87197300  0.39387800  0.31564400  1
  C  985  1  0.94342200  0.36522400  0.32867600  1
  C  986  1  0.97906300  0.35737400  0.32464700  1
  C  987  1  0.99912400  0.35984900  0.34466000  1
  C  988  1  0.98385400  0.37037300  0.36843400  1
  C  989  1  0.94706300  0.37484800  0.37070800  1
  C  997  1  0.88681000  0.98040700  0.58831800  1
  C  998  1  0.92411800  0.97952000  0.58636300  1
  C  999  1  0.94507600  0.99542300  0.60661800  1
  C  1000  1  0.92833900  0.01325600  0.62860400  1
  C  1002  1  0.87184100  0.99548600  0.61189400  1
  C  1003  1  0.94356800  0.03684100  0.63994200  1
  C  1004  1  0.97913600  0.04086900  0.64799900  1
  C  1005  1  0.99916100  0.05845800  0.64558900  1
  C  1006  1  0.98391200  0.07162300  0.63497100  1
  C  1007  1  0.94714500  0.06935300  0.63041200  1
  C  1015  1  0.38683300  0.37134000  0.93321100  1
  C  1016  1  0.42414800  0.37233500  0.93222300  1
  C  1017  1  0.44519700  0.36798600  0.94808200  1
  C  1018  1  0.42851200  0.36393700  0.96597400  1
  C  1020  1  0.37191800  0.36300200  0.94844400  1
  C  1021  1  0.44359600  0.37622300  0.98962200  1
  C  1022  1  0.47914400  0.37218700  0.99368700  1
  C  1023  1  0.49918300  0.39219300  0.01125300  1
  C  1024  1  0.48397200  0.41598500  0.02440800  1
  C  1025  1  0.44724200  0.41830300  0.02205200  1
  C  1033  1  0.38690200  0.63554300  0.63410200  1
  C  1034  1  0.42420900  0.63354700  0.63290000  1
  C  1035  1  0.44516200  0.65378700  0.63723700  1
  C  1036  1  0.42841100  0.67580200  0.64156900  1
  C  1038  1  0.37193100  0.65914200  0.64268200  1
  C  1039  1  0.44339500  0.68750500  0.62955800  1
  C  1040  1  0.47900900  0.69541600  0.63354600  1
  C  1041  1  0.49905600  0.69284200  0.61349500  1
  C  1042  1  0.48381500  0.68217200  0.58970600  1
  C  1043  1  0.44706700  0.67753500  0.58741300  1
  C  1051  1  0.38688900  0.07233400  0.37007400  1
  C  1052  1  0.42419300  0.07309000  0.37202000  1
  C  1053  1  0.44508800  0.05711000  0.35176700  1
  C  1054  1  0.42828900  0.03927200  0.32982300  1
  C  1056  1  0.37186200  0.05734800  0.34650100  1
  C  1057  1  0.44328600  0.01559700  0.31796300  1
  C  1058  1  0.47892700  0.01175700  0.31011100  1
  C  1059  1  0.49899800  0.99427600  0.31267200  1
  C  1060  1  0.48373600  0.98108900  0.32326500  1
  C  1061  1  0.44694500  0.98329200  0.32773700  1
  C  1069  1  0.98281100  0.36964300  0.93279400  1
  C  1070  1  0.94545500  0.37061300  0.93251400  1
  C  1071  1  0.92542200  0.36590600  0.94855600  1
  C  1072  1  0.94316500  0.36160900  0.96598600  1
  C  1074  1  0.99875200  0.36069200  0.94720600  1
  C  1075  1  0.92919500  0.37421100  0.98997100  1
  C  1076  1  0.89371800  0.37090400  0.99488500  1
  C  1077  1  0.87460200  0.39142400  0.01254700  1
  C  1078  1  0.89072200  0.41495900  0.02501800  1
  C  1079  1  0.92748000  0.41652600  0.02209500  1
  C  1087  1  0.98261600  0.63665400  0.63585300  1
  C  1088  1  0.94525100  0.63538600  0.63495200  1
  C  1089  1  0.92513400  0.65613100  0.63978200  1
  C  1090  1  0.94283700  0.67784700  0.64408200  1
  C  1092  1  0.99851900  0.66003100  0.64477700  1
  C  1093  1  0.92909200  0.68928700  0.63145200  1
  C  1094  1  0.89363800  0.69755100  0.63472500  1
  C  1095  1  0.87456300  0.69466600  0.61417900  1
  C  1096  1  0.89069700  0.68357400  0.59065100  1
  C  1097  1  0.92741500  0.67898700  0.58909900  1
  C  1105  1  0.98273400  0.07267800  0.36898400  1
  C  1106  1  0.94538200  0.07292400  0.37030300  1
  C  1107  1  0.92530200  0.05695600  0.34956700  1
  C  1108  1  0.94299900  0.03970000  0.32777200  1
  C  1110  1  0.99863800  0.05835300  0.34558700  1
  C  1111  1  0.92920400  0.01561100  0.31594100  1
  C  1112  1  0.89369100  0.01087100  0.30783200  1
  C  1113  1  0.87447200  0.99326800  0.31071500  1
  C  1114  1  0.89048600  0.98074900  0.32176700  1
  C  1115  1  0.92721200  0.98369700  0.32638100  1
  C  1123  1  0.48250600  0.68294100  0.02536900  1
  C  1124  1  0.44515700  0.68186800  0.02551000  1
  C  1125  1  0.42520800  0.68659400  0.00945200  1
  C  1126  1  0.44303200  0.69093500  0.99208200  1
  C  1128  1  0.49852900  0.69207000  0.01114000  1
  C  1129  1  0.42931200  0.67887600  0.96800500  1
  C  1130  1  0.39376400  0.68220600  0.96330400  1
  C  1131  1  0.37457300  0.66167300  0.94572500  1
  C  1132  1  0.39068000  0.63813300  0.93320100  1
  C  1133  1  0.42746500  0.63655900  0.93601700  1
  C  1141  1  0.48286700  0.41607800  0.32242600  1
  C  1142  1  0.44551200  0.41733700  0.32338100  1
  C  1143  1  0.42545700  0.39659700  0.31867600  1
  C  1144  1  0.44317500  0.37486600  0.31438800  1
  C  1146  1  0.49879100  0.39271500  0.31350100  1
  C  1147  1  0.42915000  0.36346800  0.32695900  1
  C  1148  1  0.39366400  0.35526100  0.32362100  1
  C  1149  1  0.37450900  0.35809500  0.34411800  1
  C  1150  1  0.39060100  0.36913200  0.36765900  1
  C  1151  1  0.42736500  0.37360200  0.36925600  1
  C  1159  1  0.48276100  0.97994500  0.58942000  1
  C  1160  1  0.44539800  0.97956600  0.58811800  1
  C  1161  1  0.42525000  0.99551000  0.60883400  1
  C  1162  1  0.44292100  0.01296000  0.63055100  1
  C  1164  1  0.49862700  0.99444300  0.61280200  1
  C  1165  1  0.42915300  0.03702000  0.64195200  1
  C  1166  1  0.39370300  0.04200900  0.65022200  1
  C  1167  1  0.37461500  0.05966200  0.64733400  1
  C  1168  1  0.39072800  0.07208000  0.63621500  1
  C  1169  1  0.42744100  0.06904100  0.63160800  1
  C  1177  1  0.85850000  0.55572900  0.15025200  1
  C  1178  1  0.88783600  0.57171300  0.16016800  1
  C  1179  1  0.88549700  0.59623000  0.16540000  1
  C  1180  1  0.85374400  0.60482900  0.16025300  1
  C  1182  1  0.82660600  0.56550600  0.14697700  1
  C  1183  1  0.85201300  0.62724700  0.15978400  1
  C  1184  1  0.82047000  0.63577900  0.15430700  1
  C  1185  1  0.82202700  0.65501500  0.14894400  1
  C  1186  1  0.85475400  0.66617500  0.14944000  1
  C  1187  1  0.88526800  0.65800000  0.15624200  1
  C  1195  1  0.85890600  0.66814900  0.44985000  1
  C  1196  1  0.88817100  0.66207000  0.43380200  1
  C  1197  1  0.88570700  0.64283600  0.40926800  1
  C  1198  1  0.85391100  0.62913100  0.40070700  1
  C  1200  1  0.82695600  0.65516400  0.44011000  1
  C  1201  1  0.85208200  0.60625200  0.37828800  1
  C  1202  1  0.82050700  0.59226800  0.36982400  1
  C  1203  1  0.82199700  0.56766600  0.35059200  1
  C  1204  1  0.85467900  0.55697500  0.33935900  1
  C  1205  1  0.88520800  0.57194200  0.34744800  1
  C  1213  1  0.85832300  0.85556700  0.33743600  1
  C  1214  1  0.88760000  0.84562500  0.34353400  1
  C  1215  1  0.88516900  0.84039800  0.36281900  1
  C  1216  1  0.85337800  0.84556000  0.37653100  1
  C  1218  1  0.82640500  0.85888000  0.35047200  1
  C  1219  1  0.85158500  0.84597300  0.39938600  1
  C  1220  1  0.82002100  0.85149400  0.41338600  1
  C  1221  1  0.82150900  0.85682000  0.43797500  1
  C  1222  1  0.85419700  0.85625400  0.44864200  1
  C  1223  1  0.88471500  0.84935100  0.43366800  1
  C  1231  1  0.35841800  0.49714100  0.80824900  1
  C  1232  1  0.38770200  0.48111100  0.79829900  1
  C  1233  1  0.38529900  0.45659300  0.79305500  1
  C  1234  1  0.35352700  0.44803600  0.79823000  1
  C  1236  1  0.32652200  0.48740900  0.81158900  1
  C  1237  1  0.35173600  0.42559600  0.79865000  1
  C  1238  1  0.32017100  0.41710100  0.80415100  1
  C  1239  1  0.32167300  0.39784800  0.80949300  1
  C  1240  1  0.35436400  0.38662300  0.80894200  1
  C  1241  1  0.38488300  0.39472900  0.80207700  1
  C  1249  1  0.35848400  0.38464700  0.50842800  1
  C  1250  1  0.38780300  0.39070800  0.52442700  1
  C  1251  1  0.38546000  0.40999400  0.54894300  1
  C  1252  1  0.35371800  0.42375400  0.55753100  1
  C  1254  1  0.32659900  0.39771700  0.51820000  1
  C  1255  1  0.35199500  0.44664800  0.57994100  1
  C  1256  1  0.32045900  0.46066700  0.58846300  1
  C  1257  1  0.32202800  0.48527100  0.60768300  1
  C  1258  1  0.35475900  0.49593200  0.61883700  1
  C  1259  1  0.38526400  0.48094600  0.61067500  1
  C  1267  1  0.35868600  0.19746800  0.62087100  1
  C  1268  1  0.38797200  0.20742100  0.61479900  1
  C  1269  1  0.38554300  0.21269800  0.59554800  1
  C  1270  1  0.35376000  0.20755100  0.58182600  1
  C  1272  1  0.32674400  0.19422800  0.60788000  1
  C  1273  1  0.35196600  0.20707000  0.55893700  1
  C  1274  1  0.32040400  0.20155200  0.54494000  1
  C  1275  1  0.32192200  0.19618100  0.52033700  1
  C  1276  1  0.35461900  0.19671700  0.50966000  1
  C  1277  1  0.38513500  0.20358700  0.52463600  1
  C  1285  1  0.01718700  0.38491100  0.80788500  1
  C  1286  1  0.98724300  0.39049500  0.79806300  1
  C  1287  1  0.98835700  0.40990400  0.79296500  1
  C  1288  1  0.01947300  0.42428900  0.79817200  1
  C  1290  1  0.04840700  0.39864000  0.81125000  1
  C  1291  1  0.01988400  0.44724800  0.79874600  1
  C  1292  1  0.05072600  0.46197400  0.80443200  1
  C  1293  1  0.04788500  0.48657300  0.80994600  1
  C  1294  1  0.01455300  0.49653400  0.80941200  1
  C  1295  1  0.98479100  0.48085800  0.80229800  1
  C  1303  1  0.01740900  0.19762900  0.50898100  1
  C  1304  1  0.98741100  0.20749100  0.52432100  1
  C  1305  1  0.98839500  0.21264700  0.54884500  1
  C  1306  1  0.01942800  0.20744600  0.55810500  1
  C  1308  1  0.04855300  0.19426200  0.51942000  1
  C  1309  1  0.01972200  0.20690300  0.58050600  1
  C  1310  1  0.05050300  0.20126500  0.58964300  1
  C  1311  1  0.04754100  0.19577000  0.60873300  1
  C  1312  1  0.01415300  0.19629600  0.61916000  1
  C  1313  1  0.98444900  0.20334100  0.61048500  1
  C  1321  1  0.01685500  0.49652400  0.62057600  1
  C  1322  1  0.98683000  0.48119100  0.61501300  1
  C  1323  1  0.98781900  0.45668000  0.59561100  1
  C  1324  1  0.01889000  0.44742500  0.58119900  1
  C  1326  1  0.04802600  0.48608200  0.60680600  1
  C  1327  1  0.01924300  0.42503500  0.55823700  1
  C  1328  1  0.05007400  0.41590000  0.54352100  1
  C  1329  1  0.04718900  0.39678900  0.51894400  1
  C  1330  1  0.01382700  0.38635000  0.50899100  1
  C  1331  1  0.98405300  0.39506100  0.52464800  1
  C  1339  1  0.51663400  0.66774400  0.15035500  1
  C  1340  1  0.48671100  0.66223500  0.16025600  1
  C  1341  1  0.48785100  0.64290200  0.16546400  1
  C  1342  1  0.51895700  0.62851100  0.16028300  1
  C  1344  1  0.54787300  0.65405100  0.14705000  1
  C  1345  1  0.51940500  0.60556900  0.15974400  1
  C  1346  1  0.55027400  0.59088500  0.15414700  1
  C  1347  1  0.54744600  0.56630400  0.14868700  1
  C  1348  1  0.51412200  0.55632400  0.14920800  1
  C  1349  1  0.48432900  0.57197000  0.15620800  1
  C  1357  1  0.51738400  0.85505300  0.44935300  1
  C  1358  1  0.48739200  0.84528800  0.43398400  1
  C  1359  1  0.48845200  0.84018800  0.40947500  1
  C  1360  1  0.51954800  0.84538200  0.40026800  1
  C  1362  1  0.54857500  0.85841500  0.43895600  1
  C  1363  1  0.51991700  0.84595000  0.37787900  1
  C  1364  1  0.55073700  0.85162800  0.36881300  1
  C  1365  1  0.54786500  0.85711700  0.34971300  1
  C  1366  1  0.51451900  0.85656400  0.33922600  1
  C  1367  1  0.48477400  0.84946500  0.34781800  1
  C  1375  1  0.51708100  0.55618500  0.33757100  1
  C  1376  1  0.48709000  0.57154000  0.34309000  1
  C  1377  1  0.48809400  0.59605600  0.36248300  1
  C  1378  1  0.51914600  0.60528900  0.37692900  1
  C  1380  1  0.54823900  0.56660900  0.35136700  1
  C  1381  1  0.51946600  0.62767100  0.39989500  1
  C  1382  1  0.55025800  0.63677200  0.41466300  1
  C  1383  1  0.54732200  0.65584100  0.43926000  1
  C  1384  1  0.51394700  0.66628200  0.44918000  1
  C  1385  1  0.48423100  0.65764100  0.43346700  1
  N  8  1  0.83383000  0.64251000  0.00092000  1
  N  15  1  0.87633500  0.71719300  0.17932500  1
  N  30  1  0.83417900  0.43220200  0.36326900  1
  N  37  1  0.87607800  0.53572400  0.28828900  1
  N  52  1  0.83422500  0.00478400  0.57352600  1
  N  59  1  0.87547200  0.82626400  0.46972700  1
  N  74  1  0.33420600  0.41050100  0.95750100  1
  N  81  1  0.37575700  0.33556700  0.77899400  1
  N  96  1  0.33389300  0.62083900  0.59520400  1
  N  103  1  0.37630900  0.51707700  0.66985800  1
  N  118  1  0.33412600  0.04809300  0.38485300  1
  N  125  1  0.37605700  0.22657700  0.48846300  1
  N  140  1  0.03986000  0.62350200  0.95720500  1
  N  147  1  0.99236700  0.51758600  0.77959200  1
  N  162  1  0.03982800  0.04862200  0.59844000  1
  N  169  1  0.99167200  0.22613700  0.66996600  1
  N  184  1  0.03974600  0.40697600  0.38198400  1
  N  191  1  0.99141400  0.33553100  0.48802700  1
  N  206  1  0.53995300  0.42949200  0.00143500  1
  N  213  1  0.49167400  0.53525600  0.17896800  1
  N  228  1  0.53937000  0.00433400  0.36002400  1
  N  235  1  0.49233400  0.82667400  0.28835900  1
  N  250  1  0.53987900  0.64573300  0.57628700  1
  N  257  1  0.49156000  0.71710900  0.47017700  1
  N  272  1  0.03495500  0.40906300  0.95747200  1
  N  279  1  0.00210000  0.33269300  0.77786600  1
  N  294  1  0.03466900  0.62191800  0.59638800  1
  N  301  1  0.00202700  0.51876100  0.67283800  1
  N  316  1  0.03485700  0.04795700  0.38368200  1
  N  323  1  0.00270500  0.22761900  0.48669500  1
  N  338  1  0.53481000  0.64364900  0.00074800  1
  N  345  1  0.50169000  0.71999000  0.18031200  1
  N  360  1  0.53499300  0.43085900  0.36186000  1
  N  367  1  0.50219000  0.53393300  0.28531900  1
  N  382  1  0.53479700  0.00466900  0.57466500  1
  N  389  1  0.50235500  0.82502600  0.47155900  1
  N  404  1  0.83549800  0.42855400  0.00158200  1
  N  411  1  0.87429000  0.53354500  0.18016700  1
  N  426  1  0.83503100  0.00410000  0.35860600  1
  N  433  1  0.87428100  0.82559700  0.28537400  1
  N  448  1  0.83514000  0.64677500  0.57711100  1
  N  455  1  0.87499000  0.72020400  0.47207300  1
  N  470  1  0.33553100  0.62463700  0.95677100  1
  N  477  1  0.37418100  0.51919900  0.77821400  1
  N  492  1  0.33523600  0.04879500  0.59937400  1
  N  499  1  0.37464700  0.22730400  0.67294700  1
  N  514  1  0.33525000  0.40606500  0.38120900  1
  N  521  1  0.37432400  0.33255800  0.48626300  1
  N  533  1  0.87907900  0.78813500  0.17467200  1
  N  540  1  0.93129400  0.81869800  0.22783800  1
  N  551  1  0.87898100  0.46012200  0.21748300  1
  N  558  1  0.93122800  0.48273300  0.18690100  1
  N  569  1  0.87871900  0.83088300  0.54534400  1
  N  576  1  0.93150000  0.77777100  0.52283300  1
  N  587  1  0.37878600  0.26457300  0.78359400  1
  N  594  1  0.43138400  0.23405400  0.73049500  1
  N  605  1  0.37898200  0.59261600  0.74077600  1
  N  612  1  0.43113500  0.56994000  0.77130900  1
  N  623  1  0.37903800  0.22184100  0.41286300  1
  N  630  1  0.43125700  0.27504000  0.43551500  1
  N  641  1  0.99207100  0.59282200  0.78416900  1
  N  648  1  0.94315500  0.56970500  0.72945000  1
  N  659  1  0.99124100  0.22159300  0.74071000  1
  N  666  1  0.94263700  0.27630600  0.77216500  1
  N  677  1  0.99171100  0.26475800  0.41281300  1
  N  684  1  0.94316500  0.23323100  0.43592300  1
  N  695  1  0.49127100  0.45994000  0.17429000  1
  N  702  1  0.44271400  0.48316700  0.22894200  1
  N  713  1  0.49191200  0.83116400  0.21761000  1
  N  720  1  0.44278800  0.77654000  0.18603000  1
  N  731  1  0.49139600  0.78783100  0.54547900  1
  N  738  1  0.44287300  0.81938600  0.52229600  1
  N  749  1  0.64671800  0.65077500  0.01893100  1
  N  756  1  0.72172400  0.62525300  0.03427500  1
  N  767  1  0.64701700  0.44184200  0.35504000  1
  N  774  1  0.72194700  0.48279300  0.38057200  1
  N  785  1  0.64693000  0.98696100  0.56380800  1
  N  792  1  0.72192500  0.97165700  0.52290200  1
  N  803  1  0.14694500  0.40223700  0.93960200  1
  N  810  1  0.22184500  0.42781200  0.92424800  1
  N  821  1  0.14677500  0.61102400  0.60336100  1
  N  828  1  0.22181300  0.57016800  0.57786600  1
  N  839  1  0.14695600  0.06585300  0.39459700  1
  N  846  1  0.22195400  0.08129700  0.43548600  1
  N  857  1  0.22530000  0.61245400  0.93555500  1
  N  864  1  0.15008200  0.57195800  0.92234600  1
  N  875  1  0.22521500  0.07039300  0.60889400  1
  N  882  1  0.14989700  0.08363300  0.58174500  1
  N  893  1  0.22510900  0.39673700  0.39325100  1
  N  900  1  0.14976400  0.42373300  0.43367100  1
  N  911  1  0.72531700  0.44063300  0.02294400  1
  N  918  1  0.65003000  0.48109300  0.03638400  1
  N  929  1  0.72490600  0.98279200  0.34946100  1
  N  936  1  0.64973300  0.96955600  0.37675500  1
  N  947  1  0.72518400  0.65624100  0.56495500  1
  N  954  1  0.64987900  0.62902600  0.52454500  1
  N  965  1  0.89258600  0.69132700  0.99310200  1
  N  972  1  0.92926800  0.65395900  0.95416900  1
  N  983  1  0.89257700  0.37556700  0.31428400  1
  N  990  1  0.92916900  0.37337200  0.35138700  1
  N  1001  1  0.89251500  0.01235500  0.63021500  1
  N  1008  1  0.92935600  0.05142600  0.63180400  1
  N  1019  1  0.39266500  0.36155100  0.96528600  1
  N  1026  1  0.42942600  0.39897700  0.00415400  1
  N  1037  1  0.39258300  0.67747400  0.64411900  1
  N  1044  1  0.42918800  0.67912400  0.60679000  1
  N  1055  1  0.39245800  0.04034300  0.32822500  1
  N  1062  1  0.42904200  0.00109300  0.32618700  1
  N  1073  1  0.97898100  0.35898900  0.96430400  1
  N  1080  1  0.94429700  0.39674200  0.00402500  1
  N  1091  1  0.97868500  0.67885500  0.64658500  1
  N  1098  1  0.94420600  0.68073600  0.60890700  1
  N  1109  1  0.97883200  0.04129700  0.32675700  1
  N  1116  1  0.94420700  0.00166400  0.32458300  1
  N  1127  1  0.47885500  0.69368700  0.99395000  1
  N  1134  1  0.44442600  0.65634600  0.95397900  1
  N  1145  1  0.47899500  0.37392000  0.31179200  1
  N  1152  1  0.44422200  0.37191000  0.34949400  1
  N  1163  1  0.47876500  0.01147900  0.63159300  1
  N  1170  1  0.44424800  0.05099600  0.63337200  1
  N  1181  1  0.82582900  0.58897200  0.15141200  1
  N  1188  1  0.88279500  0.63893000  0.16052400  1
  N  1199  1  0.82607300  0.63617100  0.41662900  1
  N  1206  1  0.88280900  0.59529400  0.36652400  1
  N  1217  1  0.82551700  0.85440600  0.36947500  1
  N  1224  1  0.88230500  0.84513200  0.41033700  1
  N  1235  1  0.32566100  0.46393100  0.80710900  1
  N  1242  1  0.38246600  0.41382500  0.79783500  1
  N  1253  1  0.32581700  0.41674700  0.54166400  1
  N  1260  1  0.38278200  0.45758800  0.59161900  1
  N  1271  1  0.32589900  0.19869200  0.58887100  1
  N  1278  1  0.38271000  0.20786900  0.54799000  1
  N  1289  1  0.04801500  0.41774300  0.80691900  1
  N  1296  1  0.98850600  0.45753400  0.79790900  1
  N  1307  1  0.04803100  0.19864100  0.54287100  1
  N  1314  1  0.98827800  0.20772100  0.59155000  1
  N  1325  1  0.04750100  0.46265500  0.58769000  1
  N  1332  1  0.98781000  0.41400500  0.54796600  1
  N  1343  1  0.54747000  0.63499100  0.15144700  1
  N  1350  1  0.48801800  0.59528500  0.16056300  1
  N  1361  1  0.54812700  0.85410300  0.41552900  1
  N  1368  1  0.48852100  0.84509900  0.36676600  1
  N  1379  1  0.54774000  0.59004600  0.37046200  1
  N  1386  1  0.48803300  0.63872700  0.41014100  1
