# generated using pymatgen
data_H21(C13N)2
_symmetry_space_group_name_H-M   'P 1'
_cell_length_a   9.94660000
_cell_length_b   47.68890000
_cell_length_c   47.68890000
_cell_angle_alpha   90.00000000
_cell_angle_beta   90.00000000
_cell_angle_gamma   90.00010000
_symmetry_Int_Tables_number   1
_chemical_formula_structural   H21(C13N)2
_chemical_formula_sum   'H336 C416 N32'
_cell_volume   22620.86788688
_cell_formula_units_Z   16
loop_
 _symmetry_equiv_pos_site_id
 _symmetry_equiv_pos_as_xyz
  1  'x, y, z'
loop_
 _atom_site_type_symbol
 _atom_site_label
 _atom_site_symmetry_multiplicity
 _atom_site_fract_x
 _atom_site_fract_y
 _atom_site_fract_z
 _atom_site_occupancy
  C  1  1  0.00337700  0.03858600  0.98207000  1
  C  2  1  0.89396100  0.05371600  0.99420100  1
  C  3  1  0.89447700  0.08357800  0.99408800  1
  C  4  1  0.00342900  0.09798200  0.98182500  1
  C  5  1  0.11231700  0.08347400  0.96968400  1
  C  6  1  0.11278100  0.05361900  0.96981600  1
  C  7  1  0.78752500  0.03830000  0.00640500  1
  C  8  1  0.21925700  0.03812400  0.95774400  1
  C  10  1  0.00337700  0.00851100  0.98218800  1
  C  11  1  0.89397300  0.99347900  0.99444400  1
  C  12  1  0.89447700  0.96362500  0.99459100  1
  C  13  1  0.00332500  0.94911700  0.98244100  1
  C  14  1  0.11227700  0.96351900  0.97017000  1
  C  15  1  0.11278100  0.99338100  0.97005500  1
  C  16  1  0.78747300  0.00897300  0.00650700  1
  C  18  1  0.21920900  0.00879700  0.95784700  1
  C  23  1  0.21743700  0.09921500  0.95896600  1
  C  24  1  0.21777700  0.94769800  0.95972100  1
  C  25  1  0.78936500  0.94788800  0.00531100  1
  C  26  1  0.78896100  0.09939800  0.00453700  1
  C  31  1  0.00330933  0.50850400  0.98216700  1
  C  32  1  0.89388100  0.49338500  0.97003000  1
  C  33  1  0.89436500  0.46352300  0.97012600  1
  C  34  1  0.00328933  0.44910900  0.98239500  1
  C  35  1  0.11217730  0.46360700  0.99454300  1
  C  36  1  0.11269330  0.49346300  0.99441700  1
  C  37  1  0.78746500  0.50881000  0.95783000  1
  C  38  1  0.21918130  0.50894700  0.00649500  1
  C  40  1  0.00334933  0.53858000  0.98205800  1
  C  41  1  0.89396500  0.55362200  0.96980800  1
  C  42  1  0.89448500  0.58347600  0.96967800  1
  C  43  1  0.00336933  0.59797600  0.98182700  1
  C  44  1  0.11230930  0.58356400  0.99408800  1
  C  45  1  0.11277330  0.55370100  0.99419700  1
  C  46  1  0.78745300  0.53813800  0.95773300  1
  C  48  1  0.21918930  0.53827400  0.00639700  1
  C  53  1  0.21726130  0.44785700  0.00525900  1
  C  54  1  0.21782130  0.59937700  0.00454700  1
  C  55  1  0.78939300  0.59922300  0.95896000  1
  C  56  1  0.78883300  0.44771200  0.95967100  1
  C  61  1  0.98214900  0.27869400  0.74718200  1
  C  62  1  0.87694100  0.26421900  0.76156400  1
  C  63  1  0.86567700  0.26637000  0.79125500  1
  C  64  1  0.95484100  0.28397000  0.80603800  1
  C  65  1  0.05784850  0.29874500  0.79217500  1
  C  66  1  0.07381250  0.29570800  0.76269900  1
  C  67  1  0.78433300  0.24846200  0.74553500  1
  C  68  1  0.17796850  0.30958800  0.74806400  1
  C  70  1  0.99320050  0.27696600  0.71725800  1
  C  71  1  0.89575300  0.26164400  0.70152100  1
  C  72  1  0.90382100  0.26101000  0.67173000  1
  C  73  1  0.01152450  0.27450400  0.65804300  1
  C  74  1  0.11081250  0.28917600  0.67322500  1
  C  75  1  0.10004450  0.29098600  0.70296000  1
  C  76  1  0.79250500  0.24750600  0.71624100  1
  C  78  1  0.19192450  0.30694400  0.71900700  1
  C  83  1  0.12665650  0.31877700  0.80739700  1
  C  84  1  0.21902050  0.30018500  0.65852800  1
  C  85  1  0.80269700  0.24993900  0.65522100  1
  C  86  1  0.76355700  0.25412000  0.80670500  1
  C  91  1  0.98242500  0.26847400  0.21706900  1
  C  92  1  0.87727300  0.28295600  0.20267800  1
  C  93  1  0.86618500  0.28084200  0.17298200  1
  C  94  1  0.95536900  0.26323400  0.15820900  1
  C  95  1  0.05843320  0.24847400  0.17207300  1
  C  96  1  0.07417720  0.25147700  0.20155600  1
  C  97  1  0.78455700  0.29868900  0.21870300  1
  C  98  1  0.17828120  0.23759100  0.21619900  1
  C  100  1  0.99336500  0.27018500  0.24699400  1
  C  101  1  0.89589300  0.28550700  0.26272500  1
  C  102  1  0.90392500  0.28615800  0.29251600  1
  C  103  1  0.01152117  0.27263000  0.30621400  1
  C  104  1  0.11078120  0.25793900  0.29104000  1
  C  105  1  0.10013320  0.25615300  0.26130400  1
  C  106  1  0.79270100  0.29965300  0.24799500  1
  C  108  1  0.19203320  0.24019300  0.24526200  1
  C  113  1  0.12702920  0.22840600  0.15685300  1
  C  114  1  0.21894920  0.24692800  0.30574400  1
  C  115  1  0.80273700  0.29720400  0.30902300  1
  C  116  1  0.76394900  0.29303700  0.15752600  1
  C  121  1  0.02429717  0.76842000  0.21706700  1
  C  122  1  0.12940920  0.78291600  0.20267200  1
  C  123  1  0.14046920  0.78080100  0.17297700  1
  C  124  1  0.05135320  0.76318200  0.15820100  1
  C  125  1  0.94851300  0.74837400  0.17207900  1
  C  126  1  0.93264900  0.75139700  0.20155900  1
  C  127  1  0.22204520  0.79867500  0.21869000  1
  C  128  1  0.82857300  0.73750100  0.21620300  1
  C  130  1  0.01332117  0.77014800  0.24699000  1
  C  131  1  0.11072920  0.78549100  0.26271500  1
  C  132  1  0.10265720  0.78615400  0.29250600  1
  C  133  1  0.99506100  0.77262900  0.30620500  1
  C  134  1  0.89583300  0.75792500  0.29103600  1
  C  135  1  0.90656900  0.75610900  0.26130200  1
  C  136  1  0.21390120  0.79964300  0.24798400  1
  C  138  1  0.81474900  0.74012400  0.24526600  1
  C  143  1  0.87975700  0.72832900  0.15686400  1
  C  144  1  0.78764500  0.74692500  0.30574400  1
  C  145  1  0.20382920  0.79721100  0.30901100  1
  C  146  1  0.24254520  0.79303600  0.15750600  1
  C  151  1  0.02430050  0.77866100  0.74719000  1
  C  152  1  0.12940050  0.76416500  0.76158700  1
  C  153  1  0.14046050  0.76628300  0.79128200  1
  C  154  1  0.05145250  0.78393500  0.80604600  1
  C  155  1  0.94853700  0.79872400  0.79217100  1
  C  156  1  0.93263700  0.79568600  0.76269200  1
  C  157  1  0.22203650  0.74840400  0.74557100  1
  C  158  1  0.82854900  0.80957400  0.74804500  1
  C  160  1  0.01333650  0.77693300  0.71726500  1
  C  161  1  0.11079250  0.76160000  0.70154200  1
  C  162  1  0.10276850  0.76095200  0.67175100  1
  C  163  1  0.99517250  0.77446900  0.65804800  1
  C  164  1  0.89587700  0.78915200  0.67321500  1
  C  165  1  0.90657300  0.79096600  0.70295100  1
  C  166  1  0.21395250  0.74744800  0.71627700  1
  C  168  1  0.81467300  0.80693200  0.71898600  1
  C  173  1  0.87976900  0.81877100  0.80738000  1
  C  174  1  0.78770100  0.80015800  0.65850700  1
  C  175  1  0.20395650  0.74989500  0.65524800  1
  C  176  1  0.24257650  0.75406400  0.80675300  1
  C  181  1  0.99153300  0.53831200  0.48059800  1
  C  182  1  0.89388100  0.55209700  0.49769400  1
  C  183  1  0.86953300  0.58135300  0.49434300  1
  C  184  1  0.94339700  0.59650800  0.47412700  1
  C  185  1  0.04074930  0.58334800  0.45716000  1
  C  186  1  0.06467330  0.55408300  0.46022600  1
  C  187  1  0.82371700  0.53597600  0.51784100  1
  C  188  1  0.15963330  0.53988500  0.44334400  1
  C  190  1  0.01510133  0.50879600  0.48365900  1
  C  191  1  0.94196100  0.49302500  0.50403100  1
  C  192  1  0.96588900  0.46376000  0.50709900  1
  C  193  1  0.06324930  0.45060000  0.49013200  1
  C  194  1  0.13707330  0.46575400  0.46991000  1
  C  195  1  0.11274130  0.49501100  0.46656100  1
  C  196  1  0.84699300  0.50722300  0.52091100  1
  C  198  1  0.18289730  0.51113000  0.44641400  1
  C  203  1  0.10182530  0.59929700  0.43653900  1
  C  204  1  0.23735730  0.45174300  0.45531300  1
  C  205  1  0.90482100  0.44781100  0.52772000  1
  C  206  1  0.76921700  0.59536500  0.50893100  1
  C  211  1  0.99161300  0.00878700  0.48364700  1
  C  212  1  0.89399300  0.99500600  0.46654000  1
  C  213  1  0.86978500  0.96574100  0.46985700  1
  C  214  1  0.94369700  0.95057800  0.49006100  1
  C  215  1  0.04106900  0.96373500  0.50702700  1
  C  216  1  0.06484100  0.99300800  0.50399700  1
  C  217  1  0.82374900  0.01113400  0.44641400  1
  C  218  1  0.15977700  0.00720200  0.52088600  1
  C  220  1  0.01504500  0.03831100  0.48061700  1
  C  221  1  0.94181700  0.05409300  0.46026800  1
  C  222  1  0.96559700  0.08336700  0.45723600  1
  C  223  1  0.06297700  0.09652000  0.47420000  1
  C  224  1  0.13685300  0.08135900  0.49441000  1
  C  225  1  0.11266100  0.05209300  0.49772300  1
  C  226  1  0.84688100  0.03989700  0.44337700  1
  C  228  1  0.18291300  0.03596400  0.51785000  1
  C  233  1  0.10202500  0.94777900  0.52765900  1
  C  234  1  0.23718900  0.09536200  0.50899800  1
  C  235  1  0.90458100  0.09932100  0.43661100  1
  C  236  1  0.76939700  0.95173600  0.45528600  1
  C  241  1  0.28319300  0.91554600  0.92335200  1
  C  242  1  0.42318500  0.91348000  0.92767400  1
  C  243  1  0.50518900  0.89600000  0.91090700  1
  C  244  1  0.44451300  0.88002600  0.88898800  1
  C  245  1  0.30306500  0.88186100  0.88431200  1
  C  246  1  0.22530100  0.89965100  0.90163200  1
  C  248  1  0.52591300  0.86281900  0.87135900  1
  C  249  1  0.55088900  0.83425200  0.87866300  1
  C  250  1  0.63522100  0.81790700  0.86124100  1
  C  251  1  0.69635300  0.82915000  0.83715400  1
  C  252  1  0.66782900  0.85719300  0.82984200  1
  C  253  1  0.58416900  0.87434500  0.84655700  1
  C  257  1  0.49423300  0.82004100  0.90387600  1
  C  261  1  0.56383300  0.90372500  0.83669700  1
  C  265  1  0.22945300  0.86627800  0.86197100  1
  C  269  1  0.65174900  0.89585400  0.91754400  1
  C  275  1  0.28321330  0.63153300  0.04091400  1
  C  276  1  0.42320100  0.63360700  0.03658600  1
  C  277  1  0.50518900  0.65109300  0.05335100  1
  C  278  1  0.44450100  0.66707000  0.07526500  1
  C  279  1  0.30304930  0.66523700  0.07993800  1
  C  280  1  0.22530130  0.64744200  0.06261900  1
  C  282  1  0.52588900  0.68427900  0.09289400  1
  C  283  1  0.55088100  0.71284300  0.08558600  1
  C  284  1  0.63516100  0.72919500  0.10301300  1
  C  285  1  0.69631700  0.71795100  0.12709600  1
  C  286  1  0.66779700  0.68990900  0.13441200  1
  C  287  1  0.58412900  0.67275400  0.11769900  1
  C  291  1  0.49425700  0.72705000  0.06036700  1
  C  295  1  0.56378900  0.64337900  0.12756100  1
  C  299  1  0.22942530  0.68082500  0.10227100  1
  C  303  1  0.65174900  0.65124000  0.04671500  1
  C  309  1  0.28949650  0.33459200  0.62471100  1
  C  310  1  0.42876900  0.32920500  0.62283000  1
  C  311  1  0.51478900  0.34556900  0.60579700  1
  C  312  1  0.45926100  0.36820300  0.59000700  1
  C  313  1  0.31852050  0.37387500  0.59154000  1
  C  314  1  0.23656050  0.35688600  0.60885200  1
  C  316  1  0.54469700  0.38524900  0.57297600  1
  C  317  1  0.56692500  0.37818900  0.54424400  1
  C  318  1  0.65318900  0.39522400  0.52791500  1
  C  319  1  0.71979300  0.41858600  0.53934500  1
  C  320  1  0.69517300  0.42556000  0.56762200  1
  C  321  1  0.60893300  0.40931300  0.58471600  1
  C  325  1  0.50470500  0.35370500  0.52976800  1
  C  329  1  0.59148900  0.41894900  0.61424300  1
  C  333  1  0.24974450  0.39692100  0.57602400  1
  C  337  1  0.65994500  0.33770100  0.60581100  1
  C  343  1  0.28941320  0.21252200  0.33956100  1
  C  344  1  0.42867700  0.21790900  0.34144600  1
  C  345  1  0.51469700  0.20155100  0.35849200  1
  C  346  1  0.45914900  0.17892000  0.37428400  1
  C  347  1  0.31842120  0.17324300  0.37274300  1
  C  348  1  0.23647320  0.19022700  0.35542200  1
  C  350  1  0.54456900  0.16187900  0.39132100  1
  C  351  1  0.56674500  0.16894000  0.42005300  1
  C  352  1  0.65296500  0.15190500  0.43639300  1
  C  353  1  0.71948100  0.12852600  0.42497900  1
  C  354  1  0.69500100  0.12156200  0.39669100  1
  C  355  1  0.60882900  0.13781500  0.37958700  1
  C  359  1  0.50452500  0.19343000  0.43452000  1
  C  363  1  0.59148900  0.12818300  0.35005600  1
  C  367  1  0.24963320  0.15019900  0.38825600  1
  C  371  1  0.65984100  0.20942200  0.35848300  1
  C  377  1  0.72130100  0.62876700  0.92067700  1
  C  378  1  0.58083300  0.63023300  0.92453300  1
  C  379  1  0.49808100  0.64696000  0.90714700  1
  C  380  1  0.55828900  0.66268000  0.88498100  1
  C  381  1  0.70020900  0.66133800  0.88072400  1
  C  382  1  0.77873700  0.64432000  0.89866500  1
  C  384  1  0.47687700  0.67969900  0.86710700  1
  C  385  1  0.45422500  0.70846900  0.87390300  1
  C  386  1  0.37353250  0.72493400  0.85587300  1
  C  387  1  0.31514050  0.71372600  0.83137100  1
  C  388  1  0.33581250  0.68519700  0.82531100  1
  C  389  1  0.41697700  0.66796000  0.84254500  1
  C  393  1  0.50920900  0.72278900  0.89922700  1
  C  397  1  0.43306100  0.63820900  0.83353500  1
  C  401  1  0.77381300  0.67679300  0.85829100  1
  C  405  1  0.35126450  0.64672300  0.91349900  1
  C  411  1  0.72124900  0.91834200  0.04359200  1
  C  412  1  0.58078900  0.91686200  0.03972300  1
  C  413  1  0.49802900  0.90012800  0.05710200  1
  C  414  1  0.55822900  0.88440700  0.07926900  1
  C  415  1  0.70014900  0.88574700  0.08352800  1
  C  416  1  0.77868900  0.90277200  0.06559300  1
  C  418  1  0.47680500  0.86738900  0.09714200  1
  C  419  1  0.45418500  0.83861700  0.09034600  1
  C  420  1  0.37352520  0.82215000  0.10838000  1
  C  421  1  0.31503320  0.83336400  0.13286800  1
  C  422  1  0.33564120  0.86189500  0.13892200  1
  C  423  1  0.41685700  0.87912900  0.12169600  1
  C  427  1  0.50919700  0.82429500  0.06502500  1
  C  431  1  0.43292100  0.90888100  0.13070500  1
  C  435  1  0.77374100  0.87028700  0.10595600  1
  C  439  1  0.35122520  0.90035900  0.05074300  1
  C  445  1  0.72960900  0.21111600  0.62774300  1
  C  446  1  0.58876500  0.21466200  0.62821700  1
  C  447  1  0.50242100  0.19852900  0.61107000  1
  C  448  1  0.55939700  0.17793100  0.59289800  1
  C  449  1  0.70147700  0.17369700  0.59252900  1
  C  450  1  0.78371700  0.19033400  0.61011800  1
  C  452  1  0.47398500  0.16165200  0.57518600  1
  C  453  1  0.43839700  0.17182100  0.54799900  1
  C  454  1  0.34890100  0.15594900  0.53128000  1
  C  455  1  0.29608100  0.13030400  0.54072500  1
  C  456  1  0.33164100  0.12044900  0.56750700  1
  C  457  1  0.42008100  0.13569000  0.58502400  1
  C  461  1  0.48841700  0.19858700  0.53566100  1
  C  465  1  0.44934900  0.12322900  0.61304100  1
  C  469  1  0.77140100  0.15261200  0.57464300  1
  C  473  1  0.35567300  0.20451400  0.61349400  1
  C  479  1  0.72959700  0.33599700  0.33654300  1
  C  480  1  0.58875300  0.33245500  0.33605700  1
  C  481  1  0.50238100  0.34858300  0.35320300  1
  C  482  1  0.55933700  0.36918300  0.37137700  1
  C  483  1  0.70140500  0.37342300  0.37174700  1
  C  484  1  0.78367300  0.35678800  0.35416000  1
  C  486  1  0.47390900  0.38544900  0.38909900  1
  C  487  1  0.43836900  0.37526800  0.41628300  1
  C  488  1  0.34892130  0.39113600  0.43301600  1
  C  489  1  0.29606930  0.41678300  0.42358900  1
  C  490  1  0.33158130  0.42664900  0.39680700  1
  C  491  1  0.41998100  0.41141500  0.37927700  1
  C  495  1  0.48843700  0.34850100  0.42860900  1
  C  499  1  0.44920900  0.42388900  0.35126200  1
  C  503  1  0.77130900  0.39451400  0.38963100  1
  C  507  1  0.35563730  0.34259200  0.35077700  1
  C  513  1  0.72348100  0.13155000  0.04090000  1
  C  514  1  0.58349300  0.13361300  0.03656900  1
  C  515  1  0.50147700  0.15110000  0.05332700  1
  C  516  1  0.56212100  0.16708100  0.07524300  1
  C  517  1  0.70356500  0.16524700  0.07992800  1
  C  518  1  0.78135300  0.14744900  0.06261800  1
  C  520  1  0.48070500  0.18429600  0.09286300  1
  C  521  1  0.45579300  0.21286200  0.08555200  1
  C  522  1  0.37149320  0.22922000  0.10297100  1
  C  523  1  0.31033720  0.21798900  0.12705900  1
  C  524  1  0.33878920  0.18994300  0.13437700  1
  C  525  1  0.42240500  0.17277900  0.11766500  1
  C  529  1  0.51248500  0.22706400  0.06033700  1
  C  533  1  0.44268100  0.14340100  0.12753200  1
  C  537  1  0.77714900  0.18083200  0.10227000  1
  C  541  1  0.35492520  0.15124500  0.04668200  1
  C  547  1  0.72338100  0.41555400  0.92331000  1
  C  548  1  0.58341300  0.41347200  0.92765300  1
  C  549  1  0.50140900  0.39598300  0.91089400  1
  C  550  1  0.56204900  0.38001300  0.88897100  1
  C  551  1  0.70349700  0.38185400  0.88428200  1
  C  552  1  0.78127300  0.39965100  0.90159700  1
  C  554  1  0.48063700  0.36281000  0.87134000  1
  C  555  1  0.45571300  0.33423900  0.87863300  1
  C  556  1  0.37143250  0.31789200  0.86120400  1
  C  557  1  0.31020450  0.32914600  0.83713300  1
  C  558  1  0.33865650  0.35719400  0.82983200  1
  C  559  1  0.42232500  0.37434500  0.84654800  1
  C  563  1  0.51240500  0.32002200  0.90383800  1
  C  567  1  0.44260500  0.40372900  0.83670100  1
  C  571  1  0.77708900  0.36627400  0.86194000  1
  C  575  1  0.35485250  0.39582800  0.91754600  1
  C  581  1  0.71716900  0.71251200  0.33955200  1
  C  582  1  0.57790500  0.71790700  0.34143800  1
  C  583  1  0.49187700  0.70153900  0.35846900  1
  C  584  1  0.54738100  0.67889400  0.37424600  1
  C  585  1  0.68811300  0.67321600  0.37270700  1
  C  586  1  0.77009300  0.69020900  0.35540100  1
  C  588  1  0.46194500  0.66185000  0.39127700  1
  C  589  1  0.43976900  0.66890000  0.42001300  1
  C  590  1  0.35352930  0.65186300  0.43634200  1
  C  591  1  0.28687330  0.62850900  0.42491000  1
  C  592  1  0.31142130  0.62154500  0.39662600  1
  C  593  1  0.39766100  0.63779400  0.37953200  1
  C  597  1  0.50204900  0.69337500  0.43449300  1
  C  601  1  0.41503700  0.62816700  0.35000100  1
  C  605  1  0.75688100  0.65016200  0.38821200  1
  C  609  1  0.34672930  0.70941500  0.35846000  1
  C  615  1  0.71723300  0.83456900  0.62469600  1
  C  616  1  0.57795700  0.82918800  0.62282400  1
  C  617  1  0.49193300  0.84555500  0.60578800  1
  C  618  1  0.54747700  0.86818000  0.58999000  1
  C  619  1  0.68822100  0.87384800  0.59151700  1
  C  620  1  0.77018100  0.85685900  0.60883100  1
  C  622  1  0.46205700  0.88521800  0.57294800  1
  C  623  1  0.43978900  0.87813700  0.54422500  1
  C  624  1  0.35353300  0.89516400  0.52788300  1
  C  625  1  0.28707700  0.91855500  0.53929100  1
  C  626  1  0.31166100  0.92554000  0.56756800  1
  C  627  1  0.39785700  0.90929500  0.58467400  1
  C  631  1  0.50194100  0.85363400  0.52976600  1
  C  635  1  0.41529300  0.91894500  0.61419700  1
  C  639  1  0.75700900  0.89688500  0.57599300  1
  C  643  1  0.34677700  0.83769100  0.60580900  1
  C  649  1  0.28530130  0.41831400  0.04354800  1
  C  650  1  0.42578500  0.41685400  0.03970700  1
  C  651  1  0.50852500  0.40014000  0.05711000  1
  C  652  1  0.44828500  0.38442500  0.07927700  1
  C  653  1  0.30636530  0.38576100  0.08352000  1
  C  654  1  0.22783730  0.40276700  0.06556200  1
  C  656  1  0.52967700  0.36741300  0.09716200  1
  C  657  1  0.55240100  0.33864500  0.09036600  1
  C  658  1  0.63304100  0.32218500  0.10841100  1
  C  659  1  0.69130100  0.33339300  0.13292700  1
  C  660  1  0.67054900  0.36191900  0.13898500  1
  C  661  1  0.58945700  0.37915400  0.12173400  1
  C  665  1  0.49752500  0.32432100  0.06503300  1
  C  669  1  0.57330100  0.40890300  0.13074400  1
  C  673  1  0.23272130  0.37031500  0.10595200  1
  C  677  1  0.65534900  0.40038300  0.05077300  1
  C  683  1  0.28546900  0.12878000  0.92068900  1
  C  684  1  0.42594500  0.13025100  0.92453900  1
  C  685  1  0.50868100  0.14697400  0.90714500  1
  C  686  1  0.44843700  0.16269700  0.88498500  1
  C  687  1  0.30650900  0.16136600  0.88074500  1
  C  688  1  0.22799300  0.14435000  0.89869500  1
  C  690  1  0.52982500  0.17971600  0.86710400  1
  C  691  1  0.55251700  0.20848400  0.87390500  1
  C  692  1  0.63302900  0.22496000  0.85585000  1
  C  693  1  0.69128900  0.21375800  0.83133100  1
  C  694  1  0.67062100  0.18523000  0.82527300  1
  C  695  1  0.58957300  0.16798600  0.84252400  1
  C  699  1  0.49769700  0.22279600  0.89925000  1
  C  703  1  0.57344100  0.13823800  0.83351000  1
  C  707  1  0.23285700  0.17683100  0.85832700  1
  C  711  1  0.65550500  0.14673400  0.91348400  1
  C  717  1  0.27695720  0.83602100  0.33650800  1
  C  718  1  0.41778900  0.83246700  0.33603600  1
  C  719  1  0.50415300  0.84859600  0.35318500  1
  C  720  1  0.44718900  0.86919600  0.37135400  1
  C  721  1  0.30511720  0.87343800  0.37171900  1
  C  722  1  0.22286920  0.85680600  0.35413000  1
  C  724  1  0.53261300  0.88546900  0.38906900  1
  C  725  1  0.56816500  0.87529400  0.41625800  1
  C  726  1  0.65764900  0.89116000  0.43298100  1
  C  727  1  0.71051300  0.91680500  0.42354500  1
  C  728  1  0.67499300  0.92666500  0.39676300  1
  C  729  1  0.58655300  0.91143100  0.37923900  1
  C  733  1  0.51810500  0.84852900  0.42859000  1
  C  737  1  0.55732500  0.92389500  0.35122200  1
  C  741  1  0.23521720  0.89452500  0.38960800  1
  C  745  1  0.65089300  0.84260100  0.35076300  1
  C  751  1  0.27704050  0.71110200  0.62772400  1
  C  752  1  0.41788100  0.71463600  0.62821100  1
  C  753  1  0.50423300  0.69850600  0.61106200  1
  C  754  1  0.44724900  0.67791000  0.59288600  1
  C  755  1  0.30518050  0.67367600  0.59251900  1
  C  756  1  0.22292850  0.69031300  0.61010800  1
  C  758  1  0.53265300  0.66164400  0.57516100  1
  C  759  1  0.56819300  0.67183100  0.54797800  1
  C  760  1  0.65763300  0.65596600  0.53124000  1
  C  761  1  0.71048500  0.63031600  0.54066200  1
  C  762  1  0.67498500  0.62044600  0.56744200  1
  C  763  1  0.58658100  0.63567600  0.58497600  1
  C  767  1  0.51812500  0.69860100  0.53565700  1
  C  771  1  0.55735700  0.62319700  0.61298900  1
  C  775  1  0.23524450  0.65259200  0.57463000  1
  C  779  1  0.65097700  0.70449100  0.61348600  1
  H  9  1  0.00337700  0.11953200  0.98168900  1
  H  17  1  0.00338500  0.92756700  0.98258000  1
  H  19  1  0.70769700  0.99912600  0.01580100  1
  H  20  1  0.70778900  0.04820300  0.01564900  1
  H  21  1  0.29892900  0.99889600  0.94859700  1
  H  22  1  0.29903700  0.04797100  0.94845200  1
  H  27  1  0.30507700  0.09874600  0.96892300  1
  H  28  1  0.30709700  0.94949700  0.96883700  1
  H  29  1  0.70189700  0.94825000  0.99528100  1
  H  30  1  0.69971700  0.09764300  0.99537900  1
  H  39  1  0.00320533  0.42755900  0.98252300  1
  H  47  1  0.00343733  0.61952600  0.98169700  1
  H  49  1  0.70768900  0.54799300  0.94844800  1
  H  50  1  0.70772900  0.49891500  0.94857600  1
  H  51  1  0.29890530  0.54817000  0.01565600  1
  H  52  1  0.29894530  0.49909300  0.01578500  1
  H  57  1  0.30485730  0.44829100  0.99528300  1
  H  58  1  0.30716930  0.59755900  0.99544700  1
  H  59  1  0.70196900  0.59888400  0.96900200  1
  H  60  1  0.69956500  0.44948600  0.96881400  1
  H  69  1  0.94220500  0.28672300  0.82726100  1
  H  77  1  0.01753250  0.27372200  0.63654600  1
  H  79  1  0.72162500  0.23596700  0.70582400  1
  H  80  1  0.70710500  0.23785200  0.75492800  1
  H  81  1  0.26874450  0.31773200  0.70968000  1
  H  82  1  0.24669650  0.32174800  0.75840800  1
  H  87  1  0.09315650  0.33841200  0.80651400  1
  H  88  1  0.31008450  0.29302900  0.66315400  1
  H  89  1  0.71949700  0.26123100  0.65285100  1
  H  90  1  0.68710100  0.26610000  0.81283800  1
  H  99  1  0.94272500  0.26047000  0.13698800  1
  H  107  1  0.01747317  0.27340400  0.32771100  1
  H  109  1  0.72180500  0.31119300  0.25841000  1
  H  110  1  0.70743700  0.30932400  0.20930000  1
  H  111  1  0.26892520  0.22942800  0.25459100  1
  H  112  1  0.24709720  0.22545200  0.20585400  1
  H  117  1  0.09362920  0.20876900  0.15781800  1
  H  118  1  0.30996520  0.25416300  0.30119600  1
  H  119  1  0.71952100  0.28591200  0.31136100  1
  H  120  1  0.68764100  0.28102400  0.15138100  1
  H  129  1  0.06396920  0.76042500  0.13697800  1
  H  137  1  0.98908900  0.77341500  0.32770100  1
  H  139  1  0.28472120  0.81120400  0.25839500  1
  H  140  1  0.29910520  0.80932300  0.20928400  1
  H  141  1  0.73790900  0.72934600  0.25460000  1
  H  142  1  0.75984500  0.72533500  0.20586600  1
  H  147  1  0.91309700  0.70868500  0.15780900  1
  H  148  1  0.69656900  0.75405800  0.30109300  1
  H  149  1  0.28704120  0.78591900  0.31136400  1
  H  150  1  0.31960520  0.78111500  0.15158600  1
  H  159  1  0.06400050  0.78668200  0.82727300  1
  H  167  1  0.98922100  0.77368500  0.63655000  1
  H  169  1  0.28482850  0.73590300  0.70586600  1
  H  170  1  0.29916850  0.73777500  0.75497600  1
  H  171  1  0.73791300  0.81772900  0.70964900  1
  H  172  1  0.75983700  0.82174600  0.75838100  1
  H  177  1  0.91311300  0.83841500  0.80643400  1
  H  178  1  0.69664100  0.79299500  0.66312800  1
  H  179  1  0.28719250  0.76117900  0.65291400  1
  H  180  1  0.31941650  0.76601200  0.81274400  1
  H  189  1  0.92356100  0.61745600  0.47123700  1
  H  197  1  0.08303330  0.42964700  0.49301400  1
  H  199  1  0.79246100  0.49680800  0.53582600  1
  H  200  1  0.75428900  0.54494500  0.53087100  1
  H  201  1  0.25232530  0.50216100  0.43338100  1
  H  202  1  0.21416530  0.55030000  0.42843100  1
  H  207  1  0.06261330  0.59897400  0.41736100  1
  H  208  1  0.33126930  0.45889500  0.45665300  1
  H  209  1  0.94388900  0.44817400  0.54691100  1
  H  210  1  0.67532500  0.58819600  0.50760200  1
  H  219  1  0.92386100  0.92963000  0.49294600  1
  H  227  1  0.08275700  0.11747300  0.47132700  1
  H  229  1  0.79226900  0.05031900  0.42848300  1
  H  230  1  0.75430500  0.00216900  0.43338300  1
  H  231  1  0.25235300  0.04492900  0.53088000  1
  H  232  1  0.21439700  0.99678000  0.53578000  1
  H  237  1  0.06318100  0.94823400  0.54686900  1
  H  238  1  0.33115300  0.08824900  0.50758100  1
  H  239  1  0.94367700  0.09895300  0.41742200  1
  H  240  1  0.67548500  0.95888200  0.45666600  1
  H  247  1  0.12368500  0.90115600  0.89827900  1
  H  254  1  0.65439300  0.79742600  0.86643600  1
  H  255  1  0.70872500  0.86529300  0.81187400  1
  H  256  1  0.46699700  0.92511400  0.94320200  1
  H  258  1  0.42980500  0.83346400  0.91656900  1
  H  259  1  0.57610500  0.81271300  0.91726100  1
  H  260  1  0.43437300  0.80198700  0.89734800  1
  H  262  1  0.49841700  0.91611800  0.85018400  1
  H  263  1  0.51906900  0.90352200  0.81578700  1
  H  264  1  0.66074500  0.91443900  0.83560900  1
  H  266  1  0.15254100  0.85301300  0.87151600  1
  H  267  1  0.29359700  0.85281400  0.84926000  1
  H  268  1  0.18050100  0.88116400  0.84787600  1
  H  270  1  0.69227700  0.91700900  0.91520800  1
  H  271  1  0.71072500  0.88201200  0.90417200  1
  H  272  1  0.66667300  0.88905100  0.93918800  1
  H  281  1  0.12368130  0.64593500  0.06597300  1
  H  288  1  0.65440500  0.74966900  0.09780800  1
  H  289  1  0.70868500  0.68181100  0.15238100  1
  H  290  1  0.46702500  0.62197100  0.02106100  1
  H  292  1  0.42985300  0.71362300  0.04767100  1
  H  293  1  0.57614500  0.73437900  0.04698700  1
  H  294  1  0.43436900  0.74510400  0.06688700  1
  H  296  1  0.49836900  0.63098400  0.11407500  1
  H  297  1  0.51902100  0.64358200  0.14847300  1
  H  298  1  0.66069700  0.63266300  0.12865300  1
  H  300  1  0.15252530  0.69409000  0.09271700  1
  H  301  1  0.29355730  0.69429400  0.11498000  1
  H  302  1  0.18045330  0.66594500  0.11636900  1
  H  304  1  0.69229700  0.63008600  0.04905500  1
  H  305  1  0.71071300  0.66508800  0.06008400  1
  H  306  1  0.66668100  0.65803800  0.02506700  1
  H  315  1  0.13547250  0.36096200  0.61008100  1
  H  322  1  0.66929267  0.39033000  0.50724500  1
  H  323  1  0.73982100  0.44308400  0.57583600  1
  H  324  1  0.46897300  0.31299800  0.63409200  1
  H  326  1  0.43932500  0.34122400  0.54318700  1
  H  327  1  0.58356500  0.33986500  0.52187100  1
  H  328  1  0.44450500  0.36103200  0.51207500  1
  H  330  1  0.52373700  0.40588300  0.62654600  1
  H  331  1  0.55098100  0.44023700  0.61437700  1
  H  332  1  0.68883700  0.41904300  0.62483200  1
  H  334  1  0.17276050  0.38807800  0.56229600  1
  H  335  1  0.31701250  0.40942700  0.56304200  1
  H  336  1  0.20145650  0.41109400  0.59092900  1
  H  338  1  0.69989700  0.33935400  0.62707800  1
  H  339  1  0.72208500  0.35078600  0.59230100  1
  H  340  1  0.67098100  0.31605900  0.59868400  1
  H  349  1  0.13539320  0.18614500  0.35418300  1
  H  356  1  0.66899300  0.15679700  0.45706600  1
  H  357  1  0.73968900  0.10404200  0.38848200  1
  H  358  1  0.46891300  0.23410800  0.33017700  1
  H  360  1  0.43918500  0.20591400  0.42109300  1
  H  361  1  0.58338500  0.20726700  0.44242300  1
  H  362  1  0.44427300  0.18610800  0.45221200  1
  H  364  1  0.52380500  0.14125500  0.33774500  1
  H  365  1  0.55097300  0.10689800  0.34991100  1
  H  366  1  0.68888900  0.12808800  0.33948100  1
  H  368  1  0.17262120  0.15904100  0.40197800  1
  H  369  1  0.31689320  0.13769700  0.40124600  1
  H  370  1  0.20138520  0.13602200  0.37335100  1
  H  372  1  0.69982500  0.20776400  0.33721900  1
  H  373  1  0.72197300  0.19634400  0.37200200  1
  H  374  1  0.67086100  0.23106700  0.36560500  1
  H  383  1  0.88070100  0.64321300  0.89562500  1
  H  390  1  0.35488450  0.74545200  0.86091000  1
  H  391  1  0.29145650  0.67687000  0.80777600  1
  H  392  1  0.53734900  0.61869900  0.94018200  1
  H  394  1  0.57011300  0.70924900  0.91253400  1
  H  395  1  0.42648900  0.73076700  0.91200200  1
  H  396  1  0.57213300  0.74041500  0.89278100  1
  H  398  1  0.49681300  0.62582100  0.84737200  1
  H  399  1  0.47772900  0.63753600  0.81262400  1
  H  400  1  0.33467650  0.62806800  0.83276300  1
  H  402  1  0.84773700  0.69079400  0.86781500  1
  H  403  1  0.70909700  0.68947900  0.84492700  1
  H  404  1  0.82638100  0.66186900  0.84481800  1
  H  406  1  0.31266050  0.62536600  0.91162400  1
  H  407  1  0.29180850  0.66000200  0.89965700  1
  H  408  1  0.33475650  0.65401200  0.93493400  1
  H  417  1  0.88065300  0.90388000  0.06863500  1
  H  424  1  0.35483320  0.80163400  0.10333800  1
  H  425  1  0.29126520  0.87022200  0.15645300  1
  H  426  1  0.53731700  0.92839300  0.02407100  1
  H  428  1  0.57008500  0.83783700  0.05171700  1
  H  429  1  0.42648500  0.81631000  0.05225200  1
  H  430  1  0.57214500  0.80667500  0.07147500  1
  H  432  1  0.49673300  0.92126700  0.11687400  1
  H  433  1  0.47751700  0.90955600  0.15162100  1
  H  434  1  0.33453720  0.91902300  0.13146100  1
  H  436  1  0.84766500  0.85628800  0.09642800  1
  H  437  1  0.70902500  0.85759600  0.11931600  1
  H  438  1  0.82632100  0.88520400  0.11943500  1
  H  440  1  0.31258920  0.92171600  0.05261900  1
  H  441  1  0.29176920  0.88707300  0.06457700  1
  H  442  1  0.33475720  0.89307400  0.02930400  1
  H  451  1  0.88588100  0.18743200  0.60991700  1
  H  458  1  0.32150500  0.16310900  0.51183300  1
  H  459  1  0.29131300  0.10189600  0.57437800  1
  H  460  1  0.54778100  0.22915200  0.64154300  1
  H  462  1  0.55780100  0.20995700  0.54919200  1
  H  463  1  0.40350900  0.21242900  0.53127400  1
  H  464  1  0.54091700  0.19422200  0.51602500  1
  H  466  1  0.51803700  0.13568300  0.62574900  1
  H  467  1  0.49447300  0.10252700  0.61033800  1
  H  468  1  0.35586900  0.12095000  0.62483700  1
  H  470  1  0.84275700  0.16322900  0.56084900  1
  H  471  1  0.70382500  0.14039100  0.56145700  1
  H  472  1  0.82650100  0.13792500  0.58793500  1
  H  474  1  0.32300900  0.20102300  0.63507800  1
  H  475  1  0.29303700  0.19152500  0.59999200  1
  H  476  1  0.33654900  0.22638200  0.60798400  1
  H  485  1  0.88582900  0.35969700  0.35436100  1
  H  492  1  0.32158530  0.38397000  0.45246500  1
  H  493  1  0.29126530  0.44520900  0.38995000  1
  H  494  1  0.54778500  0.31796100  0.32273300  1
  H  496  1  0.55778900  0.33713400  0.41506700  1
  H  497  1  0.40355300  0.33465500  0.43300400  1
  H  498  1  0.54099700  0.35286300  0.44823800  1
  H  500  1  0.51786500  0.41144000  0.33854400  1
  H  501  1  0.49434900  0.44458800  0.35397100  1
  H  502  1  0.35570930  0.42617700  0.33947500  1
  H  504  1  0.84266900  0.38390100  0.40342700  1
  H  505  1  0.70371700  0.40673300  0.40281500  1
  H  506  1  0.82640100  0.40920100  0.37633900  1
  H  508  1  0.32298530  0.34608100  0.32919200  1
  H  509  1  0.29299330  0.35558000  0.36427500  1
  H  510  1  0.33653730  0.32072300  0.35628800  1
  H  519  1  0.88295300  0.14594200  0.06598000  1
  H  526  1  0.35238120  0.24970300  0.09777400  1
  H  527  1  0.29788120  0.18185200  0.15234600  1
  H  528  1  0.53970100  0.12197100  0.02104700  1
  H  530  1  0.57688100  0.21363200  0.04764600  1
  H  531  1  0.43063700  0.23440100  0.04695100  1
  H  532  1  0.57239700  0.24511300  0.06686300  1
  H  534  1  0.50807300  0.13099800  0.11404700  1
  H  535  1  0.48745300  0.14360400  0.14844300  1
  H  536  1  0.34575720  0.13269600  0.12862400  1
  H  538  1  0.85408100  0.19409600  0.09272500  1
  H  539  1  0.71299700  0.19430100  0.11497300  1
  H  540  1  0.82608100  0.16595000  0.11637200  1
  H  542  1  0.31438920  0.13009000  0.04902300  1
  H  543  1  0.29592920  0.16509400  0.06004600  1
  H  544  1  0.34002520  0.15803900  0.02503300  1
  H  553  1  0.88287300  0.40116500  0.89823100  1
  H  560  1  0.35224050  0.29741100  0.86639600  1
  H  561  1  0.29772050  0.36529900  0.81187200  1
  H  562  1  0.53961300  0.42510700  0.94318100  1
  H  564  1  0.57680100  0.33344700  0.91653900  1
  H  565  1  0.43055700  0.31267700  0.91722100  1
  H  566  1  0.57232500  0.30197800  0.89730200  1
  H  568  1  0.50803300  0.41612000  0.85018900  1
  H  569  1  0.48733300  0.40353800  0.81578400  1
  H  570  1  0.34568450  0.41443800  0.83562300  1
  H  572  1  0.85402100  0.35301100  0.87148300  1
  H  573  1  0.71293700  0.35280400  0.84923500  1
  H  574  1  0.82600100  0.38115800  0.84783800  1
  H  576  1  0.31428850  0.41698000  0.91521000  1
  H  577  1  0.29588050  0.38197600  0.90418200  1
  H  578  1  0.33999650  0.38903000  0.93919500  1
  H  587  1  0.87117300  0.68612900  0.35416800  1
  H  594  1  0.33749330  0.65674800  0.45701600  1
  H  595  1  0.26674530  0.60402500  0.38841100  1
  H  596  1  0.53770900  0.73412300  0.33018800  1
  H  598  1  0.56740900  0.70586100  0.42107200  1
  H  599  1  0.42320900  0.70721500  0.44240200  1
  H  600  1  0.56228100  0.68604000  0.45217800  1
  H  602  1  0.48277700  0.64123500  0.33769900  1
  H  603  1  0.45552100  0.60687900  0.34985500  1
  H  604  1  0.31766530  0.62808300  0.33941800  1
  H  606  1  0.83387300  0.65899400  0.40194400  1
  H  607  1  0.68960100  0.63765200  0.40118900  1
  H  608  1  0.80514900  0.63599300  0.37330000  1
  H  610  1  0.30675730  0.70777500  0.33719300  1
  H  611  1  0.28458130  0.69632800  0.37196700  1
  H  612  1  0.33572130  0.73105500  0.36559800  1
  H  621  1  0.87127300  0.86093100  0.61005500  1
  H  628  1  0.33742900  0.89025700  0.50721800  1
  H  629  1  0.26701300  0.94306600  0.57577300  1
  H  630  1  0.53773700  0.81298900  0.63409200  1
  H  632  1  0.56731700  0.84115900  0.54319100  1
  H  633  1  0.42303700  0.83979400  0.52188800  1
  H  634  1  0.56213300  0.86094000  0.51206000  1
  H  636  1  0.48300100  0.90587700  0.62650800  1
  H  637  1  0.45584500  0.94022900  0.61432100  1
  H  638  1  0.31792900  0.91905200  0.62478200  1
  H  640  1  0.83397700  0.88803600  0.56226400  1
  H  641  1  0.68974500  0.90938900  0.56300900  1
  H  642  1  0.80532500  0.91106000  0.59089200  1
  H  644  1  0.30684100  0.83935000  0.62707800  1
  H  645  1  0.28462900  0.85077800  0.59230100  1
  H  646  1  0.33570900  0.81604900  0.59868600  1
  H  655  1  0.12587330  0.40386600  0.06859000  1
  H  662  1  0.65172900  0.30166800  0.10337500  1
  H  663  1  0.71478500  0.37024600  0.15653100  1
  H  664  1  0.46928500  0.42837500  0.02405200  1
  H  666  1  0.43666100  0.33785900  0.05171700  1
  H  667  1  0.58030900  0.31634900  0.05227200  1
  H  668  1  0.43460100  0.30669300  0.07147000  1
  H  670  1  0.50960900  0.42128900  0.11689000  1
  H  671  1  0.52850100  0.40957200  0.15164200  1
  H  672  1  0.67166500  0.41904800  0.13154100  1
  H  674  1  0.15884930  0.35630100  0.09642700  1
  H  675  1  0.29742930  0.35763700  0.11933000  1
  H  676  1  0.18009330  0.38524100  0.11941200  1
  H  678  1  0.69392500  0.42174400  0.05263400  1
  H  679  1  0.71480500  0.38711800  0.06463100  1
  H  680  1  0.67191700  0.39307700  0.02934400  1
  H  689  1  0.12601700  0.14325500  0.89566900  1
  H  696  1  0.65174900  0.24547200  0.86089500  1
  H  697  1  0.71480900  0.17691300  0.80771500  1
  H  698  1  0.46944900  0.11872600  0.94019300  1
  H  700  1  0.43692900  0.20924700  0.91257600  1
  H  701  1  0.58050100  0.23077900  0.91199700  1
  H  702  1  0.43468500  0.24041600  0.89282700  1
  H  704  1  0.50980500  0.12584300  0.84736600  1
  H  705  1  0.52860500  0.13757100  0.81261400  1
  H  706  1  0.67182100  0.12810100  0.83270000  1
  H  708  1  0.15899700  0.19083800  0.86786600  1
  H  709  1  0.29755300  0.18951500  0.84495500  1
  H  710  1  0.18020500  0.16191500  0.84485800  1
  H  712  1  0.69409300  0.12537400  0.91161400  1
  H  713  1  0.71494900  0.16000700  0.89963200  1
  H  714  1  0.67205700  0.15403000  0.93491700  1
  H  723  1  0.12070520  0.85971200  0.35432900  1
  H  730  1  0.68501700  0.88399700  0.45243000  1
  H  731  1  0.71534900  0.94521600  0.38989700  1
  H  732  1  0.45876900  0.81797500  0.32271200  1
  H  734  1  0.44872500  0.83716400  0.41505400  1
  H  735  1  0.60298900  0.83468300  0.43297900  1
  H  736  1  0.46558500  0.85289300  0.44822300  1
  H  738  1  0.48864900  0.91144500  0.33851000  1
  H  739  1  0.51222500  0.94460000  0.35392500  1
  H  740  1  0.65082500  0.92617200  0.33943100  1
  H  742  1  0.16384520  0.88391200  0.40340000  1
  H  743  1  0.30279720  0.90674400  0.40279400  1
  H  744  1  0.18013320  0.90921600  0.37631400  1
  H  746  1  0.68356900  0.84609000  0.32917900  1
  H  747  1  0.71354100  0.85558700  0.36426500  1
  H  748  1  0.66998500  0.82073200  0.35627500  1
  H  757  1  0.12076450  0.68741100  0.60990400  1
  H  764  1  0.68496900  0.66313500  0.51179200  1
  H  765  1  0.71530100  0.60188400  0.57429400  1
  H  766  1  0.45886900  0.72912800  0.64153400  1
  H  768  1  0.44877700  0.70996600  0.54920300  1
  H  769  1  0.60300900  0.71244700  0.53126600  1
  H  770  1  0.46556500  0.69424300  0.51602700  1
  H  772  1  0.48870900  0.63564500  0.62570900  1
  H  773  1  0.51221300  0.60249900  0.61027800  1
  H  774  1  0.65086500  0.62091000  0.62477600  1
  H  776  1  0.16390450  0.66320900  0.56083600  1
  H  777  1  0.30282450  0.64036900  0.56144700  1
  H  778  1  0.18014050  0.63790500  0.58792400  1
  H  780  1  0.68364100  0.70099700  0.63507200  1
  H  781  1  0.71360900  0.69150000  0.59998600  1
  H  782  1  0.67010900  0.72636000  0.60797700  1
  N  273  1  0.77538100  0.81246300  0.82195400  1
  N  274  1  0.20111700  0.93203200  0.93806200  1
  N  307  1  0.77534900  0.73463700  0.14229600  1
  N  308  1  0.20114530  0.61505300  0.02619600  1
  N  341  1  0.79688500  0.43395900  0.52242100  1
  N  342  1  0.20353650  0.32010200  0.64062600  1
  N  375  1  0.79661300  0.11316200  0.44190100  1
  N  376  1  0.20347720  0.22699100  0.32362200  1
  N  409  1  0.23306450  0.72844800  0.81492000  1
  N  410  1  0.80404500  0.61294600  0.93596300  1
  N  443  1  0.23290120  0.81863700  0.14930600  1
  N  444  1  0.80400100  0.93415300  0.02830000  1
  N  477  1  0.20921700  0.11619300  0.52506300  1
  N  478  1  0.81476100  0.22570700  0.64368800  1
  N  511  1  0.20930930  0.43089100  0.43927600  1
  N  512  1  0.81476900  0.32141900  0.32059000  1
  N  545  1  0.23139320  0.23469100  0.14226400  1
  N  546  1  0.80556900  0.11505200  0.02620500  1
  N  579  1  0.23118450  0.31246500  0.82192400  1
  N  580  1  0.80546900  0.43204600  0.93801400  1
  N  613  1  0.20982130  0.61313000  0.44183200  1
  N  614  1  0.80314900  0.72700800  0.32364500  1
  N  647  1  0.20987700  0.93390000  0.52236400  1
  N  648  1  0.80319700  0.82008100  0.64061400  1
  N  681  1  0.77323700  0.31867400  0.14941600  1
  N  682  1  0.20255330  0.43410800  0.02823800  1
  N  715  1  0.77312900  0.22849300  0.81483700  1
  N  716  1  0.20271300  0.11299200  0.93600500  1
  N  749  1  0.79736500  0.93090500  0.43921700  1
  N  750  1  0.19178520  0.82143500  0.32056100  1
  N  783  1  0.79725700  0.61621300  0.52497100  1
  N  784  1  0.19187250  0.72568200  0.64367500  1
