# generated using pymatgen
data_H26C43(N3O2)2
_symmetry_space_group_name_H-M   'P 1'
_cell_length_a   34.62860000
_cell_length_b   62.69600000
_cell_length_c   62.69600000
_cell_angle_alpha   90.00000000
_cell_angle_beta   90.00000000
_cell_angle_gamma   90.00000000
_symmetry_Int_Tables_number   1
_chemical_formula_structural   H26C43(N3O2)2
_chemical_formula_sum   'H832 C1376 N192 O128'
_cell_volume   136117.69974230
_cell_formula_units_Z   32
loop_
 _symmetry_equiv_pos_site_id
 _symmetry_equiv_pos_as_xyz
  1  'x, y, z'
loop_
 _atom_site_type_symbol
 _atom_site_label
 _atom_site_symmetry_multiplicity
 _atom_site_fract_x
 _atom_site_fract_y
 _atom_site_fract_z
 _atom_site_occupancy
  H  25  1  0.99747900  0.08710100  0.37739100  1
  H  26  1  0.00321400  0.12502800  0.37528300  1
  H  27  1  0.94735600  0.19770200  0.38104100  1
  H  28  1  0.89387100  0.22101100  0.38648600  1
  H  29  1  0.82568200  0.16922900  0.40606600  1
  H  30  1  0.88484400  0.09343000  0.40144900  1
  H  31  1  0.87389600  0.13789200  0.35718600  1
  H  32  1  0.76289900  0.11202000  0.34918700  1
  H  33  1  0.75579500  0.10929400  0.38697400  1
  H  34  1  0.92894100  0.14319700  0.43419200  1
  H  35  1  0.80717400  0.11599200  0.46042000  1
  H  36  1  0.85814900  0.12302500  0.48474900  1
  H  39  1  0.97630600  0.16027000  0.39495700  1
  H  40  1  0.96000400  0.15868900  0.36821400  1
  H  42  1  0.77991600  0.12895800  0.42266800  1
  H  43  1  0.79793000  0.10254900  0.42108600  1
  H  72  1  0.49748200  0.42401900  0.66181000  1
  H  73  1  0.50322000  0.38609200  0.66392000  1
  H  74  1  0.44737000  0.31341700  0.65816200  1
  H  75  1  0.39388300  0.29010500  0.65272600  1
  H  76  1  0.32567600  0.34188800  0.63315700  1
  H  77  1  0.38483800  0.41768900  0.63776700  1
  H  78  1  0.37388500  0.37322500  0.68203100  1
  H  79  1  0.26288800  0.39909600  0.69002700  1
  H  80  1  0.25578700  0.40182300  0.65224100  1
  H  81  1  0.42893700  0.36792000  0.60502600  1
  H  82  1  0.30717400  0.39512800  0.57879500  1
  H  83  1  0.35815200  0.38809500  0.55446800  1
  H  86  1  0.47630000  0.35085000  0.64424600  1
  H  87  1  0.46002200  0.35242900  0.67099200  1
  H  89  1  0.27991200  0.38216200  0.61654500  1
  H  90  1  0.29792700  0.40857000  0.61812900  1
  H  119  1  0.24581700  0.89583900  0.84995100  1
  H  120  1  0.25206500  0.89852800  0.88760400  1
  H  121  1  0.19724600  0.89436600  0.96071900  1
  H  122  1  0.14421200  0.88922300  0.98441800  1
  H  123  1  0.07507100  0.86894100  0.93329500  1
  H  124  1  0.13243300  0.87298600  0.85702800  1
  H  125  1  0.12251300  0.91754400  0.90139500  1
  H  126  1  0.01086600  0.92535200  0.87635800  1
  H  127  1  0.00383200  0.88753600  0.87380600  1
  H  128  1  0.17794300  0.84071800  0.90683500  1
  H  129  1  0.05592000  0.81409400  0.88041200  1
  H  130  1  0.10723000  0.78991400  0.88723300  1
  H  133  1  0.22539800  0.87981400  0.92324800  1
  H  134  1  0.20938200  0.90659400  0.92145800  1
  H  136  1  0.02859500  0.85189500  0.89341200  1
  H  137  1  0.04604300  0.85338500  0.86688500  1
  H  166  1  0.74581400  0.61526300  0.18925300  1
  H  167  1  0.75204900  0.61257200  0.15159900  1
  H  168  1  0.69719600  0.61673000  0.07848800  1
  H  169  1  0.64415900  0.62188700  0.05480000  1
  H  170  1  0.57506000  0.64219100  0.10592700  1
  H  171  1  0.63243700  0.63813000  0.18218700  1
  H  172  1  0.62249400  0.59357400  0.13781400  1
  H  173  1  0.51085500  0.58577000  0.16286400  1
  H  174  1  0.50383200  0.62358400  0.16542200  1
  H  175  1  0.67793400  0.67039900  0.13237600  1
  H  176  1  0.55593400  0.69702300  0.15882900  1
  H  177  1  0.60724100  0.72120100  0.15200200  1
  H  180  1  0.72538300  0.63128800  0.11596000  1
  H  181  1  0.70934500  0.60451300  0.11774700  1
  H  183  1  0.52859200  0.65922600  0.14581900  1
  H  184  1  0.54605200  0.65773100  0.17234300  1
  H  213  1  0.51279300  0.42574400  0.37567000  1
  H  214  1  0.50550700  0.38796100  0.37289300  1
  H  215  1  0.55671600  0.31443300  0.37951700  1
  H  216  1  0.60767100  0.29008400  0.38651100  1
  H  217  1  0.67846800  0.34058800  0.40682200  1
  H  218  1  0.62368400  0.41754100  0.40161300  1
  H  219  1  0.63463200  0.37338500  0.35704400  1
  H  220  1  0.74738000  0.39734000  0.35091600  1
  H  221  1  0.75294100  0.39939300  0.38884500  1
  H  222  1  0.57518100  0.36873400  0.43289100  1
  H  223  1  0.69689800  0.39360900  0.46143000  1
  H  224  1  0.64338200  0.38819900  0.48471200  1
  H  227  1  0.52947600  0.35219000  0.39252900  1
  H  228  1  0.54754500  0.35379500  0.36613200  1
  H  230  1  0.72585400  0.37970900  0.42400800  1
  H  231  1  0.70963900  0.40647000  0.42245200  1
  H  260  1  0.01278300  0.08537500  0.66352600  1
  H  261  1  0.00549600  0.12315800  0.66629800  1
  H  262  1  0.05670500  0.19668700  0.65967600  1
  H  263  1  0.10766000  0.22103700  0.65268600  1
  H  264  1  0.17847300  0.17053100  0.63239300  1
  H  265  1  0.12368700  0.09357700  0.63759900  1
  H  266  1  0.13461200  0.13772600  0.68216800  1
  H  267  1  0.24736400  0.11377500  0.68830800  1
  H  268  1  0.25294200  0.11173000  0.65038000  1
  H  269  1  0.07520300  0.14239300  0.60631300  1
  H  270  1  0.19692100  0.11750500  0.57778800  1
  H  271  1  0.14341900  0.12292600  0.55450100  1
  H  274  1  0.02947300  0.15892700  0.64666400  1
  H  275  1  0.04752700  0.15732500  0.67306300  1
  H  277  1  0.22586600  0.13141900  0.61521500  1
  H  278  1  0.20966100  0.10465600  0.61676500  1
  H  307  1  0.26426800  0.61390200  0.84836900  1
  H  308  1  0.25656300  0.61048300  0.88585100  1
  H  309  1  0.30705800  0.61513400  0.95974600  1
  H  310  1  0.35760900  0.62165300  0.98444900  1
  H  311  1  0.42919700  0.64287200  0.93466000  1
  H  312  1  0.37618300  0.63831100  0.85729800  1
  H  313  1  0.38599900  0.59346700  0.90126900  1
  H  314  1  0.49936800  0.58748100  0.87821300  1
  H  315  1  0.50492100  0.62543100  0.87636100  1
  H  316  1  0.32636000  0.66919200  0.90610300  1
  H  317  1  0.44841000  0.69803500  0.88212700  1
  H  318  1  0.39466800  0.72121400  0.88733000  1
  H  321  1  0.28049700  0.62901000  0.92202100  1
  H  322  1  0.29817600  0.60255400  0.92014700  1
  H  324  1  0.47725600  0.66051800  0.89601200  1
  H  325  1  0.46166200  0.65911400  0.86913400  1
  H  354  1  0.76427900  0.89720900  0.19084300  1
  H  355  1  0.75656600  0.90062600  0.15336100  1
  H  356  1  0.80704700  0.89597500  0.07946400  1
  H  357  1  0.85759500  0.88946300  0.05475800  1
  H  358  1  0.92919800  0.86824700  0.10454400  1
  H  359  1  0.87619500  0.87280400  0.18191000  1
  H  360  1  0.88599300  0.91764600  0.13794400  1
  H  361  1  0.99935900  0.92363700  0.16100200  1
  H  362  1  0.00492400  0.88568700  0.16284300  1
  H  363  1  0.82636600  0.84192000  0.13310600  1
  H  364  1  0.94842200  0.81308100  0.15707700  1
  H  365  1  0.89468300  0.78989900  0.15188000  1
  H  368  1  0.78049700  0.88209700  0.11719000  1
  H  369  1  0.79817300  0.90855600  0.11906300  1
  H  371  1  0.97726800  0.85060000  0.14319500  1
  H  372  1  0.96166500  0.85200100  0.17007000  1
  H  401  1  0.01541000  0.92506600  0.65960600  1
  H  402  1  0.00903600  0.88741000  0.66223700  1
  H  403  1  0.06369100  0.81426900  0.65806500  1
  H  404  1  0.11669600  0.79054200  0.65292400  1
  H  405  1  0.18598700  0.84164300  0.63275200  1
  H  406  1  0.12882200  0.91791300  0.63681000  1
  H  407  1  0.13848300  0.87361600  0.68131500  1
  H  408  1  0.25012000  0.89863200  0.68924400  1
  H  409  1  0.25735000  0.90110000  0.65143000  1
  H  410  1  0.08332500  0.86816400  0.60449400  1
  H  411  1  0.20550900  0.89445000  0.57794500  1
  H  412  1  0.15423200  0.88767500  0.55373400  1
  H  415  1  0.03566300  0.85176500  0.64350900  1
  H  416  1  0.05160100  0.85352700  0.67030600  1
  H  418  1  0.23268800  0.88144400  0.61578100  1
  H  419  1  0.21531600  0.90798800  0.61723000  1
  H  448  1  0.51540900  0.58605200  0.37961600  1
  H  449  1  0.50903000  0.62370700  0.37698800  1
  H  450  1  0.56367600  0.69684900  0.38116500  1
  H  451  1  0.61668700  0.72057800  0.38628500  1
  H  452  1  0.68600000  0.66947500  0.40644200  1
  H  453  1  0.62883000  0.59320600  0.40239800  1
  H  454  1  0.63849000  0.63750000  0.35789400  1
  H  455  1  0.75012600  0.61248100  0.34996800  1
  H  456  1  0.75735400  0.61001400  0.38778100  1
  H  457  1  0.58333300  0.64295700  0.43471400  1
  H  458  1  0.70551200  0.61666800  0.46126600  1
  H  459  1  0.65423400  0.62344700  0.48547600  1
  H  462  1  0.53567000  0.65935200  0.39571900  1
  H  463  1  0.55157900  0.65759100  0.36891700  1
  H  465  1  0.73269200  0.62967200  0.42342900  1
  H  466  1  0.71531600  0.60312800  0.42198100  1
  H  495  1  0.76368400  0.11578100  0.18859900  1
  H  496  1  0.75724100  0.11335200  0.15090900  1
  H  497  1  0.81225100  0.11759600  0.07769900  1
  H  498  1  0.86546400  0.12253900  0.05407000  1
  H  499  1  0.93484600  0.14209400  0.10536300  1
  H  500  1  0.87751500  0.13791300  0.18151300  1
  H  501  1  0.88600800  0.09352500  0.13691500  1
  H  502  1  0.99847000  0.08482600  0.16060400  1
  H  503  1  0.00619600  0.12234800  0.16367200  1
  H  504  1  0.83263300  0.17075300  0.13212400  1
  H  505  1  0.95518200  0.19624200  0.15889700  1
  H  506  1  0.90430500  0.22080900  0.15259000  1
  H  509  1  0.78429400  0.13210300  0.11529700  1
  H  510  1  0.79972900  0.10521300  0.11692400  1
  H  512  1  0.98169800  0.15842300  0.14505200  1
  H  513  1  0.96464200  0.15670900  0.17164100  1
  H  542  1  0.26368600  0.39535200  0.85062300  1
  H  543  1  0.25725400  0.39778200  0.88831300  1
  H  544  1  0.31230000  0.39354200  0.96151800  1
  H  545  1  0.36551900  0.38858600  0.98513900  1
  H  546  1  0.43486000  0.36900900  0.93383900  1
  H  547  1  0.37750900  0.37320700  0.85769600  1
  H  548  1  0.38602200  0.41759200  0.90230200  1
  H  549  1  0.49847500  0.42629100  0.87859900  1
  H  550  1  0.50619400  0.38876800  0.87552400  1
  H  551  1  0.33264400  0.34036200  0.90709200  1
  H  552  1  0.45517000  0.31487700  0.88028500  1
  H  553  1  0.40429900  0.29031100  0.88659800  1
  H  556  1  0.28431000  0.37902900  0.92392100  1
  H  557  1  0.29976400  0.40591600  0.92229600  1
  H  559  1  0.48170000  0.35269300  0.89414200  1
  H  560  1  0.46463300  0.35441000  0.86755500  1
  H  589  1  0.49680600  0.58450800  0.66101600  1
  H  590  1  0.50465800  0.62199100  0.66435700  1
  H  591  1  0.45434400  0.69590300  0.65971100  1
  H  592  1  0.40380800  0.72062900  0.65327000  1
  H  593  1  0.33204600  0.67087900  0.63211700  1
  H  594  1  0.38487300  0.59351500  0.63665000  1
  H  595  1  0.37529700  0.63743800  0.68142000  1
  H  596  1  0.26195300  0.61436700  0.68751300  1
  H  597  1  0.25624300  0.61257900  0.64956200  1
  H  598  1  0.43470400  0.64229500  0.60571200  1
  H  599  1  0.31255400  0.61840400  0.57691900  1
  H  600  1  0.36626700  0.62360300  0.55371200  1
  H  603  1  0.48077300  0.65816200  0.64580100  1
  H  604  1  0.46318400  0.65631500  0.67227900  1
  H  606  1  0.28380500  0.63226200  0.61446200  1
  H  607  1  0.29938800  0.60538200  0.61584000  1
  H  636  1  0.99681200  0.92661000  0.37821600  1
  H  637  1  0.00466700  0.88912800  0.37487600  1
  H  638  1  0.95435900  0.81521500  0.37952100  1
  H  639  1  0.90382300  0.79049000  0.38595600  1
  H  640  1  0.83204400  0.84023800  0.40709300  1
  H  641  1  0.88487000  0.91760300  0.40256300  1
  H  642  1  0.87531700  0.87368800  0.35779300  1
  H  643  1  0.76196900  0.89675200  0.35168800  1
  H  644  1  0.75623900  0.89853300  0.38963900  1
  H  645  1  0.93468400  0.86881400  0.43351000  1
  H  646  1  0.81253400  0.89271900  0.46229000  1
  H  647  1  0.86622900  0.88750700  0.48550000  1
  H  650  1  0.98077600  0.85295800  0.39343000  1
  H  651  1  0.96320400  0.85480200  0.36694900  1
  H  653  1  0.78379700  0.87884100  0.42474000  1
  H  654  1  0.79936000  0.90572700  0.42336700  1
  H  683  1  0.74856900  0.39700300  0.19011400  1
  H  684  1  0.75643300  0.40008000  0.15259500  1
  H  685  1  0.70553300  0.39536000  0.07865200  1
  H  686  1  0.65465000  0.38910600  0.05407900  1
  H  687  1  0.58304700  0.36844000  0.10408400  1
  H  688  1  0.63625500  0.37314500  0.18127600  1
  H  689  1  0.62775000  0.41784000  0.13701000  1
  H  690  1  0.51378100  0.42476400  0.15897700  1
  H  691  1  0.50747700  0.38707600  0.16136000  1
  H  692  1  0.68528100  0.34165500  0.13274200  1
  H  693  1  0.56263000  0.31393400  0.15709200  1
  H  694  1  0.61586700  0.29032200  0.15216000  1
  H  697  1  0.73207700  0.38144200  0.11646400  1
  H  698  1  0.71496400  0.40801800  0.11820600  1
  H  700  1  0.53469400  0.35153300  0.14260600  1
  H  701  1  0.55002800  0.35312500  0.16951700  1
  H  730  1  0.24855700  0.11411700  0.84909900  1
  H  731  1  0.25642600  0.11104200  0.88662000  1
  H  732  1  0.20553500  0.11576300  0.96056300  1
  H  733  1  0.15465600  0.12201100  0.98513900  1
  H  734  1  0.08304300  0.14267600  0.93513500  1
  H  735  1  0.13624400  0.13797400  0.85794200  1
  H  736  1  0.12774900  0.09328100  0.90220700  1
  H  737  1  0.01378700  0.08635400  0.88023100  1
  H  738  1  0.00747700  0.12404200  0.87785100  1
  H  739  1  0.18527000  0.16946700  0.90647800  1
  H  740  1  0.06262900  0.19718700  0.88211600  1
  H  741  1  0.11585900  0.22079600  0.88704800  1
  H  744  1  0.23207600  0.12968200  0.92275200  1
  H  745  1  0.21496300  0.10310600  0.92101000  1
  H  747  1  0.03468500  0.15958400  0.89660800  1
  H  748  1  0.05002600  0.15799400  0.86969900  1
  H  758  1  0.79547900  0.26075500  0.42940700  1
  H  760  1  0.71146400  0.24922200  0.36892200  1
  H  761  1  0.76571100  0.22674800  0.37393800  1
  H  766  1  0.84286100  0.23682400  0.41030600  1
  H  768  1  0.66807500  0.27541200  0.38164000  1
  H  774  1  0.29550400  0.25035400  0.60982400  1
  H  776  1  0.21142900  0.26191200  0.67027900  1
  H  777  1  0.26567700  0.28438500  0.66526800  1
  H  782  1  0.34286700  0.27429000  0.62893400  1
  H  784  1  0.16806700  0.23570600  0.65757200  1
  H  790  1  0.04717500  0.84703200  0.02557700  1
  H  792  1  0.95978800  0.90570000  0.01243800  1
  H  793  1  0.01442900  0.90107200  0.99014500  1
  H  798  1  0.09350000  0.86615300  0.00108900  1
  H  800  1  0.91665300  0.89252200  0.03868900  1
  H  806  1  0.54708800  0.66413500  0.01367400  1
  H  808  1  0.45988000  0.60536800  0.02672300  1
  H  809  1  0.51449700  0.61001500  0.04902700  1
  H  814  1  0.59346900  0.64501100  0.03813900  1
  H  816  1  0.41670800  0.61854100  0.00048600  1
  H  822  1  0.21420700  0.74959900  0.61067600  1
  H  824  1  0.30119300  0.76274800  0.66954100  1
  H  825  1  0.24627800  0.78485400  0.66496500  1
  H  830  1  0.16752300  0.77386700  0.62988900  1
  H  832  1  0.34504700  0.73697600  0.65588300  1
  H  838  1  0.71417300  0.76153200  0.42850900  1
  H  840  1  0.80124300  0.74835300  0.36968900  1
  H  841  1  0.74632300  0.72624600  0.37425200  1
  H  846  1  0.66751500  0.73725700  0.40928200  1
  H  848  1  0.84507900  0.77413300  0.38335300  1
  H  854  1  0.96329900  0.16380000  0.01288600  1
  H  856  1  0.05206900  0.10611100  0.02745900  1
  H  857  1  0.99663900  0.11048300  0.04923200  1
  H  862  1  0.91693300  0.14477100  0.03733700  1
  H  864  1  0.09602100  0.11991600  0.00171100  1
  H  870  1  0.46337700  0.34727300  0.02629400  1
  H  872  1  0.55199500  0.40505300  0.01180100  1
  H  873  1  0.49658100  0.40066400  0.99001600  1
  H  878  1  0.41696500  0.36630400  0.00186200  1
  H  880  1  0.59597900  0.39125300  0.03753500  1
  H  886  1  0.29632700  0.76127200  0.92925900  1
  H  888  1  0.21066600  0.74877100  0.86970800  1
  H  889  1  0.26504800  0.72636400  0.87463100  1
  H  894  1  0.34312400  0.73699000  0.91044000  1
  H  896  1  0.16770700  0.77527000  0.88223400  1
  H  902  1  0.79633300  0.74983800  0.10995600  1
  H  904  1  0.71067900  0.76234600  0.16951000  1
  H  905  1  0.76506400  0.78475100  0.16458300  1
  H  910  1  0.84313600  0.77412000  0.12877400  1
  H  912  1  0.66771100  0.73585100  0.15698300  1
  H  918  1  0.54544500  0.34528500  0.52459500  1
  H  920  1  0.46154300  0.40588600  0.51350000  1
  H  921  1  0.51533700  0.40077400  0.49072500  1
  H  926  1  0.59250200  0.36428300  0.50045300  1
  H  928  1  0.41885300  0.39351800  0.54012400  1
  H  934  1  0.04549400  0.16580800  0.51459800  1
  H  936  1  0.96150300  0.10525500  0.52574000  1
  H  937  1  0.01530900  0.11036100  0.54851100  1
  H  942  1  0.09252200  0.14681800  0.53875100  1
  H  944  1  0.91884200  0.11761300  0.49910200  1
  H  950  1  0.71333300  0.24902900  0.11093500  1
  H  952  1  0.80201100  0.26322600  0.16874500  1
  H  953  1  0.74696400  0.28526200  0.16426300  1
  H  958  1  0.66724100  0.27366400  0.12984600  1
  H  960  1  0.84533000  0.23705400  0.15539800  1
  H  966  1  0.21332700  0.26209500  0.92827400  1
  H  968  1  0.30200500  0.24788800  0.87046600  1
  H  969  1  0.24695500  0.22585700  0.87494800  1
  H  974  1  0.16723200  0.23745900  0.90936300  1
  H  976  1  0.34533900  0.27405300  0.88382100  1
  H  982  1  0.46511900  0.66562300  0.51388600  1
  H  984  1  0.55027700  0.60583500  0.52639900  1
  H  985  1  0.49561900  0.61073200  0.54861300  1
  H  990  1  0.41791800  0.64672000  0.53793300  1
  H  992  1  0.59396900  0.61875300  0.50035800  1
  H  998  1  0.96507500  0.84551500  0.52534500  1
  H  1000  1  0.05030300  0.90526400  0.51278900  1
  H  1001  1  0.99563700  0.90037200  0.49058200  1
  H  1006  1  0.91789800  0.86441100  0.50128800  1
  H  1008  1  0.09397900  0.89235400  0.53884200  1
  H  1014  1  0.86585100  0.15805800  0.28220300  1
  H  1016  1  0.78943400  0.09810700  0.25796400  1
  H  1017  1  0.80348400  0.10176300  0.29479600  1
  H  1022  1  0.86661300  0.14136000  0.31851000  1
  H  1024  1  0.78146100  0.11691400  0.22387400  1
  H  1030  1  0.36583600  0.35306100  0.75701500  1
  H  1032  1  0.28942600  0.41301700  0.78125000  1
  H  1033  1  0.30347500  0.40935700  0.74441800  1
  H  1038  1  0.36661000  0.36976700  0.72070700  1
  H  1040  1  0.28145400  0.39421700  0.81534100  1
  H  1046  1  0.11503300  0.99229500  0.92191300  1
  H  1048  1  0.03866100  0.01698800  0.86215100  1
  H  1049  1  0.05191100  0.98007300  0.86580200  1
  H  1054  1  0.11493700  0.95602300  0.90528200  1
  H  1056  1  0.03188600  0.05116600  0.88054600  1
  H  1062  1  0.61500300  0.51882500  0.11729400  1
  H  1064  1  0.53866200  0.49412900  0.17706700  1
  H  1065  1  0.55190800  0.53104500  0.17341300  1
  H  1070  1  0.61491400  0.55509600  0.13392700  1
  H  1072  1  0.53188700  0.45995200  0.15867800  1
  H  1078  1  0.64642800  0.35268300  0.28245800  1
  H  1080  1  0.71982100  0.41410000  0.25909300  1
  H  1081  1  0.70566000  0.40981800  0.29583600  1
  H  1086  1  0.64400500  0.36927300  0.31884400  1
  H  1088  1  0.72870400  0.39634300  0.22486100  1
  H  1094  1  0.14641100  0.15843400  0.75675700  1
  H  1096  1  0.21979200  0.09701300  0.78012500  1
  H  1097  1  0.20562500  0.10129200  0.74338400  1
  H  1102  1  0.14400300  0.14186000  0.72037300  1
  H  1104  1  0.22869100  0.11477900  0.81435400  1
  H  1110  1  0.39720100  0.51906100  0.92234500  1
  H  1112  1  0.47057400  0.49529400  0.86109700  1
  H  1113  1  0.45722900  0.53211600  0.86540000  1
  H  1118  1  0.39568200  0.55543500  0.90587000  1
  H  1120  1  0.47804100  0.46092400  0.87831000  1
  H  1126  1  0.89716600  0.99205300  0.11687700  1
  H  1128  1  0.97059100  0.01582300  0.17810600  1
  H  1129  1  0.95724700  0.97899900  0.17380500  1
  H  1134  1  0.89566700  0.95568000  0.13334900  1
  H  1136  1  0.97804700  0.05019300  0.16088600  1
  H  1142  1  0.14663700  0.85286500  0.75603100  1
  H  1144  1  0.21999700  0.91379600  0.78068000  1
  H  1145  1  0.20714100  0.90984500  0.74375600  1
  H  1150  1  0.14601000  0.86957400  0.71971900  1
  H  1152  1  0.22744900  0.89562900  0.81488200  1
  H  1158  1  0.64665400  0.65825000  0.28317600  1
  H  1160  1  0.72000000  0.59731300  0.25853200  1
  H  1161  1  0.70714700  0.60126800  0.29545600  1
  H  1166  1  0.64601200  0.64153400  0.31948800  1
  H  1168  1  0.72745100  0.61547400  0.22432700  1
  H  1174  1  0.36316200  0.65883700  0.75577800  1
  H  1176  1  0.29356700  0.59623000  0.77949400  1
  H  1177  1  0.30632800  0.60090800  0.74266200  1
  H  1182  1  0.36551300  0.64232500  0.71935700  1
  H  1184  1  0.28568200  0.61292800  0.81394700  1
  H  1190  1  0.86318000  0.85228300  0.28343500  1
  H  1192  1  0.79359900  0.91489200  0.25971200  1
  H  1193  1  0.80636600  0.91021800  0.29654400  1
  H  1198  1  0.86551600  0.86878000  0.31985300  1
  H  1200  1  0.78570100  0.89818700  0.22526300  1
  H  1206  1  0.61483000  0.49226000  0.42253600  1
  H  1208  1  0.54250000  0.51695800  0.36123500  1
  H  1209  1  0.55584700  0.48006900  0.36504600  1
  H  1214  1  0.61638100  0.45602800  0.40553000  1
  H  1216  1  0.53389400  0.55098000  0.37980800  1
  H  1222  1  0.11482600  0.01885700  0.61667300  1
  H  1224  1  0.04250300  0.99416100  0.67797800  1
  H  1225  1  0.05585200  0.03105100  0.67416500  1
  H  1230  1  0.11638200  0.05509000  0.63367900  1
  H  1232  1  0.03389200  0.96013900  0.65940800  1
  H  1238  1  0.89775500  0.01911100  0.42302600  1
  H  1240  1  0.96615300  0.99527500  0.36004900  1
  H  1241  1  0.95292600  0.03208200  0.36456900  1
  H  1246  1  0.89448100  0.05543700  0.40623000  1
  H  1248  1  0.97527200  0.96101700  0.37717700  1
  H  1254  1  0.39774600  0.49201100  0.61619300  1
  H  1256  1  0.46615200  0.51584200  0.67916800  1
  H  1257  1  0.45292600  0.47903600  0.67464600  1
  H  1262  1  0.39446600  0.45568500  0.63299300  1
  H  1264  1  0.47526900  0.55010100  0.66204600  1
  H  1289  1  0.34401300  0.08710100  0.37739100  1
  H  1290  1  0.34974800  0.12502800  0.37528300  1
  H  1291  1  0.29389000  0.19770200  0.38104100  1
  H  1292  1  0.24040500  0.22101100  0.38648600  1
  H  1293  1  0.17221600  0.16922900  0.40606600  1
  H  1294  1  0.23137800  0.09343000  0.40144900  1
  H  1295  1  0.22043000  0.13789200  0.35718600  1
  H  1296  1  0.10943300  0.11202000  0.34918700  1
  H  1297  1  0.10232900  0.10929400  0.38697400  1
  H  1298  1  0.27547500  0.14319700  0.43419200  1
  H  1299  1  0.15370800  0.11599200  0.46042000  1
  H  1300  1  0.20468300  0.12302500  0.48474900  1
  H  1303  1  0.32284000  0.16027000  0.39495700  1
  H  1304  1  0.30653800  0.15868900  0.36821400  1
  H  1306  1  0.12645000  0.12895800  0.42266800  1
  H  1307  1  0.14446400  0.10254900  0.42108600  1
  H  1336  1  0.84401600  0.42401900  0.66181000  1
  H  1337  1  0.84975400  0.38609200  0.66392000  1
  H  1338  1  0.79390400  0.31341700  0.65816200  1
  H  1339  1  0.74041700  0.29010500  0.65272600  1
  H  1340  1  0.67221000  0.34188800  0.63315700  1
  H  1341  1  0.73137200  0.41768900  0.63776700  1
  H  1342  1  0.72041900  0.37322500  0.68203100  1
  H  1343  1  0.60942200  0.39909600  0.69002700  1
  H  1344  1  0.60232100  0.40182300  0.65224100  1
  H  1345  1  0.77547100  0.36792000  0.60502600  1
  H  1346  1  0.65370800  0.39512800  0.57879500  1
  H  1347  1  0.70468600  0.38809500  0.55446800  1
  H  1350  1  0.82283400  0.35085000  0.64424600  1
  H  1351  1  0.80655600  0.35242900  0.67099200  1
  H  1353  1  0.62644600  0.38216200  0.61654500  1
  H  1354  1  0.64446100  0.40857000  0.61812900  1
  H  1383  1  0.59235100  0.89583900  0.84995100  1
  H  1384  1  0.59859900  0.89852800  0.88760400  1
  H  1385  1  0.54378000  0.89436600  0.96071900  1
  H  1386  1  0.49074600  0.88922300  0.98441800  1
  H  1387  1  0.42160500  0.86894100  0.93329500  1
  H  1388  1  0.47896700  0.87298600  0.85702800  1
  H  1389  1  0.46904700  0.91754400  0.90139500  1
  H  1390  1  0.35740000  0.92535200  0.87635800  1
  H  1391  1  0.35036600  0.88753600  0.87380600  1
  H  1392  1  0.52447700  0.84071800  0.90683500  1
  H  1393  1  0.40245400  0.81409400  0.88041200  1
  H  1394  1  0.45376400  0.78991400  0.88723300  1
  H  1397  1  0.57193200  0.87981400  0.92324800  1
  H  1398  1  0.55591600  0.90659400  0.92145800  1
  H  1400  1  0.37512900  0.85189500  0.89341200  1
  H  1401  1  0.39257700  0.85338500  0.86688500  1
  H  1430  1  0.09234840  0.61526300  0.18925300  1
  H  1431  1  0.09858340  0.61257200  0.15159900  1
  H  1432  1  0.04373040  0.61673000  0.07848800  1
  H  1433  1  0.99069300  0.62188700  0.05480000  1
  H  1434  1  0.92159400  0.64219100  0.10592700  1
  H  1435  1  0.97897100  0.63813000  0.18218700  1
  H  1436  1  0.96902800  0.59357400  0.13781400  1
  H  1437  1  0.85738900  0.58577000  0.16286400  1
  H  1438  1  0.85036600  0.62358400  0.16542200  1
  H  1439  1  0.02446840  0.67039900  0.13237600  1
  H  1440  1  0.90246800  0.69702300  0.15882900  1
  H  1441  1  0.95377500  0.72120100  0.15200200  1
  H  1444  1  0.07191740  0.63128800  0.11596000  1
  H  1445  1  0.05587940  0.60451300  0.11774700  1
  H  1447  1  0.87512600  0.65922600  0.14581900  1
  H  1448  1  0.89258600  0.65773100  0.17234300  1
  H  1477  1  0.85932700  0.42574400  0.37567000  1
  H  1478  1  0.85204100  0.38796100  0.37289300  1
  H  1479  1  0.90325000  0.31443300  0.37951700  1
  H  1480  1  0.95420500  0.29008400  0.38651100  1
  H  1481  1  0.02500240  0.34058800  0.40682200  1
  H  1482  1  0.97021800  0.41754100  0.40161300  1
  H  1483  1  0.98116600  0.37338500  0.35704400  1
  H  1484  1  0.09391440  0.39734000  0.35091600  1
  H  1485  1  0.09947540  0.39939300  0.38884500  1
  H  1486  1  0.92171500  0.36873400  0.43289100  1
  H  1487  1  0.04343240  0.39360900  0.46143000  1
  H  1488  1  0.98991600  0.38819900  0.48471200  1
  H  1491  1  0.87601000  0.35219000  0.39252900  1
  H  1492  1  0.89407900  0.35379500  0.36613200  1
  H  1494  1  0.07238840  0.37970900  0.42400800  1
  H  1495  1  0.05617340  0.40647000  0.42245200  1
  H  1524  1  0.35931700  0.08537500  0.66352600  1
  H  1525  1  0.35203000  0.12315800  0.66629800  1
  H  1526  1  0.40323900  0.19668700  0.65967600  1
  H  1527  1  0.45419400  0.22103700  0.65268600  1
  H  1528  1  0.52500700  0.17053100  0.63239300  1
  H  1529  1  0.47022100  0.09357700  0.63759900  1
  H  1530  1  0.48114600  0.13772600  0.68216800  1
  H  1531  1  0.59389800  0.11377500  0.68830800  1
  H  1532  1  0.59947600  0.11173000  0.65038000  1
  H  1533  1  0.42173700  0.14239300  0.60631300  1
  H  1534  1  0.54345500  0.11750500  0.57778800  1
  H  1535  1  0.48995300  0.12292600  0.55450100  1
  H  1538  1  0.37600700  0.15892700  0.64666400  1
  H  1539  1  0.39406100  0.15732500  0.67306300  1
  H  1541  1  0.57240000  0.13141900  0.61521500  1
  H  1542  1  0.55619500  0.10465600  0.61676500  1
  H  1571  1  0.61080200  0.61390200  0.84836900  1
  H  1572  1  0.60309700  0.61048300  0.88585100  1
  H  1573  1  0.65359200  0.61513400  0.95974600  1
  H  1574  1  0.70414300  0.62165300  0.98444900  1
  H  1575  1  0.77573100  0.64287200  0.93466000  1
  H  1576  1  0.72271700  0.63831100  0.85729800  1
  H  1577  1  0.73253300  0.59346700  0.90126900  1
  H  1578  1  0.84590200  0.58748100  0.87821300  1
  H  1579  1  0.85145500  0.62543100  0.87636100  1
  H  1580  1  0.67289400  0.66919200  0.90610300  1
  H  1581  1  0.79494400  0.69803500  0.88212700  1
  H  1582  1  0.74120200  0.72121400  0.88733000  1
  H  1585  1  0.62703100  0.62901000  0.92202100  1
  H  1586  1  0.64471000  0.60255400  0.92014700  1
  H  1588  1  0.82379000  0.66051800  0.89601200  1
  H  1589  1  0.80819600  0.65911400  0.86913400  1
  H  1618  1  0.11081300  0.89720900  0.19084300  1
  H  1619  1  0.10310000  0.90062600  0.15336100  1
  H  1620  1  0.15358100  0.89597500  0.07946400  1
  H  1621  1  0.20412900  0.88946300  0.05475800  1
  H  1622  1  0.27573200  0.86824700  0.10454400  1
  H  1623  1  0.22272900  0.87280400  0.18191000  1
  H  1624  1  0.23252700  0.91764600  0.13794400  1
  H  1625  1  0.34589300  0.92363700  0.16100200  1
  H  1626  1  0.35145800  0.88568700  0.16284300  1
  H  1627  1  0.17290000  0.84192000  0.13310600  1
  H  1628  1  0.29495600  0.81308100  0.15707700  1
  H  1629  1  0.24121700  0.78989900  0.15188000  1
  H  1632  1  0.12703100  0.88209700  0.11719000  1
  H  1633  1  0.14470700  0.90855600  0.11906300  1
  H  1635  1  0.32380200  0.85060000  0.14319500  1
  H  1636  1  0.30819900  0.85200100  0.17007000  1
  H  1665  1  0.36194400  0.92506600  0.65960600  1
  H  1666  1  0.35557000  0.88741000  0.66223700  1
  H  1667  1  0.41022500  0.81426900  0.65806500  1
  H  1668  1  0.46323000  0.79054200  0.65292400  1
  H  1669  1  0.53252100  0.84164300  0.63275200  1
  H  1670  1  0.47535600  0.91791300  0.63681000  1
  H  1671  1  0.48501700  0.87361600  0.68131500  1
  H  1672  1  0.59665400  0.89863200  0.68924400  1
  H  1673  1  0.60388400  0.90110000  0.65143000  1
  H  1674  1  0.42985900  0.86816400  0.60449400  1
  H  1675  1  0.55204300  0.89445000  0.57794500  1
  H  1676  1  0.50076600  0.88767500  0.55373400  1
  H  1679  1  0.38219700  0.85176500  0.64350900  1
  H  1680  1  0.39813500  0.85352700  0.67030600  1
  H  1682  1  0.57922200  0.88144400  0.61578100  1
  H  1683  1  0.56185000  0.90798800  0.61723000  1
  H  1712  1  0.86194300  0.58605200  0.37961600  1
  H  1713  1  0.85556400  0.62370700  0.37698800  1
  H  1714  1  0.91021000  0.69684900  0.38116500  1
  H  1715  1  0.96322100  0.72057800  0.38628500  1
  H  1716  1  0.03253440  0.66947500  0.40644200  1
  H  1717  1  0.97536400  0.59320600  0.40239800  1
  H  1718  1  0.98502400  0.63750000  0.35789400  1
  H  1719  1  0.09666040  0.61248100  0.34996800  1
  H  1720  1  0.10388800  0.61001400  0.38778100  1
  H  1721  1  0.92986700  0.64295700  0.43471400  1
  H  1722  1  0.05204640  0.61666800  0.46126600  1
  H  1723  1  0.00076837  0.62344700  0.48547600  1
  H  1726  1  0.88220400  0.65935200  0.39571900  1
  H  1727  1  0.89811300  0.65759100  0.36891700  1
  H  1729  1  0.07922640  0.62967200  0.42342900  1
  H  1730  1  0.06185040  0.60312800  0.42198100  1
  H  1759  1  0.11021800  0.11578100  0.18859900  1
  H  1760  1  0.10377500  0.11335200  0.15090900  1
  H  1761  1  0.15878500  0.11759600  0.07769900  1
  H  1762  1  0.21199800  0.12253900  0.05407000  1
  H  1763  1  0.28138000  0.14209400  0.10536300  1
  H  1764  1  0.22404900  0.13791300  0.18151300  1
  H  1765  1  0.23254200  0.09352500  0.13691500  1
  H  1766  1  0.34500400  0.08482600  0.16060400  1
  H  1767  1  0.35273000  0.12234800  0.16367200  1
  H  1768  1  0.17916700  0.17075300  0.13212400  1
  H  1769  1  0.30171600  0.19624200  0.15889700  1
  H  1770  1  0.25083900  0.22080900  0.15259000  1
  H  1773  1  0.13082800  0.13210300  0.11529700  1
  H  1774  1  0.14626300  0.10521300  0.11692400  1
  H  1776  1  0.32823200  0.15842300  0.14505200  1
  H  1777  1  0.31117600  0.15670900  0.17164100  1
  H  1806  1  0.61022000  0.39535200  0.85062300  1
  H  1807  1  0.60378800  0.39778200  0.88831300  1
  H  1808  1  0.65883400  0.39354200  0.96151800  1
  H  1809  1  0.71205300  0.38858600  0.98513900  1
  H  1810  1  0.78139400  0.36900900  0.93383900  1
  H  1811  1  0.72404300  0.37320700  0.85769600  1
  H  1812  1  0.73255600  0.41759200  0.90230200  1
  H  1813  1  0.84500900  0.42629100  0.87859900  1
  H  1814  1  0.85272800  0.38876800  0.87552400  1
  H  1815  1  0.67917800  0.34036200  0.90709200  1
  H  1816  1  0.80170400  0.31487700  0.88028500  1
  H  1817  1  0.75083300  0.29031100  0.88659800  1
  H  1820  1  0.63084400  0.37902900  0.92392100  1
  H  1821  1  0.64629800  0.40591600  0.92229600  1
  H  1823  1  0.82823400  0.35269300  0.89414200  1
  H  1824  1  0.81116700  0.35441000  0.86755500  1
  H  1853  1  0.84334000  0.58450800  0.66101600  1
  H  1854  1  0.85119200  0.62199100  0.66435700  1
  H  1855  1  0.80087800  0.69590300  0.65971100  1
  H  1856  1  0.75034200  0.72062900  0.65327000  1
  H  1857  1  0.67858000  0.67087900  0.63211700  1
  H  1858  1  0.73140700  0.59351500  0.63665000  1
  H  1859  1  0.72183100  0.63743800  0.68142000  1
  H  1860  1  0.60848700  0.61436700  0.68751300  1
  H  1861  1  0.60277700  0.61257900  0.64956200  1
  H  1862  1  0.78123800  0.64229500  0.60571200  1
  H  1863  1  0.65908800  0.61840400  0.57691900  1
  H  1864  1  0.71280100  0.62360300  0.55371200  1
  H  1867  1  0.82730700  0.65816200  0.64580100  1
  H  1868  1  0.80971800  0.65631500  0.67227900  1
  H  1870  1  0.63033900  0.63226200  0.61446200  1
  H  1871  1  0.64592200  0.60538200  0.61584000  1
  H  1900  1  0.34334600  0.92661000  0.37821600  1
  H  1901  1  0.35120100  0.88912800  0.37487600  1
  H  1902  1  0.30089300  0.81521500  0.37952100  1
  H  1903  1  0.25035700  0.79049000  0.38595600  1
  H  1904  1  0.17857800  0.84023800  0.40709300  1
  H  1905  1  0.23140400  0.91760300  0.40256300  1
  H  1906  1  0.22185100  0.87368800  0.35779300  1
  H  1907  1  0.10850300  0.89675200  0.35168800  1
  H  1908  1  0.10277300  0.89853300  0.38963900  1
  H  1909  1  0.28121800  0.86881400  0.43351000  1
  H  1910  1  0.15906800  0.89271900  0.46229000  1
  H  1911  1  0.21276300  0.88750700  0.48550000  1
  H  1914  1  0.32731000  0.85295800  0.39343000  1
  H  1915  1  0.30973800  0.85480200  0.36694900  1
  H  1917  1  0.13033100  0.87884100  0.42474000  1
  H  1918  1  0.14589400  0.90572700  0.42336700  1
  H  1947  1  0.09510340  0.39700300  0.19011400  1
  H  1948  1  0.10296700  0.40008000  0.15259500  1
  H  1949  1  0.05206740  0.39536000  0.07865200  1
  H  1950  1  0.00118437  0.38910600  0.05407900  1
  H  1951  1  0.92958100  0.36844000  0.10408400  1
  H  1952  1  0.98278900  0.37314500  0.18127600  1
  H  1953  1  0.97428400  0.41784000  0.13701000  1
  H  1954  1  0.86031500  0.42476400  0.15897700  1
  H  1955  1  0.85401100  0.38707600  0.16136000  1
  H  1956  1  0.03181540  0.34165500  0.13274200  1
  H  1957  1  0.90916400  0.31393400  0.15709200  1
  H  1958  1  0.96240100  0.29032200  0.15216000  1
  H  1961  1  0.07861140  0.38144200  0.11646400  1
  H  1962  1  0.06149840  0.40801800  0.11820600  1
  H  1964  1  0.88122800  0.35153300  0.14260600  1
  H  1965  1  0.89656200  0.35312500  0.16951700  1
  H  1994  1  0.59509100  0.11411700  0.84909900  1
  H  1995  1  0.60296000  0.11104200  0.88662000  1
  H  1996  1  0.55206900  0.11576300  0.96056300  1
  H  1997  1  0.50119000  0.12201100  0.98513900  1
  H  1998  1  0.42957700  0.14267600  0.93513500  1
  H  1999  1  0.48277800  0.13797400  0.85794200  1
  H  2000  1  0.47428300  0.09328100  0.90220700  1
  H  2001  1  0.36032100  0.08635400  0.88023100  1
  H  2002  1  0.35401100  0.12404200  0.87785100  1
  H  2003  1  0.53180400  0.16946700  0.90647800  1
  H  2004  1  0.40916300  0.19718700  0.88211600  1
  H  2005  1  0.46239300  0.22079600  0.88704800  1
  H  2008  1  0.57861000  0.12968200  0.92275200  1
  H  2009  1  0.56149700  0.10310600  0.92101000  1
  H  2011  1  0.38121900  0.15958400  0.89660800  1
  H  2012  1  0.39656000  0.15799400  0.86969900  1
  H  2022  1  0.14201300  0.26075500  0.42940700  1
  H  2024  1  0.05799840  0.24922200  0.36892200  1
  H  2025  1  0.11224500  0.22674800  0.37393800  1
  H  2030  1  0.18939500  0.23682400  0.41030600  1
  H  2032  1  0.01460940  0.27541200  0.38164000  1
  H  2038  1  0.64203800  0.25035400  0.60982400  1
  H  2040  1  0.55796300  0.26191200  0.67027900  1
  H  2041  1  0.61221100  0.28438500  0.66526800  1
  H  2046  1  0.68940100  0.27429000  0.62893400  1
  H  2048  1  0.51460100  0.23570600  0.65757200  1
  H  2054  1  0.39370900  0.84703200  0.02557700  1
  H  2056  1  0.30632200  0.90570000  0.01243800  1
  H  2057  1  0.36096300  0.90107200  0.99014500  1
  H  2062  1  0.44003400  0.86615300  0.00108900  1
  H  2064  1  0.26318700  0.89252200  0.03868900  1
  H  2070  1  0.89362200  0.66413500  0.01367400  1
  H  2072  1  0.80641400  0.60536800  0.02672300  1
  H  2073  1  0.86103100  0.61001500  0.04902700  1
  H  2078  1  0.94000300  0.64501100  0.03813900  1
  H  2080  1  0.76324200  0.61854100  0.00048600  1
  H  2086  1  0.56074100  0.74959900  0.61067600  1
  H  2088  1  0.64772700  0.76274800  0.66954100  1
  H  2089  1  0.59281200  0.78485400  0.66496500  1
  H  2094  1  0.51405700  0.77386700  0.62988900  1
  H  2096  1  0.69158100  0.73697600  0.65588300  1
  H  2102  1  0.06070740  0.76153200  0.42850900  1
  H  2104  1  0.14777700  0.74835300  0.36968900  1
  H  2105  1  0.09285740  0.72624600  0.37425200  1
  H  2110  1  0.01404940  0.73725700  0.40928200  1
  H  2112  1  0.19161300  0.77413300  0.38335300  1
  H  2118  1  0.30983300  0.16380000  0.01288600  1
  H  2120  1  0.39860300  0.10611100  0.02745900  1
  H  2121  1  0.34317300  0.11048300  0.04923200  1
  H  2126  1  0.26346700  0.14477100  0.03733700  1
  H  2128  1  0.44255500  0.11991600  0.00171100  1
  H  2134  1  0.80991100  0.34727300  0.02629400  1
  H  2136  1  0.89852900  0.40505300  0.01180100  1
  H  2137  1  0.84311500  0.40066400  0.99001600  1
  H  2142  1  0.76349900  0.36630400  0.00186200  1
  H  2144  1  0.94251300  0.39125300  0.03753500  1
  H  2150  1  0.64286100  0.76127200  0.92925900  1
  H  2152  1  0.55720000  0.74877100  0.86970800  1
  H  2153  1  0.61158200  0.72636400  0.87463100  1
  H  2158  1  0.68965800  0.73699000  0.91044000  1
  H  2160  1  0.51424100  0.77527000  0.88223400  1
  H  2166  1  0.14286700  0.74983800  0.10995600  1
  H  2168  1  0.05721340  0.76234600  0.16951000  1
  H  2169  1  0.11159800  0.78475100  0.16458300  1
  H  2174  1  0.18967000  0.77412000  0.12877400  1
  H  2176  1  0.01424540  0.73585100  0.15698300  1
  H  2182  1  0.89197900  0.34528500  0.52459500  1
  H  2184  1  0.80807700  0.40588600  0.51350000  1
  H  2185  1  0.86187100  0.40077400  0.49072500  1
  H  2190  1  0.93903600  0.36428300  0.50045300  1
  H  2192  1  0.76538700  0.39351800  0.54012400  1
  H  2198  1  0.39202800  0.16580800  0.51459800  1
  H  2200  1  0.30803700  0.10525500  0.52574000  1
  H  2201  1  0.36184300  0.11036100  0.54851100  1
  H  2206  1  0.43905600  0.14681800  0.53875100  1
  H  2208  1  0.26537600  0.11761300  0.49910200  1
  H  2214  1  0.05986740  0.24902900  0.11093500  1
  H  2216  1  0.14854500  0.26322600  0.16874500  1
  H  2217  1  0.09349840  0.28526200  0.16426300  1
  H  2222  1  0.01377540  0.27366400  0.12984600  1
  H  2224  1  0.19186400  0.23705400  0.15539800  1
  H  2230  1  0.55986100  0.26209500  0.92827400  1
  H  2232  1  0.64853900  0.24788800  0.87046600  1
  H  2233  1  0.59348900  0.22585700  0.87494800  1
  H  2238  1  0.51376600  0.23745900  0.90936300  1
  H  2240  1  0.69187300  0.27405300  0.88382100  1
  H  2246  1  0.81165300  0.66562300  0.51388600  1
  H  2248  1  0.89681100  0.60583500  0.52639900  1
  H  2249  1  0.84215300  0.61073200  0.54861300  1
  H  2254  1  0.76445200  0.64672000  0.53793300  1
  H  2256  1  0.94050300  0.61875300  0.50035800  1
  H  2262  1  0.31160900  0.84551500  0.52534500  1
  H  2264  1  0.39683700  0.90526400  0.51278900  1
  H  2265  1  0.34217100  0.90037200  0.49058200  1
  H  2270  1  0.26443200  0.86441100  0.50128800  1
  H  2272  1  0.44051300  0.89235400  0.53884200  1
  H  2278  1  0.21238500  0.15805800  0.28220300  1
  H  2280  1  0.13596800  0.09810700  0.25796400  1
  H  2281  1  0.15001800  0.10176300  0.29479600  1
  H  2286  1  0.21314700  0.14136000  0.31851000  1
  H  2288  1  0.12799500  0.11691400  0.22387400  1
  H  2294  1  0.71237000  0.35306100  0.75701500  1
  H  2296  1  0.63596000  0.41301700  0.78125000  1
  H  2297  1  0.65000900  0.40935700  0.74441800  1
  H  2302  1  0.71314400  0.36976700  0.72070700  1
  H  2304  1  0.62798800  0.39421700  0.81534100  1
  H  2310  1  0.46156700  0.99229500  0.92191300  1
  H  2312  1  0.38519500  0.01698800  0.86215100  1
  H  2313  1  0.39844500  0.98007300  0.86580200  1
  H  2318  1  0.46147100  0.95602300  0.90528200  1
  H  2320  1  0.37842000  0.05116600  0.88054600  1
  H  2326  1  0.96153700  0.51882500  0.11729400  1
  H  2328  1  0.88519600  0.49412900  0.17706700  1
  H  2329  1  0.89844200  0.53104500  0.17341300  1
  H  2334  1  0.96144800  0.55509600  0.13392700  1
  H  2336  1  0.87842100  0.45995200  0.15867800  1
  H  2342  1  0.99296200  0.35268300  0.28245800  1
  H  2344  1  0.06635540  0.41410000  0.25909300  1
  H  2345  1  0.05219440  0.40981800  0.29583600  1
  H  2350  1  0.99053900  0.36927300  0.31884400  1
  H  2352  1  0.07523840  0.39634300  0.22486100  1
  H  2358  1  0.49294500  0.15843400  0.75675700  1
  H  2360  1  0.56632600  0.09701300  0.78012500  1
  H  2361  1  0.55215900  0.10129200  0.74338400  1
  H  2366  1  0.49053700  0.14186000  0.72037300  1
  H  2368  1  0.57522500  0.11477900  0.81435400  1
  H  2374  1  0.74373500  0.51906100  0.92234500  1
  H  2376  1  0.81710800  0.49529400  0.86109700  1
  H  2377  1  0.80376300  0.53211600  0.86540000  1
  H  2382  1  0.74221600  0.55543500  0.90587000  1
  H  2384  1  0.82457500  0.46092400  0.87831000  1
  H  2390  1  0.24370000  0.99205300  0.11687700  1
  H  2392  1  0.31712500  0.01582300  0.17810600  1
  H  2393  1  0.30378100  0.97899900  0.17380500  1
  H  2398  1  0.24220100  0.95568000  0.13334900  1
  H  2400  1  0.32458100  0.05019300  0.16088600  1
  H  2406  1  0.49317100  0.85286500  0.75603100  1
  H  2408  1  0.56653100  0.91379600  0.78068000  1
  H  2409  1  0.55367500  0.90984500  0.74375600  1
  H  2414  1  0.49254400  0.86957400  0.71971900  1
  H  2416  1  0.57398300  0.89562900  0.81488200  1
  H  2422  1  0.99318800  0.65825000  0.28317600  1
  H  2424  1  0.06653440  0.59731300  0.25853200  1
  H  2425  1  0.05368140  0.60126800  0.29545600  1
  H  2430  1  0.99254600  0.64153400  0.31948800  1
  H  2432  1  0.07398540  0.61547400  0.22432700  1
  H  2438  1  0.70969600  0.65883700  0.75577800  1
  H  2440  1  0.64010100  0.59623000  0.77949400  1
  H  2441  1  0.65286200  0.60090800  0.74266200  1
  H  2446  1  0.71204700  0.64232500  0.71935700  1
  H  2448  1  0.63221600  0.61292800  0.81394700  1
  H  2454  1  0.20971400  0.85228300  0.28343500  1
  H  2456  1  0.14013300  0.91489200  0.25971200  1
  H  2457  1  0.15290000  0.91021800  0.29654400  1
  H  2462  1  0.21205000  0.86878000  0.31985300  1
  H  2464  1  0.13223500  0.89818700  0.22526300  1
  H  2470  1  0.96136400  0.49226000  0.42253600  1
  H  2472  1  0.88903400  0.51695800  0.36123500  1
  H  2473  1  0.90238100  0.48006900  0.36504600  1
  H  2478  1  0.96291500  0.45602800  0.40553000  1
  H  2480  1  0.88042800  0.55098000  0.37980800  1
  H  2486  1  0.46136000  0.01885700  0.61667300  1
  H  2488  1  0.38903700  0.99416100  0.67797800  1
  H  2489  1  0.40238600  0.03105100  0.67416500  1
  H  2494  1  0.46291600  0.05509000  0.63367900  1
  H  2496  1  0.38042600  0.96013900  0.65940800  1
  H  2502  1  0.24428900  0.01911100  0.42302600  1
  H  2504  1  0.31268700  0.99527500  0.36004900  1
  H  2505  1  0.29946000  0.03208200  0.36456900  1
  H  2510  1  0.24101500  0.05543700  0.40623000  1
  H  2512  1  0.32180600  0.96101700  0.37717700  1
  H  2518  1  0.74428000  0.49201100  0.61619300  1
  H  2520  1  0.81268600  0.51584200  0.67916800  1
  H  2521  1  0.79946000  0.47903600  0.67464600  1
  H  2526  1  0.74100000  0.45568500  0.63299300  1
  H  2528  1  0.82180300  0.55010100  0.66204600  1
  C  1  1  0.87279600  0.13342900  0.42460800  1
  C  2  1  0.83745300  0.12511000  0.43243900  1
  C  3  1  0.81093700  0.12184800  0.39483200  1
  C  4  1  0.84564500  0.13023400  0.38624300  1
  C  5  1  0.84893700  0.13202800  0.36361500  1
  C  6  1  0.81906900  0.12540300  0.34969200  1
  C  7  1  0.78506500  0.11707600  0.35874900  1
  C  8  1  0.78090400  0.11547400  0.38096200  1
  C  9  1  0.83269600  0.12180300  0.45457200  1
  C  10  1  0.86296900  0.12578100  0.46891100  1
  C  11  1  0.89924300  0.13318600  0.46168800  1
  C  12  1  0.90300000  0.13756600  0.43961200  1
  C  13  1  0.91232100  0.12289200  0.39464300  1
  C  14  1  0.94710200  0.13204600  0.38698700  1
  C  15  1  0.91856200  0.16922900  0.39013500  1
  C  16  1  0.88314300  0.16073000  0.39768600  1
  C  17  1  0.92212000  0.19144300  0.38679800  1
  C  18  1  0.89073200  0.20521100  0.39017200  1
  C  19  1  0.85493200  0.19732500  0.39749500  1
  C  20  1  0.85179900  0.17513100  0.40122500  1
  C  21  1  0.90990100  0.10022800  0.39616300  1
  C  22  1  0.94065600  0.08676200  0.38989300  1
  C  23  1  0.97470000  0.09633600  0.38221600  1
  C  24  1  0.97805000  0.11862500  0.38097700  1
  C  37  1  0.87845300  0.13688700  0.40084700  1
  C  38  1  0.95213500  0.15546600  0.38480800  1
  C  41  1  0.80492500  0.11931300  0.41813500  1
  C  48  1  0.37279300  0.37768900  0.61460900  1
  C  49  1  0.33744900  0.38600900  0.60677800  1
  C  50  1  0.31092800  0.38926900  0.64438300  1
  C  51  1  0.34563900  0.38088400  0.65297200  1
  C  52  1  0.34892800  0.37908800  0.67560200  1
  C  53  1  0.31905700  0.38571400  0.68952300  1
  C  54  1  0.28505500  0.39404000  0.68046500  1
  C  55  1  0.28089500  0.39564400  0.65825300  1
  C  56  1  0.33269600  0.38931700  0.58464500  1
  C  57  1  0.36297200  0.38533900  0.57030600  1
  C  58  1  0.39924200  0.37793300  0.57752800  1
  C  59  1  0.40299600  0.37355200  0.59960600  1
  C  60  1  0.41231200  0.38822600  0.64457400  1
  C  61  1  0.44709900  0.37907400  0.65222600  1
  C  62  1  0.41856200  0.34189100  0.64908200  1
  C  63  1  0.38314000  0.35038800  0.64153100  1
  C  64  1  0.42212500  0.31967600  0.65241200  1
  C  65  1  0.39073800  0.30590500  0.64904300  1
  C  66  1  0.35492900  0.31379400  0.64173800  1
  C  67  1  0.35179600  0.33598700  0.63799200  1
  C  68  1  0.40988700  0.41089100  0.64306400  1
  C  69  1  0.44065300  0.42435800  0.64932100  1
  C  70  1  0.47470000  0.41478400  0.65699000  1
  C  71  1  0.47805000  0.39249400  0.65823100  1
  C  84  1  0.37844700  0.37423100  0.63837000  1
  C  85  1  0.45213500  0.35565500  0.65440100  1
  C  88  1  0.30492100  0.39180700  0.62108000  1
  C  95  1  0.12155200  0.85012200  0.89732900  1
  C  96  1  0.08611000  0.84218800  0.88925000  1
  C  97  1  0.05929300  0.87976600  0.88597100  1
  C  98  1  0.09415700  0.88844300  0.89405500  1
  C  99  1  0.09742500  0.91108100  0.89574200  1
  C  100  1  0.06735300  0.92496400  0.88932100  1
  C  101  1  0.03319400  0.91582800  0.88127100  1
  C  102  1  0.02907700  0.89359700  0.87976200  1
  C  103  1  0.08150100  0.82002600  0.88605900  1
  C  104  1  0.11196900  0.80577000  0.88992800  1
  C  105  1  0.14831200  0.81309200  0.89713300  1
  C  106  1  0.15194000  0.83520400  0.90138700  1
  C  107  1  0.16061700  0.88004100  0.88625200  1
  C  108  1  0.19570100  0.88758400  0.89510700  1
  C  109  1  0.16791400  0.88492800  0.93253100  1
  C  110  1  0.13233100  0.87727200  0.92435000  1
  C  111  1  0.17188000  0.88854200  0.95468400  1
  C  112  1  0.14076100  0.88533100  0.96868900  1
  C  113  1  0.10479600  0.87792400  0.96111000  1
  C  114  1  0.10128600  0.87387300  0.93898600  1
  C  115  1  0.15766800  0.87838500  0.86361100  1
  C  116  1  0.18802200  0.88433800  0.84977100  1
  C  117  1  0.22275800  0.89156800  0.85915600  1
  C  118  1  0.22653300  0.89310400  0.88141300  1
  C  131  1  0.12714100  0.87391400  0.90056400  1
  C  132  1  0.20124700  0.88999400  0.91848000  1
  C  135  1  0.05337500  0.85642800  0.88358800  1
  C  142  1  0.62155000  0.66099500  0.14189200  1
  C  143  1  0.58611100  0.66893000  0.14997500  1
  C  144  1  0.55928600  0.63135200  0.15325100  1
  C  145  1  0.59414500  0.62267500  0.14516100  1
  C  146  1  0.59740800  0.60003700  0.14347000  1
  C  147  1  0.56733800  0.58615600  0.14989400  1
  C  148  1  0.53318400  0.59529200  0.15795100  1
  C  149  1  0.52907200  0.61752300  0.15946200  1
  C  150  1  0.58150200  0.69109200  0.15316400  1
  C  151  1  0.61197700  0.70534700  0.14930300  1
  C  152  1  0.64831700  0.69802400  0.14209300  1
  C  153  1  0.65194700  0.67591100  0.13784800  1
  C  154  1  0.66060700  0.63106900  0.15296100  1
  C  155  1  0.69568500  0.62352200  0.14410200  1
  C  156  1  0.66789000  0.62619000  0.10668000  1
  C  157  1  0.63231600  0.63385100  0.11486600  1
  C  158  1  0.67185200  0.62258200  0.08452600  1
  C  159  1  0.64071900  0.62578700  0.07052800  1
  C  160  1  0.60476300  0.63321000  0.07810800  1
  C  161  1  0.60126900  0.63725600  0.10023300  1
  C  162  1  0.65766200  0.63271900  0.17560300  1
  C  163  1  0.68802100  0.62676900  0.18944000  1
  C  164  1  0.72275300  0.61953400  0.18005100  1
  C  165  1  0.72651500  0.61799200  0.15779400  1
  C  178  1  0.62713200  0.63720200  0.13865300  1
  C  179  1  0.70122400  0.62111300  0.12072900  1
  C  182  1  0.55337500  0.65469100  0.15563800  1
  C  189  1  0.63268800  0.37705600  0.42441200  1
  C  190  1  0.66811300  0.38457200  0.43293500  1
  C  191  1  0.69675100  0.38774800  0.39577200  1
  C  192  1  0.66198200  0.38013500  0.38656700  1
  C  193  1  0.65964600  0.37867200  0.36388600  1
  C  194  1  0.69049000  0.38493400  0.35046400  1
  C  195  1  0.72452300  0.39253900  0.36010600  1
  C  196  1  0.72777100  0.39375100  0.38239900  1
  C  197  1  0.67164200  0.38788900  0.45515400  1
  C  198  1  0.64025100  0.38450500  0.46891400  1
  C  199  1  0.60441400  0.37725200  0.46100900  1
  C  200  1  0.60131200  0.37353300  0.43880500  1
  C  201  1  0.59531200  0.38854800  0.39389600  1
  C  202  1  0.56058600  0.38001200  0.38547600  1
  C  203  1  0.58700300  0.34238700  0.38870300  1
  C  204  1  0.62234400  0.35019000  0.39705400  1
  C  205  1  0.58223600  0.32026500  0.38535300  1
  C  206  1  0.61248800  0.30591100  0.38932800  1
  C  207  1  0.64874700  0.31311700  0.39676900  1
  C  208  1  0.65251900  0.33518000  0.40118900  1
  C  209  1  0.59869600  0.41115900  0.39573500  1
  C  210  1  0.56891400  0.42512500  0.38910600  1
  C  211  1  0.53489000  0.41613700  0.38073400  1
  C  212  1  0.53063100  0.39393100  0.37909300  1
  C  225  1  0.62806800  0.37393000  0.40054700  1
  C  226  1  0.55451300  0.35671800  0.38290500  1
  C  229  1  0.70172400  0.38988600  0.41919900  1
  C  236  1  0.13270200  0.13406300  0.61480000  1
  C  237  1  0.16812900  0.12654900  0.60628000  1
  C  238  1  0.19675300  0.12337200  0.64344700  1
  C  239  1  0.16197900  0.13098400  0.65264800  1
  C  240  1  0.15963700  0.13244700  0.67532900  1
  C  241  1  0.19047200  0.12618100  0.68875300  1
  C  242  1  0.22451200  0.11857800  0.67911600  1
  C  243  1  0.22776900  0.11737000  0.65682200  1
  C  244  1  0.17167700  0.12324100  0.58406200  1
  C  245  1  0.14027000  0.12659600  0.57030300  1
  C  246  1  0.10444700  0.13388200  0.57819400  1
  C  247  1  0.10133400  0.13759000  0.60040200  1
  C  248  1  0.09531000  0.12257100  0.64531000  1
  C  249  1  0.06058100  0.13110800  0.65372500  1
  C  250  1  0.08700000  0.16873200  0.65050000  1
  C  251  1  0.12234400  0.16092700  0.64215600  1
  C  252  1  0.08222800  0.19085600  0.65384600  1
  C  253  1  0.11248500  0.20520800  0.64987900  1
  C  254  1  0.14874400  0.19800200  0.64244200  1
  C  255  1  0.15252100  0.17594000  0.63802400  1
  C  256  1  0.09869800  0.09995900  0.64347400  1
  C  257  1  0.06891200  0.08599400  0.65009800  1
  C  258  1  0.03488400  0.09498200  0.65846500  1
  C  259  1  0.03062300  0.11718800  0.66010300  1
  C  272  1  0.12807100  0.13718900  0.63866300  1
  C  273  1  0.05450500  0.15440000  0.65629300  1
  C  276  1  0.20173800  0.12123800  0.62001900  1
  C  283  1  0.38405800  0.66084000  0.89805600  1
  C  284  1  0.41959500  0.66944200  0.89080700  1
  C  285  1  0.44843600  0.63229300  0.88759200  1
  C  286  1  0.41350200  0.62302100  0.89487600  1
  C  287  1  0.41115200  0.60033200  0.89621400  1
  C  288  1  0.44216400  0.58693700  0.89015800  1
  C  289  1  0.47636900  0.59664100  0.88285800  1
  C  290  1  0.47961200  0.61894900  0.88176700  1
  C  291  1  0.42306400  0.69168900  0.88764300  1
  C  292  1  0.39151200  0.70538700  0.89088400  1
  C  293  1  0.35555900  0.69740500  0.89787800  1
  C  294  1  0.35254400  0.67517400  0.90148400  1
  C  295  1  0.34706900  0.63042300  0.88603000  1
  C  296  1  0.31201700  0.62216500  0.89426800  1
  C  297  1  0.33776700  0.62479300  0.93210000  1
  C  298  1  0.37325500  0.63323400  0.92462100  1
  C  299  1  0.33266400  0.62107200  0.95414300  1
  C  300  1  0.36270300  0.62478500  0.96871500  1
  C  301  1  0.39904900  0.63242000  0.96184000  1
  C  302  1  0.40317000  0.63714600  0.93985500  1
  C  303  1  0.35096700  0.63241100  0.86345300  1
  C  304  1  0.32156700  0.62614400  0.84911500  1
  C  305  1  0.28677000  0.61830000  0.85792900  1
  C  306  1  0.28210200  0.61635700  0.88009000  1
  C  319  1  0.37946100  0.63694900  0.90095000  1
  C  320  1  0.30546400  0.61932900  0.91749800  1
  C  323  1  0.45337400  0.65575200  0.88563900  1
  C  330  1  0.88406400  0.85027300  0.14114900  1
  C  331  1  0.91960700  0.84167200  0.14839300  1
  C  332  1  0.94843900  0.87882200  0.15161400  1
  C  333  1  0.91350500  0.88809400  0.14433100  1
  C  334  1  0.91115200  0.91078100  0.14299100  1
  C  335  1  0.94215200  0.92417800  0.14906400  1
  C  336  1  0.97636400  0.91447500  0.15635400  1
  C  337  1  0.97961500  0.89216800  0.15744000  1
  C  338  1  0.92307500  0.81942600  0.15156200  1
  C  339  1  0.89152600  0.80572700  0.14832300  1
  C  340  1  0.85557100  0.81370600  0.14133100  1
  C  341  1  0.85255300  0.83593800  0.13772300  1
  C  342  1  0.84707500  0.88068800  0.15317800  1
  C  343  1  0.81202000  0.88894400  0.14494100  1
  C  344  1  0.83776400  0.88631700  0.10710800  1
  C  345  1  0.87325800  0.87788000  0.11458600  1
  C  346  1  0.83265900  0.89003800  0.08506500  1
  C  347  1  0.86269500  0.88632800  0.07049300  1
  C  348  1  0.89904300  0.87869500  0.07736500  1
  C  349  1  0.90317000  0.87397000  0.09935000  1
  C  350  1  0.85097300  0.87869900  0.17575500  1
  C  351  1  0.82157500  0.88496800  0.19009400  1
  C  352  1  0.78678100  0.89281000  0.18128100  1
  C  353  1  0.78210500  0.89475000  0.15912100  1
  C  366  1  0.87946400  0.87416500  0.13825600  1
  C  367  1  0.80546500  0.89178000  0.12171200  1
  C  370  1  0.95338300  0.85536500  0.15356600  1
  C  377  1  0.13971700  0.87762300  0.61393100  1
  C  378  1  0.17521400  0.88565400  0.60601800  1
  C  379  1  0.20191000  0.88893600  0.64360900  1
  C  380  1  0.16699200  0.88088100  0.65224900  1
  C  381  1  0.16362300  0.87922600  0.67487900  1
  C  382  1  0.19363600  0.88566800  0.68878300  1
  C  383  1  0.22785100  0.89369400  0.67969300  1
  C  384  1  0.23208500  0.89514500  0.65746500  1
  C  385  1  0.17990300  0.88882100  0.58385900  1
  C  386  1  0.14945200  0.88498400  0.56958500  1
  C  387  1  0.11308000  0.87781300  0.57689400  1
  C  388  1  0.10936000  0.87358900  0.59899900  1
  C  389  1  0.10053800  0.88870800  0.64381200  1
  C  390  1  0.06540800  0.87987700  0.65132300  1
  C  391  1  0.09311200  0.84244700  0.64867200  1
  C  392  1  0.12873700  0.85061500  0.64105900  1
  C  393  1  0.08908500  0.82029500  0.65226700  1
  C  394  1  0.12018700  0.80627900  0.64907200  1
  C  395  1  0.15616000  0.81384200  0.64166300  1
  C  396  1  0.15975000  0.83596800  0.63766800  1
  C  397  1  0.10355700  0.91134400  0.64218500  1
  C  398  1  0.07322700  0.92519200  0.64813400  1
  C  399  1  0.03844000  0.91584100  0.65532900  1
  C  400  1  0.03459500  0.89358700  0.65683300  1
  C  413  1  0.13401800  0.87439300  0.63771100  1
  C  414  1  0.05979300  0.85651100  0.65371500  1
  C  417  1  0.20792400  0.89129500  0.62027900  1
  C  424  1  0.63972300  0.63349700  0.42527800  1
  C  425  1  0.67522000  0.62546600  0.43319100  1
  C  426  1  0.70191400  0.62218000  0.39560100  1
  C  427  1  0.66699800  0.63023500  0.38696000  1
  C  428  1  0.66363100  0.63188900  0.36433100  1
  C  429  1  0.69364400  0.62544700  0.35042600  1
  C  430  1  0.72785800  0.61742100  0.35951800  1
  C  431  1  0.73208900  0.61597000  0.38174600  1
  C  432  1  0.67990600  0.62229900  0.45535000  1
  C  433  1  0.64945500  0.62613800  0.46962500  1
  C  434  1  0.61308600  0.63331000  0.46231500  1
  C  435  1  0.60936600  0.63753400  0.44021000  1
  C  436  1  0.60054400  0.62240900  0.39539900  1
  C  437  1  0.56540900  0.63124200  0.38789400  1
  C  438  1  0.59311400  0.66867000  0.39053700  1
  C  439  1  0.62874300  0.66050400  0.39814700  1
  C  440  1  0.58908000  0.69082300  0.38694800  1
  C  441  1  0.62018400  0.70484100  0.39013200  1
  C  442  1  0.65617200  0.69726800  0.39750900  1
  C  443  1  0.65975800  0.67515000  0.40153500  1
  C  444  1  0.60356200  0.59977400  0.39702400  1
  C  445  1  0.57323200  0.58592600  0.39107900  1
  C  446  1  0.53843900  0.59527800  0.38388900  1
  C  447  1  0.53459300  0.61753100  0.38238800  1
  C  460  1  0.63402200  0.63672700  0.40149800  1
  C  461  1  0.55978900  0.65460700  0.38550500  1
  C  464  1  0.70792700  0.61982100  0.41893100  1
  C  471  1  0.88884400  0.16088800  0.14145500  1
  C  472  1  0.92447900  0.16847500  0.14960100  1
  C  473  1  0.95048100  0.13066100  0.15231300  1
  C  474  1  0.91525800  0.12232600  0.14438500  1
  C  475  1  0.91136000  0.09973100  0.14258200  1
  C  476  1  0.94094800  0.08544500  0.14869400  1
  C  477  1  0.97588200  0.09434400  0.15625400  1
  C  478  1  0.98054800  0.11653000  0.15800500  1
  C  479  1  0.92949200  0.19055500  0.15315100  1
  C  480  1  0.89926900  0.20505000  0.14955100  1
  C  481  1  0.86281000  0.19807200  0.14217200  1
  C  482  1  0.85875900  0.17604500  0.13761800  1
  C  483  1  0.84907300  0.13120200  0.15228800  1
  C  484  1  0.81380700  0.12396900  0.14340400  1
  C  485  1  0.84167700  0.12667400  0.10597100  1
  C  486  1  0.87740800  0.13405200  0.11420800  1
  C  487  1  0.83772100  0.12322000  0.08378900  1
  C  488  1  0.86895500  0.12631200  0.06982300  1
  C  489  1  0.90506400  0.13344100  0.07746900  1
  C  490  1  0.90855600  0.13735500  0.09961700  1
  C  491  1  0.85213100  0.13272700  0.17493000  1
  C  492  1  0.82167100  0.12696100  0.18876300  1
  C  493  1  0.78676600  0.11998400  0.17937800  1
  C  494  1  0.78289600  0.11858400  0.15710800  1
  C  507  1  0.88266700  0.13717400  0.13801400  1
  C  508  1  0.80822500  0.12173800  0.12000400  1
  C  511  1  0.95697500  0.15393400  0.15493800  1
  C  518  1  0.38884600  0.35023000  0.89775000  1
  C  519  1  0.42447600  0.34264300  0.88959800  1
  C  520  1  0.45048300  0.38045500  0.88689000  1
  C  521  1  0.41526700  0.38879100  0.89482300  1
  C  522  1  0.41137100  0.41138500  0.89663000  1
  C  523  1  0.44095600  0.42567200  0.89051500  1
  C  524  1  0.47588700  0.41677300  0.88295000  1
  C  525  1  0.48054800  0.39458700  0.88119400  1
  C  526  1  0.42949200  0.32056100  0.88605200  1
  C  527  1  0.39926300  0.30606800  0.88964300  1
  C  528  1  0.36280700  0.31304600  0.89702800  1
  C  529  1  0.35875600  0.33507300  0.90157300  1
  C  530  1  0.34907900  0.37992100  0.88692500  1
  C  531  1  0.31381900  0.38715900  0.89581200  1
  C  532  1  0.34170000  0.38444400  0.93324200  1
  C  533  1  0.37741900  0.37706100  0.92500200  1
  C  534  1  0.33774700  0.38788900  0.95542700  1
  C  535  1  0.36899600  0.38480600  0.96938600  1
  C  536  1  0.40509600  0.37766400  0.96173700  1
  C  537  1  0.40857300  0.37375100  0.93958900  1
  C  538  1  0.35213100  0.37839600  0.86428200  1
  C  539  1  0.32166800  0.38416500  0.85045200  1
  C  540  1  0.28676900  0.39114800  0.85984000  1
  C  541  1  0.28291100  0.39255300  0.88211100  1
  C  554  1  0.38267200  0.37394300  0.90119500  1
  C  555  1  0.30824500  0.38938900  0.91921200  1
  C  558  1  0.45697200  0.35718300  0.88426000  1
  C  565  1  0.37701500  0.63427200  0.61408700  1
  C  566  1  0.34144300  0.62705500  0.60549800  1
  C  567  1  0.31270100  0.62382800  0.64265600  1
  C  568  1  0.34767200  0.63109800  0.65189900  1
  C  569  1  0.35010400  0.63241200  0.67457600  1
  C  570  1  0.31913500  0.62634700  0.68799000  1
  C  571  1  0.28489700  0.61904500  0.67832800  1
  C  572  1  0.28156500  0.61798700  0.65602300  1
  C  573  1  0.33791700  0.62390900  0.58325300  1
  C  574  1  0.36943200  0.62717100  0.56953600  1
  C  575  1  0.40540800  0.63412900  0.57751700  1
  C  576  1  0.40849500  0.63770000  0.59974200  1
  C  577  1  0.41410000  0.62222800  0.64447200  1
  C  578  1  0.44920400  0.63044100  0.65269800  1
  C  579  1  0.42354000  0.66827800  0.65007700  1
  C  580  1  0.38800600  0.66081600  0.64167900  1
  C  581  1  0.42870900  0.69031600  0.65379000  1
  C  582  1  0.39868800  0.70490200  0.65011100  1
  C  583  1  0.36231300  0.69804000  0.64250900  1
  C  584  1  0.35812000  0.67606400  0.63778600  1
  C  585  1  0.41012600  0.59965800  0.64252000  1
  C  586  1  0.43949200  0.58531000  0.64879900  1
  C  587  1  0.47433900  0.59408900  0.65660400  1
  C  588  1  0.47909300  0.61624700  0.65850200  1
  C  601  1  0.38171100  0.63715600  0.63796800  1
  C  602  1  0.45583100  0.65366300  0.65551400  1
  C  605  1  0.30769100  0.62188400  0.61920400  1
  C  612  1  0.87700100  0.87684600  0.42512800  1
  C  613  1  0.84142600  0.88406500  0.43371100  1
  C  614  1  0.81269800  0.88728900  0.39655200  1
  C  615  1  0.84767500  0.88002000  0.38731200  1
  C  616  1  0.85011500  0.87870400  0.36463400  1
  C  617  1  0.81915300  0.88477500  0.35121900  1
  C  618  1  0.78490900  0.89207400  0.36087500  1
  C  619  1  0.78156500  0.89312600  0.38318100  1
  C  620  1  0.83788300  0.88719600  0.45595800  1
  C  621  1  0.86941200  0.88396500  0.46967100  1
  C  622  1  0.90537600  0.87697000  0.46170600  1
  C  623  1  0.90847500  0.87341400  0.43947700  1
  C  624  1  0.91410300  0.88889000  0.39474800  1
  C  625  1  0.94920700  0.88067700  0.38652900  1
  C  626  1  0.92354600  0.84284100  0.38914500  1
  C  627  1  0.88800600  0.85030400  0.39753600  1
  C  628  1  0.92871800  0.82080300  0.38543500  1
  C  629  1  0.89869700  0.80621600  0.38910800  1
  C  630  1  0.86231900  0.81307800  0.39671000  1
  C  631  1  0.85812000  0.83505400  0.40142600  1
  C  632  1  0.91012700  0.91146100  0.39669900  1
  C  633  1  0.93949500  0.92580900  0.39042400  1
  C  634  1  0.97434500  0.91702900  0.38262400  1
  C  635  1  0.97909900  0.89487300  0.38072800  1
  C  648  1  0.88170800  0.87396200  0.40124800  1
  C  649  1  0.95584000  0.85745600  0.38371400  1
  C  652  1  0.80767900  0.88922800  0.42000200  1
  C  659  1  0.62780800  0.35048500  0.14075000  1
  C  660  1  0.59206900  0.34222600  0.14808500  1
  C  661  1  0.56412100  0.37964300  0.15082200  1
  C  662  1  0.59938600  0.38857100  0.14364000  1
  C  663  1  0.60237500  0.41122400  0.14216500  1
  C  664  1  0.57185100  0.42502700  0.14792800  1
  C  665  1  0.53694400  0.41558300  0.15482500  1
  C  666  1  0.53314900  0.39330800  0.15618900  1
  C  667  1  0.58812400  0.32004100  0.15151600  1
  C  668  1  0.61937800  0.30608700  0.14843500  1
  C  669  1  0.65549900  0.31373800  0.14133000  1
  C  670  1  0.65897900  0.33589900  0.13745400  1
  C  671  1  0.66557700  0.38067700  0.15251800  1
  C  672  1  0.70079700  0.38864400  0.14422000  1
  C  673  1  0.67485900  0.38596700  0.10639700  1
  C  674  1  0.63923500  0.37778800  0.11396500  1
  C  675  1  0.67986300  0.38957400  0.08432500  1
  C  676  1  0.64963700  0.38599800  0.06982500  1
  C  677  1  0.61321000  0.37856000  0.07679100  1
  C  678  1  0.60915900  0.37397300  0.09880600  1
  C  679  1  0.66161500  0.37883600  0.17509900  1
  C  680  1  0.69114600  0.38495500  0.18941100  1
  C  681  1  0.72606800  0.39258800  0.18056500  1
  C  682  1  0.73080100  0.39436200  0.15838400  1
  C  695  1  0.63301700  0.37430800  0.13766200  1
  C  696  1  0.70732900  0.39130600  0.12095500  1
  C  699  1  0.55857900  0.35623700  0.15300500  1
  C  706  1  0.12780000  0.16063600  0.89847100  1
  C  707  1  0.09206000  0.16889300  0.89113400  1
  C  708  1  0.06411700  0.13147500  0.88839400  1
  C  709  1  0.09938300  0.12255000  0.89557800  1
  C  710  1  0.10237400  0.09989700  0.89705500  1
  C  711  1  0.07185500  0.08609100  0.89128600  1
  C  712  1  0.03694800  0.09553500  0.88438600  1
  C  713  1  0.03314800  0.11781000  0.88302300  1
  C  714  1  0.08810700  0.19108100  0.88771300  1
  C  715  1  0.11936800  0.20503400  0.89078000  1
  C  716  1  0.15549000  0.19738300  0.89788600  1
  C  717  1  0.15896900  0.17522300  0.90176600  1
  C  718  1  0.16557000  0.13044600  0.88670000  1
  C  719  1  0.20079200  0.12248000  0.89499700  1
  C  720  1  0.17485700  0.12515600  0.93281900  1
  C  721  1  0.13923200  0.13333300  0.92525300  1
  C  722  1  0.17986400  0.12154900  0.95489100  1
  C  723  1  0.14963800  0.12512200  0.96939300  1
  C  724  1  0.11320800  0.13255700  0.96242900  1
  C  725  1  0.10915400  0.13714500  0.94041300  1
  C  726  1  0.16160900  0.13228900  0.86411800  1
  C  727  1  0.19113400  0.12616700  0.84980600  1
  C  728  1  0.22605700  0.11853400  0.85865000  1
  C  729  1  0.23079500  0.11676400  0.88083200  1
  C  742  1  0.13301000  0.13681400  0.90155600  1
  C  743  1  0.20732600  0.11981800  0.91826200  1
  C  746  1  0.05857200  0.15488200  0.88621000  1
  C  753  1  0.78571200  0.24119700  0.40248500  1
  C  754  1  0.77747900  0.25815100  0.41670600  1
  C  755  1  0.74508100  0.27185300  0.41395300  1
  C  756  1  0.71998900  0.26898500  0.39618000  1
  C  757  1  0.72849100  0.25192500  0.38201200  1
  C  759  1  0.76049000  0.23839300  0.38501800  1
  C  765  1  0.81976800  0.22936600  0.40449300  1
  C  767  1  0.68690600  0.28138800  0.39201300  1
  C  769  1  0.28570900  0.26992300  0.63673300  1
  C  770  1  0.27748900  0.25296400  0.62251900  1
  C  771  1  0.24509300  0.23926100  0.62526800  1
  C  772  1  0.21998200  0.24213500  0.64303400  1
  C  773  1  0.22846700  0.25920300  0.65719600  1
  C  775  1  0.26046700  0.27273500  0.65419100  1
  C  781  1  0.31976800  0.28175200  0.63473300  1
  C  783  1  0.18690300  0.22973100  0.64720300  1
  C  785  1  0.03601100  0.87327600  0.00533400  1
  C  786  1  0.02849600  0.85935700  0.02264300  1
  C  787  1  0.99587400  0.86187700  0.03623200  1
  C  788  1  0.96977100  0.87911300  0.03288600  1
  C  789  1  0.97756500  0.89299700  0.01549200  1
  C  791  1  0.00980400  0.89021700  0.00207400  1
  C  797  1  0.07015000  0.87148400  0.99351900  1
  C  799  1  0.93635300  0.88296400  0.04512700  1
  C  801  1  0.53599900  0.63785100  0.03387600  1
  C  802  1  0.52844800  0.65178700  0.01658800  1
  C  803  1  0.49583900  0.64925600  0.00299100  1
  C  804  1  0.46978500  0.63199100  0.00631200  1
  C  805  1  0.47761700  0.61808900  0.02368700  1
  C  807  1  0.50984500  0.62088200  0.03711100  1
  C  813  1  0.57012100  0.63966800  0.04570400  1
  C  815  1  0.43638200  0.62812800  0.99406600  1
  C  817  1  0.22502300  0.76972300  0.63705500  1
  C  818  1  0.23278500  0.75252400  0.62304800  1
  C  819  1  0.26556500  0.73905400  0.62553800  1
  C  820  1  0.29154500  0.74242600  0.64282100  1
  C  821  1  0.28349000  0.75969500  0.65680600  1
  C  823  1  0.25109300  0.77299600  0.65405700  1
  C  829  1  0.19082800  0.78146200  0.63524500  1
  C  831  1  0.32514200  0.73034700  0.64658900  1
  C  833  1  0.72502800  0.74139200  0.40214600  1
  C  834  1  0.73276700  0.75859900  0.41614500  1
  C  835  1  0.76555200  0.77206900  0.41366300  1
  C  836  1  0.79155700  0.76868900  0.39639200  1
  C  837  1  0.78352300  0.75141100  0.38241400  1
  C  839  1  0.75112200  0.73811100  0.38515700  1
  C  845  1  0.69082800  0.72965600  0.40394300  1
  C  847  1  0.82515600  0.78076600  0.39263000  1
  C  849  1  0.97463400  0.13788500  0.03352400  1
  C  850  1  0.98223200  0.15166700  0.01611400  1
  C  851  1  0.01531400  0.14929600  0.00284000  1
  C  852  1  0.04184900  0.13235700  0.00662300  1
  C  853  1  0.03397000  0.11859500  0.02409900  1
  C  855  1  0.00125400  0.12122700  0.03720100  1
  C  861  1  0.94018300  0.13958700  0.04509600  1
  C  863  1  0.07580600  0.12876000  0.99476600  1
  C  865  1  0.47464500  0.37322300  0.00569100  1
  C  866  1  0.48227500  0.35942700  0.02308300  1
  C  867  1  0.51534900  0.36180800  0.03636200  1
  C  868  1  0.54184100  0.37877200  0.03260300  1
  C  869  1  0.53392900  0.39255200  0.01514400  1
  C  871  1  0.50122500  0.38990900  0.00203600  1
  C  877  1  0.44021100  0.37150200  0.99410700  1
  C  879  1  0.57578700  0.38238200  0.04446400  1
  C  881  1  0.28588700  0.74126000  0.90275200  1
  C  882  1  0.27799100  0.75845600  0.91675100  1
  C  883  1  0.24551900  0.77212800  0.91404900  1
  C  884  1  0.21991100  0.76899700  0.89654600  1
  C  885  1  0.22805400  0.75169000  0.88260400  1
  C  887  1  0.26014500  0.73819100  0.88556000  1
  C  893  1  0.32005300  0.72946000  0.90469600  1
  C  895  1  0.18669000  0.78136300  0.89245000  1
  C  897  1  0.78589700  0.76985200  0.13646400  1
  C  898  1  0.77799900  0.75265600  0.12246500  1
  C  899  1  0.74552600  0.73898500  0.12516800  1
  C  900  1  0.71992000  0.74211800  0.14267300  1
  C  901  1  0.72806600  0.75942500  0.15661400  1
  C  903  1  0.76015800  0.77292200  0.15365600  1
  C  909  1  0.82006500  0.78165200  0.13451700  1
  C  911  1  0.68669600  0.72975500  0.14677000  1
  C  913  1  0.53547400  0.37220400  0.50506600  1
  C  914  1  0.52745400  0.35801000  0.52207700  1
  C  915  1  0.49533100  0.36082100  0.53596600  1
  C  916  1  0.47027300  0.37863500  0.53324700  1
  C  917  1  0.47854100  0.39276900  0.51611800  1
  C  919  1  0.51027200  0.38970300  0.50239900  1
  C  925  1  0.56936800  0.37015800  0.49308100  1
  C  927  1  0.43746200  0.38288900  0.54586300  1
  C  929  1  0.03548300  0.13890900  0.53414800  1
  C  930  1  0.02748400  0.15309600  0.51712700  1
  C  931  1  0.99535400  0.15028800  0.50324000  1
  C  932  1  0.97027100  0.13248700  0.50597400  1
  C  933  1  0.97851800  0.11836300  0.52311400  1
  C  935  1  0.01025600  0.12142600  0.53682700  1
  C  941  1  0.06938800  0.14094500  0.54612500  1
  C  943  1  0.93745700  0.12823500  0.49335900  1
  C  945  1  0.72484600  0.26964400  0.13684000  1
  C  946  1  0.73225900  0.25218500  0.12308700  1
  C  947  1  0.76511900  0.23874900  0.12552500  1
  C  948  1  0.79162900  0.24240200  0.14250600  1
  C  949  1  0.78394200  0.25994200  0.15622700  1
  C  951  1  0.75145100  0.27320600  0.15353000  1
  C  957  1  0.69052200  0.28134400  0.13510300  1
  C  959  1  0.82534700  0.23034700  0.14621500  1
  C  961  1  0.22483700  0.24147700  0.90236900  1
  C  962  1  0.23225400  0.25893700  0.91612000  1
  C  963  1  0.26511400  0.27237200  0.91368300  1
  C  964  1  0.29162300  0.26871600  0.89670200  1
  C  965  1  0.28393600  0.25117600  0.88298200  1
  C  967  1  0.25144300  0.23791300  0.88567900  1
  C  973  1  0.19051500  0.22977700  0.90410600  1
  C  975  1  0.32534700  0.28076600  0.89299500  1
  C  977  1  0.47515900  0.63897400  0.53377600  1
  C  978  1  0.48333500  0.65306000  0.51669500  1
  C  979  1  0.51597000  0.65037500  0.50314700  1
  C  980  1  0.54142500  0.63281000  0.50630400  1
  C  981  1  0.53298700  0.61877200  0.52348200  1
  C  983  1  0.50073700  0.62171200  0.53685800  1
  C  989  1  0.44093300  0.64095000  0.54549300  1
  C  991  1  0.57481700  0.62876800  0.49409600  1
  C  993  1  0.97514500  0.87214700  0.50543800  1
  C  994  1  0.98330900  0.85807100  0.52252700  1
  C  995  1  0.01594900  0.86075100  0.53607100  1
  C  996  1  0.04142400  0.87830700  0.53290400  1
  C  997  1  0.03300000  0.89233700  0.51571600  1
  C  999  1  0.00074200  0.88940000  0.50234200  1
  C  1005  1  0.94091600  0.87017900  0.49372400  1
  C  1007  1  0.07481900  0.88234700  0.54510900  1
  C  1009  1  0.83589300  0.13044500  0.29228700  1
  C  1010  1  0.85000300  0.14524000  0.27710400  1
  C  1011  1  0.84187400  0.14329600  0.25494900  1
  C  1012  1  0.81928500  0.12586700  0.24746400  1
  C  1013  1  0.80589800  0.11085400  0.26265800  1
  C  1015  1  0.81405000  0.11304100  0.28452900  1
  C  1021  1  0.84349700  0.13309400  0.31404400  1
  C  1023  1  0.80727500  0.12339700  0.22628100  1
  C  1025  1  0.33587900  0.38067400  0.74692900  1
  C  1026  1  0.34998800  0.36588000  0.76211300  1
  C  1027  1  0.34186200  0.36782800  0.78426800  1
  C  1028  1  0.31927400  0.38525800  0.79175300  1
  C  1029  1  0.30588600  0.40027000  0.77655600  1
  C  1031  1  0.31403500  0.39808000  0.75468500  1
  C  1037  1  0.34348200  0.37802300  0.72517300  1
  C  1039  1  0.30726600  0.38773000  0.81293400  1
  C  1041  1  0.08461000  0.98237800  0.89439600  1
  C  1042  1  0.09916500  0.99748700  0.90914000  1
  C  1043  1  0.09151100  0.01969700  0.90720400  1
  C  1044  1  0.06895300  0.02733800  0.88982600  1
  C  1045  1  0.05511100  0.01220200  0.87486800  1
  C  1047  1  0.06278100  0.99027400  0.87705200  1
  C  1053  1  0.09188500  0.96057400  0.89700800  1
  C  1055  1  0.05739400  0.04861400  0.88733600  1
  C  1057  1  0.58459200  0.52874100  0.14481600  1
  C  1058  1  0.59914400  0.51363300  0.13006900  1
  C  1059  1  0.59149100  0.49142200  0.13200700  1
  C  1060  1  0.56894300  0.48378100  0.14938700  1
  C  1061  1  0.55510500  0.49891600  0.16434700  1
  C  1063  1  0.56277200  0.52084400  0.16216200  1
  C  1069  1  0.59186600  0.55054400  0.14220200  1
  C  1071  1  0.55738900  0.46250500  0.15187900  1
  C  1073  1  0.67485300  0.38064800  0.29291000  1
  C  1074  1  0.66166100  0.36579400  0.27753600  1
  C  1075  1  0.66988900  0.36809900  0.25542800  1
  C  1076  1  0.69159900  0.38596700  0.24818500  1
  C  1077  1  0.70402500  0.40103100  0.26359100  1
  C  1079  1  0.69582400  0.39847900  0.28541600  1
  C  1085  1  0.66706700  0.37769700  0.31459600  1
  C  1087  1  0.70369300  0.38889900  0.22706400  1
  C  1089  1  0.17482600  0.13046400  0.74630500  1
  C  1090  1  0.16164200  0.14532100  0.76167800  1
  C  1091  1  0.16987200  0.14302000  0.78378700  1
  C  1092  1  0.19157900  0.12515000  0.79103200  1
  C  1093  1  0.20399900  0.11008400  0.77562600  1
  C  1095  1  0.19579500  0.11263300  0.75380300  1
  C  1101  1  0.16703700  0.13341100  0.72462100  1
  C  1103  1  0.20367700  0.12222000  0.81215100  1
  C  1105  1  0.42611000  0.52937200  0.89448000  1
  C  1106  1  0.41246300  0.51405900  0.90927600  1
  C  1107  1  0.42020800  0.49189300  0.90696400  1
  C  1108  1  0.44189500  0.48450700  0.88914000  1
  C  1109  1  0.45479200  0.49987300  0.87414400  1
  C  1111  1  0.44708100  0.52175100  0.87670600  1
  C  1117  1  0.41864500  0.55110400  0.89740600  1
  C  1119  1  0.45347800  0.46328500  0.88615000  1
  C  1121  1  0.92610200  0.98174300  0.14473400  1
  C  1122  1  0.91244300  0.99705600  0.12994300  1
  C  1123  1  0.92018800  0.01922300  0.13225200  1
  C  1124  1  0.94188600  0.02660900  0.15007000  1
  C  1125  1  0.95480100  0.01124500  0.16506200  1
  C  1127  1  0.94709000  0.98936400  0.16250300  1
  C  1133  1  0.91863100  0.96001100  0.14181300  1
  C  1135  1  0.95346900  0.04783200  0.15305800  1
  C  1137  1  0.17582000  0.88078700  0.74610400  1
  C  1138  1  0.16185900  0.86587900  0.76121800  1
  C  1139  1  0.16929000  0.86798900  0.78343200  1
  C  1140  1  0.19097700  0.88570900  0.79104900  1
  C  1141  1  0.20418600  0.90083000  0.77590300  1
  C  1143  1  0.19675500  0.89847300  0.75397400  1
  C  1149  1  0.16883900  0.87801400  0.72430800  1
  C  1151  1  0.20231900  0.88842400  0.81232000  1
  C  1153  1  0.67583200  0.63032600  0.29310500  1
  C  1154  1  0.66187200  0.64523500  0.27799100  1
  C  1155  1  0.66930200  0.64312300  0.25577700  1
  C  1156  1  0.69098700  0.62539900  0.24816100  1
  C  1157  1  0.70419300  0.61028000  0.26330700  1
  C  1159  1  0.69676200  0.61263900  0.28523700  1
  C  1165  1  0.66885200  0.63310300  0.31490100  1
  C  1167  1  0.70232400  0.62268300  0.22688900  1
  C  1169  1  0.33575700  0.63051600  0.74545500  1
  C  1170  1  0.34869500  0.64549000  0.76077600  1
  C  1171  1  0.34127900  0.64296300  0.78294800  1
  C  1172  1  0.32068900  0.62473700  0.79031400  1
  C  1173  1  0.30853400  0.60957200  0.77493000  1
  C  1175  1  0.31589800  0.61234900  0.75304700  1
  C  1181  1  0.34285300  0.63363400  0.72372900  1
  C  1183  1  0.30949000  0.62144000  0.81154700  1
  C  1185  1  0.83578600  0.88060700  0.29375400  1
  C  1186  1  0.84871500  0.86563000  0.27843400  1
  C  1187  1  0.84129600  0.86815300  0.25626200  1
  C  1188  1  0.82071200  0.88638100  0.24889500  1
  C  1189  1  0.80856300  0.90154900  0.26427700  1
  C  1191  1  0.81592700  0.89877400  0.28616000  1
  C  1197  1  0.84288400  0.87749400  0.31548000  1
  C  1199  1  0.80951000  0.88967600  0.22766200  1
  C  1201  1  0.58645800  0.48239000  0.39434100  1
  C  1202  1  0.59985100  0.49746300  0.40944400  1
  C  1203  1  0.59212300  0.51964900  0.40741500  1
  C  1204  1  0.57071900  0.52726200  0.38959100  1
  C  1205  1  0.55809700  0.51216900  0.37427500  1
  C  1207  1  0.56582400  0.49026600  0.37654900  1
  C  1213  1  0.59359600  0.46061200  0.39705300  1
  C  1215  1  0.55909900  0.54848000  0.38695300  1
  C  1217  1  0.08645600  0.02872800  0.64486800  1
  C  1218  1  0.09984800  0.01365500  0.62976600  1
  C  1219  1  0.09212000  0.99146700  0.63179500  1
  C  1220  1  0.07071800  0.98385600  0.64962200  1
  C  1221  1  0.05809700  0.99895100  0.66493800  1
  C  1223  1  0.06582500  0.02085400  0.66266200  1
  C  1229  1  0.09359600  0.05050600  0.64215600  1
  C  1231  1  0.05909700  0.96263800  0.65226100  1
  C  1233  1  0.92428300  0.02934900  0.39442300  1
  C  1234  1  0.91194000  0.01408300  0.40960100  1
  C  1235  1  0.91963900  0.99193300  0.40716800  1
  C  1236  1  0.93989700  0.98455200  0.38883700  1
  C  1237  1  0.95143400  0.99986800  0.37346400  1
  C  1239  1  0.94379200  0.02173000  0.37614900  1
  C  1245  1  0.91704900  0.05106000  0.39746700  1
  C  1247  1  0.95138200  0.96336700  0.38563400  1
  C  1249  1  0.42427900  0.48177100  0.64479400  1
  C  1250  1  0.41193700  0.49703800  0.62961800  1
  C  1251  1  0.41963600  0.51918700  0.63205200  1
  C  1252  1  0.43989700  0.52656800  0.65038200  1
  C  1253  1  0.45143300  0.51125000  0.66575300  1
  C  1255  1  0.44378900  0.48938700  0.66306800  1
  C  1261  1  0.41704000  0.46006000  0.64175000  1
  C  1263  1  0.45137800  0.54775100  0.65358800  1
  C  1265  1  0.21933000  0.13342900  0.42460800  1
  C  1266  1  0.18398700  0.12511000  0.43243900  1
  C  1267  1  0.15747100  0.12184800  0.39483200  1
  C  1268  1  0.19217900  0.13023400  0.38624300  1
  C  1269  1  0.19547100  0.13202800  0.36361500  1
  C  1270  1  0.16560300  0.12540300  0.34969200  1
  C  1271  1  0.13159900  0.11707600  0.35874900  1
  C  1272  1  0.12743800  0.11547400  0.38096200  1
  C  1273  1  0.17923000  0.12180300  0.45457200  1
  C  1274  1  0.20950300  0.12578100  0.46891100  1
  C  1275  1  0.24577700  0.13318600  0.46168800  1
  C  1276  1  0.24953400  0.13756600  0.43961200  1
  C  1277  1  0.25885500  0.12289200  0.39464300  1
  C  1278  1  0.29363600  0.13204600  0.38698700  1
  C  1279  1  0.26509600  0.16922900  0.39013500  1
  C  1280  1  0.22967700  0.16073000  0.39768600  1
  C  1281  1  0.26865400  0.19144300  0.38679800  1
  C  1282  1  0.23726600  0.20521100  0.39017200  1
  C  1283  1  0.20146600  0.19732500  0.39749500  1
  C  1284  1  0.19833300  0.17513100  0.40122500  1
  C  1285  1  0.25643500  0.10022800  0.39616300  1
  C  1286  1  0.28719000  0.08676200  0.38989300  1
  C  1287  1  0.32123400  0.09633600  0.38221600  1
  C  1288  1  0.32458400  0.11862500  0.38097700  1
  C  1301  1  0.22498700  0.13688700  0.40084700  1
  C  1302  1  0.29866900  0.15546600  0.38480800  1
  C  1305  1  0.15145900  0.11931300  0.41813500  1
  C  1312  1  0.71932700  0.37768900  0.61460900  1
  C  1313  1  0.68398300  0.38600900  0.60677800  1
  C  1314  1  0.65746200  0.38926900  0.64438300  1
  C  1315  1  0.69217300  0.38088400  0.65297200  1
  C  1316  1  0.69546200  0.37908800  0.67560200  1
  C  1317  1  0.66559100  0.38571400  0.68952300  1
  C  1318  1  0.63158900  0.39404000  0.68046500  1
  C  1319  1  0.62742900  0.39564400  0.65825300  1
  C  1320  1  0.67923000  0.38931700  0.58464500  1
  C  1321  1  0.70950600  0.38533900  0.57030600  1
  C  1322  1  0.74577600  0.37793300  0.57752800  1
  C  1323  1  0.74953000  0.37355200  0.59960600  1
  C  1324  1  0.75884600  0.38822600  0.64457400  1
  C  1325  1  0.79363300  0.37907400  0.65222600  1
  C  1326  1  0.76509600  0.34189100  0.64908200  1
  C  1327  1  0.72967400  0.35038800  0.64153100  1
  C  1328  1  0.76865900  0.31967600  0.65241200  1
  C  1329  1  0.73727200  0.30590500  0.64904300  1
  C  1330  1  0.70146300  0.31379400  0.64173800  1
  C  1331  1  0.69833000  0.33598700  0.63799200  1
  C  1332  1  0.75642100  0.41089100  0.64306400  1
  C  1333  1  0.78718700  0.42435800  0.64932100  1
  C  1334  1  0.82123400  0.41478400  0.65699000  1
  C  1335  1  0.82458400  0.39249400  0.65823100  1
  C  1348  1  0.72498100  0.37423100  0.63837000  1
  C  1349  1  0.79866900  0.35565500  0.65440100  1
  C  1352  1  0.65145500  0.39180700  0.62108000  1
  C  1359  1  0.46808600  0.85012200  0.89732900  1
  C  1360  1  0.43264400  0.84218800  0.88925000  1
  C  1361  1  0.40582700  0.87976600  0.88597100  1
  C  1362  1  0.44069100  0.88844300  0.89405500  1
  C  1363  1  0.44395900  0.91108100  0.89574200  1
  C  1364  1  0.41388700  0.92496400  0.88932100  1
  C  1365  1  0.37972800  0.91582800  0.88127100  1
  C  1366  1  0.37561100  0.89359700  0.87976200  1
  C  1367  1  0.42803500  0.82002600  0.88605900  1
  C  1368  1  0.45850300  0.80577000  0.88992800  1
  C  1369  1  0.49484600  0.81309200  0.89713300  1
  C  1370  1  0.49847400  0.83520400  0.90138700  1
  C  1371  1  0.50715100  0.88004100  0.88625200  1
  C  1372  1  0.54223500  0.88758400  0.89510700  1
  C  1373  1  0.51444800  0.88492800  0.93253100  1
  C  1374  1  0.47886500  0.87727200  0.92435000  1
  C  1375  1  0.51841400  0.88854200  0.95468400  1
  C  1376  1  0.48729500  0.88533100  0.96868900  1
  C  1377  1  0.45133000  0.87792400  0.96111000  1
  C  1378  1  0.44782000  0.87387300  0.93898600  1
  C  1379  1  0.50420200  0.87838500  0.86361100  1
  C  1380  1  0.53455600  0.88433800  0.84977100  1
  C  1381  1  0.56929200  0.89156800  0.85915600  1
  C  1382  1  0.57306700  0.89310400  0.88141300  1
  C  1395  1  0.47367500  0.87391400  0.90056400  1
  C  1396  1  0.54778100  0.88999400  0.91848000  1
  C  1399  1  0.39990900  0.85642800  0.88358800  1
  C  1406  1  0.96808400  0.66099500  0.14189200  1
  C  1407  1  0.93264500  0.66893000  0.14997500  1
  C  1408  1  0.90582000  0.63135200  0.15325100  1
  C  1409  1  0.94067900  0.62267500  0.14516100  1
  C  1410  1  0.94394200  0.60003700  0.14347000  1
  C  1411  1  0.91387200  0.58615600  0.14989400  1
  C  1412  1  0.87971800  0.59529200  0.15795100  1
  C  1413  1  0.87560600  0.61752300  0.15946200  1
  C  1414  1  0.92803600  0.69109200  0.15316400  1
  C  1415  1  0.95851100  0.70534700  0.14930300  1
  C  1416  1  0.99485100  0.69802400  0.14209300  1
  C  1417  1  0.99848100  0.67591100  0.13784800  1
  C  1418  1  0.00714137  0.63106900  0.15296100  1
  C  1419  1  0.04221940  0.62352200  0.14410200  1
  C  1420  1  0.01442440  0.62619000  0.10668000  1
  C  1421  1  0.97885000  0.63385100  0.11486600  1
  C  1422  1  0.01838640  0.62258200  0.08452600  1
  C  1423  1  0.98725300  0.62578700  0.07052800  1
  C  1424  1  0.95129700  0.63321000  0.07810800  1
  C  1425  1  0.94780300  0.63725600  0.10023300  1
  C  1426  1  0.00419637  0.63271900  0.17560300  1
  C  1427  1  0.03455540  0.62676900  0.18944000  1
  C  1428  1  0.06928740  0.61953400  0.18005100  1
  C  1429  1  0.07304940  0.61799200  0.15779400  1
  C  1442  1  0.97366600  0.63720200  0.13865300  1
  C  1443  1  0.04775840  0.62111300  0.12072900  1
  C  1446  1  0.89990900  0.65469100  0.15563800  1
  C  1453  1  0.97922200  0.37705600  0.42441200  1
  C  1454  1  0.01464740  0.38457200  0.43293500  1
  C  1455  1  0.04328540  0.38774800  0.39577200  1
  C  1456  1  0.00851637  0.38013500  0.38656700  1
  C  1457  1  0.00618037  0.37867200  0.36388600  1
  C  1458  1  0.03702440  0.38493400  0.35046400  1
  C  1459  1  0.07105740  0.39253900  0.36010600  1
  C  1460  1  0.07430540  0.39375100  0.38239900  1
  C  1461  1  0.01817640  0.38788900  0.45515400  1
  C  1462  1  0.98678500  0.38450500  0.46891400  1
  C  1463  1  0.95094800  0.37725200  0.46100900  1
  C  1464  1  0.94784600  0.37353300  0.43880500  1
  C  1465  1  0.94184600  0.38854800  0.39389600  1
  C  1466  1  0.90712000  0.38001200  0.38547600  1
  C  1467  1  0.93353700  0.34238700  0.38870300  1
  C  1468  1  0.96887800  0.35019000  0.39705400  1
  C  1469  1  0.92877000  0.32026500  0.38535300  1
  C  1470  1  0.95902200  0.30591100  0.38932800  1
  C  1471  1  0.99528100  0.31311700  0.39676900  1
  C  1472  1  0.99905300  0.33518000  0.40118900  1
  C  1473  1  0.94523000  0.41115900  0.39573500  1
  C  1474  1  0.91544800  0.42512500  0.38910600  1
  C  1475  1  0.88142400  0.41613700  0.38073400  1
  C  1476  1  0.87716500  0.39393100  0.37909300  1
  C  1489  1  0.97460200  0.37393000  0.40054700  1
  C  1490  1  0.90104700  0.35671800  0.38290500  1
  C  1493  1  0.04825840  0.38988600  0.41919900  1
  C  1500  1  0.47923600  0.13406300  0.61480000  1
  C  1501  1  0.51466300  0.12654900  0.60628000  1
  C  1502  1  0.54328700  0.12337200  0.64344700  1
  C  1503  1  0.50851300  0.13098400  0.65264800  1
  C  1504  1  0.50617100  0.13244700  0.67532900  1
  C  1505  1  0.53700600  0.12618100  0.68875300  1
  C  1506  1  0.57104600  0.11857800  0.67911600  1
  C  1507  1  0.57430300  0.11737000  0.65682200  1
  C  1508  1  0.51821100  0.12324100  0.58406200  1
  C  1509  1  0.48680400  0.12659600  0.57030300  1
  C  1510  1  0.45098100  0.13388200  0.57819400  1
  C  1511  1  0.44786800  0.13759000  0.60040200  1
  C  1512  1  0.44184400  0.12257100  0.64531000  1
  C  1513  1  0.40711500  0.13110800  0.65372500  1
  C  1514  1  0.43353400  0.16873200  0.65050000  1
  C  1515  1  0.46887800  0.16092700  0.64215600  1
  C  1516  1  0.42876200  0.19085600  0.65384600  1
  C  1517  1  0.45901900  0.20520800  0.64987900  1
  C  1518  1  0.49527800  0.19800200  0.64244200  1
  C  1519  1  0.49905500  0.17594000  0.63802400  1
  C  1520  1  0.44523200  0.09995900  0.64347400  1
  C  1521  1  0.41544600  0.08599400  0.65009800  1
  C  1522  1  0.38141800  0.09498200  0.65846500  1
  C  1523  1  0.37715700  0.11718800  0.66010300  1
  C  1536  1  0.47460500  0.13718900  0.63866300  1
  C  1537  1  0.40103900  0.15440000  0.65629300  1
  C  1540  1  0.54827200  0.12123800  0.62001900  1
  C  1547  1  0.73059200  0.66084000  0.89805600  1
  C  1548  1  0.76612900  0.66944200  0.89080700  1
  C  1549  1  0.79497000  0.63229300  0.88759200  1
  C  1550  1  0.76003600  0.62302100  0.89487600  1
  C  1551  1  0.75768600  0.60033200  0.89621400  1
  C  1552  1  0.78869800  0.58693700  0.89015800  1
  C  1553  1  0.82290300  0.59664100  0.88285800  1
  C  1554  1  0.82614600  0.61894900  0.88176700  1
  C  1555  1  0.76959800  0.69168900  0.88764300  1
  C  1556  1  0.73804600  0.70538700  0.89088400  1
  C  1557  1  0.70209300  0.69740500  0.89787800  1
  C  1558  1  0.69907800  0.67517400  0.90148400  1
  C  1559  1  0.69360300  0.63042300  0.88603000  1
  C  1560  1  0.65855100  0.62216500  0.89426800  1
  C  1561  1  0.68430100  0.62479300  0.93210000  1
  C  1562  1  0.71978900  0.63323400  0.92462100  1
  C  1563  1  0.67919800  0.62107200  0.95414300  1
  C  1564  1  0.70923700  0.62478500  0.96871500  1
  C  1565  1  0.74558300  0.63242000  0.96184000  1
  C  1566  1  0.74970400  0.63714600  0.93985500  1
  C  1567  1  0.69750100  0.63241100  0.86345300  1
  C  1568  1  0.66810100  0.62614400  0.84911500  1
  C  1569  1  0.63330400  0.61830000  0.85792900  1
  C  1570  1  0.62863600  0.61635700  0.88009000  1
  C  1583  1  0.72599500  0.63694900  0.90095000  1
  C  1584  1  0.65199800  0.61932900  0.91749800  1
  C  1587  1  0.79990800  0.65575200  0.88563900  1
  C  1594  1  0.23059800  0.85027300  0.14114900  1
  C  1595  1  0.26614100  0.84167200  0.14839300  1
  C  1596  1  0.29497300  0.87882200  0.15161400  1
  C  1597  1  0.26003900  0.88809400  0.14433100  1
  C  1598  1  0.25768600  0.91078100  0.14299100  1
  C  1599  1  0.28868600  0.92417800  0.14906400  1
  C  1600  1  0.32289800  0.91447500  0.15635400  1
  C  1601  1  0.32614900  0.89216800  0.15744000  1
  C  1602  1  0.26960900  0.81942600  0.15156200  1
  C  1603  1  0.23806000  0.80572700  0.14832300  1
  C  1604  1  0.20210500  0.81370600  0.14133100  1
  C  1605  1  0.19908700  0.83593800  0.13772300  1
  C  1606  1  0.19360900  0.88068800  0.15317800  1
  C  1607  1  0.15855400  0.88894400  0.14494100  1
  C  1608  1  0.18429800  0.88631700  0.10710800  1
  C  1609  1  0.21979200  0.87788000  0.11458600  1
  C  1610  1  0.17919300  0.89003800  0.08506500  1
  C  1611  1  0.20922900  0.88632800  0.07049300  1
  C  1612  1  0.24557700  0.87869500  0.07736500  1
  C  1613  1  0.24970400  0.87397000  0.09935000  1
  C  1614  1  0.19750700  0.87869900  0.17575500  1
  C  1615  1  0.16810900  0.88496800  0.19009400  1
  C  1616  1  0.13331500  0.89281000  0.18128100  1
  C  1617  1  0.12863900  0.89475000  0.15912100  1
  C  1630  1  0.22599800  0.87416500  0.13825600  1
  C  1631  1  0.15199900  0.89178000  0.12171200  1
  C  1634  1  0.29991700  0.85536500  0.15356600  1
  C  1641  1  0.48625100  0.87762300  0.61393100  1
  C  1642  1  0.52174800  0.88565400  0.60601800  1
  C  1643  1  0.54844400  0.88893600  0.64360900  1
  C  1644  1  0.51352600  0.88088100  0.65224900  1
  C  1645  1  0.51015700  0.87922600  0.67487900  1
  C  1646  1  0.54017000  0.88566800  0.68878300  1
  C  1647  1  0.57438500  0.89369400  0.67969300  1
  C  1648  1  0.57861900  0.89514500  0.65746500  1
  C  1649  1  0.52643700  0.88882100  0.58385900  1
  C  1650  1  0.49598600  0.88498400  0.56958500  1
  C  1651  1  0.45961400  0.87781300  0.57689400  1
  C  1652  1  0.45589400  0.87358900  0.59899900  1
  C  1653  1  0.44707200  0.88870800  0.64381200  1
  C  1654  1  0.41194200  0.87987700  0.65132300  1
  C  1655  1  0.43964600  0.84244700  0.64867200  1
  C  1656  1  0.47527100  0.85061500  0.64105900  1
  C  1657  1  0.43561900  0.82029500  0.65226700  1
  C  1658  1  0.46672100  0.80627900  0.64907200  1
  C  1659  1  0.50269400  0.81384200  0.64166300  1
  C  1660  1  0.50628400  0.83596800  0.63766800  1
  C  1661  1  0.45009100  0.91134400  0.64218500  1
  C  1662  1  0.41976100  0.92519200  0.64813400  1
  C  1663  1  0.38497400  0.91584100  0.65532900  1
  C  1664  1  0.38112900  0.89358700  0.65683300  1
  C  1677  1  0.48055200  0.87439300  0.63771100  1
  C  1678  1  0.40632700  0.85651100  0.65371500  1
  C  1681  1  0.55445800  0.89129500  0.62027900  1
  C  1688  1  0.98625700  0.63349700  0.42527800  1
  C  1689  1  0.02175440  0.62546600  0.43319100  1
  C  1690  1  0.04844840  0.62218000  0.39560100  1
  C  1691  1  0.01353240  0.63023500  0.38696000  1
  C  1692  1  0.01016540  0.63188900  0.36433100  1
  C  1693  1  0.04017840  0.62544700  0.35042600  1
  C  1694  1  0.07439240  0.61742100  0.35951800  1
  C  1695  1  0.07862340  0.61597000  0.38174600  1
  C  1696  1  0.02644040  0.62229900  0.45535000  1
  C  1697  1  0.99598900  0.62613800  0.46962500  1
  C  1698  1  0.95962000  0.63331000  0.46231500  1
  C  1699  1  0.95590000  0.63753400  0.44021000  1
  C  1700  1  0.94707800  0.62240900  0.39539900  1
  C  1701  1  0.91194300  0.63124200  0.38789400  1
  C  1702  1  0.93964800  0.66867000  0.39053700  1
  C  1703  1  0.97527700  0.66050400  0.39814700  1
  C  1704  1  0.93561400  0.69082300  0.38694800  1
  C  1705  1  0.96671800  0.70484100  0.39013200  1
  C  1706  1  0.00270637  0.69726800  0.39750900  1
  C  1707  1  0.00629237  0.67515000  0.40153500  1
  C  1708  1  0.95009600  0.59977400  0.39702400  1
  C  1709  1  0.91976600  0.58592600  0.39107900  1
  C  1710  1  0.88497300  0.59527800  0.38388900  1
  C  1711  1  0.88112700  0.61753100  0.38238800  1
  C  1724  1  0.98055600  0.63672700  0.40149800  1
  C  1725  1  0.90632300  0.65460700  0.38550500  1
  C  1728  1  0.05446140  0.61982100  0.41893100  1
  C  1735  1  0.23537800  0.16088800  0.14145500  1
  C  1736  1  0.27101300  0.16847500  0.14960100  1
  C  1737  1  0.29701500  0.13066100  0.15231300  1
  C  1738  1  0.26179200  0.12232600  0.14438500  1
  C  1739  1  0.25789400  0.09973100  0.14258200  1
  C  1740  1  0.28748200  0.08544500  0.14869400  1
  C  1741  1  0.32241600  0.09434400  0.15625400  1
  C  1742  1  0.32708200  0.11653000  0.15800500  1
  C  1743  1  0.27602600  0.19055500  0.15315100  1
  C  1744  1  0.24580300  0.20505000  0.14955100  1
  C  1745  1  0.20934400  0.19807200  0.14217200  1
  C  1746  1  0.20529300  0.17604500  0.13761800  1
  C  1747  1  0.19560700  0.13120200  0.15228800  1
  C  1748  1  0.16034100  0.12396900  0.14340400  1
  C  1749  1  0.18821100  0.12667400  0.10597100  1
  C  1750  1  0.22394200  0.13405200  0.11420800  1
  C  1751  1  0.18425500  0.12322000  0.08378900  1
  C  1752  1  0.21548900  0.12631200  0.06982300  1
  C  1753  1  0.25159800  0.13344100  0.07746900  1
  C  1754  1  0.25509000  0.13735500  0.09961700  1
  C  1755  1  0.19866500  0.13272700  0.17493000  1
  C  1756  1  0.16820500  0.12696100  0.18876300  1
  C  1757  1  0.13330000  0.11998400  0.17937800  1
  C  1758  1  0.12943000  0.11858400  0.15710800  1
  C  1771  1  0.22920100  0.13717400  0.13801400  1
  C  1772  1  0.15475900  0.12173800  0.12000400  1
  C  1775  1  0.30350900  0.15393400  0.15493800  1
  C  1782  1  0.73538000  0.35023000  0.89775000  1
  C  1783  1  0.77101000  0.34264300  0.88959800  1
  C  1784  1  0.79701700  0.38045500  0.88689000  1
  C  1785  1  0.76180100  0.38879100  0.89482300  1
  C  1786  1  0.75790500  0.41138500  0.89663000  1
  C  1787  1  0.78749000  0.42567200  0.89051500  1
  C  1788  1  0.82242100  0.41677300  0.88295000  1
  C  1789  1  0.82708200  0.39458700  0.88119400  1
  C  1790  1  0.77602600  0.32056100  0.88605200  1
  C  1791  1  0.74579700  0.30606800  0.88964300  1
  C  1792  1  0.70934100  0.31304600  0.89702800  1
  C  1793  1  0.70529000  0.33507300  0.90157300  1
  C  1794  1  0.69561300  0.37992100  0.88692500  1
  C  1795  1  0.66035300  0.38715900  0.89581200  1
  C  1796  1  0.68823400  0.38444400  0.93324200  1
  C  1797  1  0.72395300  0.37706100  0.92500200  1
  C  1798  1  0.68428100  0.38788900  0.95542700  1
  C  1799  1  0.71553000  0.38480600  0.96938600  1
  C  1800  1  0.75163000  0.37766400  0.96173700  1
  C  1801  1  0.75510700  0.37375100  0.93958900  1
  C  1802  1  0.69866500  0.37839600  0.86428200  1
  C  1803  1  0.66820200  0.38416500  0.85045200  1
  C  1804  1  0.63330300  0.39114800  0.85984000  1
  C  1805  1  0.62944500  0.39255300  0.88211100  1
  C  1818  1  0.72920600  0.37394300  0.90119500  1
  C  1819  1  0.65477900  0.38938900  0.91921200  1
  C  1822  1  0.80350600  0.35718300  0.88426000  1
  C  1829  1  0.72354900  0.63427200  0.61408700  1
  C  1830  1  0.68797700  0.62705500  0.60549800  1
  C  1831  1  0.65923500  0.62382800  0.64265600  1
  C  1832  1  0.69420600  0.63109800  0.65189900  1
  C  1833  1  0.69663800  0.63241200  0.67457600  1
  C  1834  1  0.66566900  0.62634700  0.68799000  1
  C  1835  1  0.63143100  0.61904500  0.67832800  1
  C  1836  1  0.62809900  0.61798700  0.65602300  1
  C  1837  1  0.68445100  0.62390900  0.58325300  1
  C  1838  1  0.71596600  0.62717100  0.56953600  1
  C  1839  1  0.75194200  0.63412900  0.57751700  1
  C  1840  1  0.75502900  0.63770000  0.59974200  1
  C  1841  1  0.76063400  0.62222800  0.64447200  1
  C  1842  1  0.79573800  0.63044100  0.65269800  1
  C  1843  1  0.77007400  0.66827800  0.65007700  1
  C  1844  1  0.73454000  0.66081600  0.64167900  1
  C  1845  1  0.77524300  0.69031600  0.65379000  1
  C  1846  1  0.74522200  0.70490200  0.65011100  1
  C  1847  1  0.70884700  0.69804000  0.64250900  1
  C  1848  1  0.70465400  0.67606400  0.63778600  1
  C  1849  1  0.75666000  0.59965800  0.64252000  1
  C  1850  1  0.78602600  0.58531000  0.64879900  1
  C  1851  1  0.82087300  0.59408900  0.65660400  1
  C  1852  1  0.82562700  0.61624700  0.65850200  1
  C  1865  1  0.72824500  0.63715600  0.63796800  1
  C  1866  1  0.80236500  0.65366300  0.65551400  1
  C  1869  1  0.65422500  0.62188400  0.61920400  1
  C  1876  1  0.22353500  0.87684600  0.42512800  1
  C  1877  1  0.18796000  0.88406500  0.43371100  1
  C  1878  1  0.15923200  0.88728900  0.39655200  1
  C  1879  1  0.19420900  0.88002000  0.38731200  1
  C  1880  1  0.19664900  0.87870400  0.36463400  1
  C  1881  1  0.16568700  0.88477500  0.35121900  1
  C  1882  1  0.13144300  0.89207400  0.36087500  1
  C  1883  1  0.12809900  0.89312600  0.38318100  1
  C  1884  1  0.18441700  0.88719600  0.45595800  1
  C  1885  1  0.21594600  0.88396500  0.46967100  1
  C  1886  1  0.25191000  0.87697000  0.46170600  1
  C  1887  1  0.25500900  0.87341400  0.43947700  1
  C  1888  1  0.26063700  0.88889000  0.39474800  1
  C  1889  1  0.29574100  0.88067700  0.38652900  1
  C  1890  1  0.27008000  0.84284100  0.38914500  1
  C  1891  1  0.23454000  0.85030400  0.39753600  1
  C  1892  1  0.27525200  0.82080300  0.38543500  1
  C  1893  1  0.24523100  0.80621600  0.38910800  1
  C  1894  1  0.20885300  0.81307800  0.39671000  1
  C  1895  1  0.20465400  0.83505400  0.40142600  1
  C  1896  1  0.25666100  0.91146100  0.39669900  1
  C  1897  1  0.28602900  0.92580900  0.39042400  1
  C  1898  1  0.32087900  0.91702900  0.38262400  1
  C  1899  1  0.32563300  0.89487300  0.38072800  1
  C  1912  1  0.22824200  0.87396200  0.40124800  1
  C  1913  1  0.30237400  0.85745600  0.38371400  1
  C  1916  1  0.15421300  0.88922800  0.42000200  1
  C  1923  1  0.97434200  0.35048500  0.14075000  1
  C  1924  1  0.93860300  0.34222600  0.14808500  1
  C  1925  1  0.91065500  0.37964300  0.15082200  1
  C  1926  1  0.94592000  0.38857100  0.14364000  1
  C  1927  1  0.94890900  0.41122400  0.14216500  1
  C  1928  1  0.91838500  0.42502700  0.14792800  1
  C  1929  1  0.88347800  0.41558300  0.15482500  1
  C  1930  1  0.87968300  0.39330800  0.15618900  1
  C  1931  1  0.93465800  0.32004100  0.15151600  1
  C  1932  1  0.96591200  0.30608700  0.14843500  1
  C  1933  1  0.00203337  0.31373800  0.14133000  1
  C  1934  1  0.00551337  0.33589900  0.13745400  1
  C  1935  1  0.01211140  0.38067700  0.15251800  1
  C  1936  1  0.04733140  0.38864400  0.14422000  1
  C  1937  1  0.02139340  0.38596700  0.10639700  1
  C  1938  1  0.98576900  0.37778800  0.11396500  1
  C  1939  1  0.02639740  0.38957400  0.08432500  1
  C  1940  1  0.99617100  0.38599800  0.06982500  1
  C  1941  1  0.95974400  0.37856000  0.07679100  1
  C  1942  1  0.95569300  0.37397300  0.09880600  1
  C  1943  1  0.00814937  0.37883600  0.17509900  1
  C  1944  1  0.03768040  0.38495500  0.18941100  1
  C  1945  1  0.07260240  0.39258800  0.18056500  1
  C  1946  1  0.07733540  0.39436200  0.15838400  1
  C  1959  1  0.97955100  0.37430800  0.13766200  1
  C  1960  1  0.05386340  0.39130600  0.12095500  1
  C  1963  1  0.90511300  0.35623700  0.15300500  1
  C  1970  1  0.47433400  0.16063600  0.89847100  1
  C  1971  1  0.43859400  0.16889300  0.89113400  1
  C  1972  1  0.41065100  0.13147500  0.88839400  1
  C  1973  1  0.44591700  0.12255000  0.89557800  1
  C  1974  1  0.44890800  0.09989700  0.89705500  1
  C  1975  1  0.41838900  0.08609100  0.89128600  1
  C  1976  1  0.38348200  0.09553500  0.88438600  1
  C  1977  1  0.37968200  0.11781000  0.88302300  1
  C  1978  1  0.43464100  0.19108100  0.88771300  1
  C  1979  1  0.46590200  0.20503400  0.89078000  1
  C  1980  1  0.50202400  0.19738300  0.89788600  1
  C  1981  1  0.50550300  0.17522300  0.90176600  1
  C  1982  1  0.51210400  0.13044600  0.88670000  1
  C  1983  1  0.54732600  0.12248000  0.89499700  1
  C  1984  1  0.52139100  0.12515600  0.93281900  1
  C  1985  1  0.48576600  0.13333300  0.92525300  1
  C  1986  1  0.52639800  0.12154900  0.95489100  1
  C  1987  1  0.49617200  0.12512200  0.96939300  1
  C  1988  1  0.45974200  0.13255700  0.96242900  1
  C  1989  1  0.45568800  0.13714500  0.94041300  1
  C  1990  1  0.50814300  0.13228900  0.86411800  1
  C  1991  1  0.53766800  0.12616700  0.84980600  1
  C  1992  1  0.57259100  0.11853400  0.85865000  1
  C  1993  1  0.57732900  0.11676400  0.88083200  1
  C  2006  1  0.47954400  0.13681400  0.90155600  1
  C  2007  1  0.55386000  0.11981800  0.91826200  1
  C  2010  1  0.40510600  0.15488200  0.88621000  1
  C  2017  1  0.13224600  0.24119700  0.40248500  1
  C  2018  1  0.12401300  0.25815100  0.41670600  1
  C  2019  1  0.09161540  0.27185300  0.41395300  1
  C  2020  1  0.06652340  0.26898500  0.39618000  1
  C  2021  1  0.07502540  0.25192500  0.38201200  1
  C  2023  1  0.10702400  0.23839300  0.38501800  1
  C  2029  1  0.16630200  0.22936600  0.40449300  1
  C  2031  1  0.03344040  0.28138800  0.39201300  1
  C  2033  1  0.63224300  0.26992300  0.63673300  1
  C  2034  1  0.62402300  0.25296400  0.62251900  1
  C  2035  1  0.59162700  0.23926100  0.62526800  1
  C  2036  1  0.56651600  0.24213500  0.64303400  1
  C  2037  1  0.57500100  0.25920300  0.65719600  1
  C  2039  1  0.60700100  0.27273500  0.65419100  1
  C  2045  1  0.66630200  0.28175200  0.63473300  1
  C  2047  1  0.53343700  0.22973100  0.64720300  1
  C  2049  1  0.38254500  0.87327600  0.00533400  1
  C  2050  1  0.37503000  0.85935700  0.02264300  1
  C  2051  1  0.34240800  0.86187700  0.03623200  1
  C  2052  1  0.31630500  0.87911300  0.03288600  1
  C  2053  1  0.32409900  0.89299700  0.01549200  1
  C  2055  1  0.35633800  0.89021700  0.00207400  1
  C  2061  1  0.41668400  0.87148400  0.99351900  1
  C  2063  1  0.28288700  0.88296400  0.04512700  1
  C  2065  1  0.88253300  0.63785100  0.03387600  1
  C  2066  1  0.87498200  0.65178700  0.01658800  1
  C  2067  1  0.84237300  0.64925600  0.00299100  1
  C  2068  1  0.81631900  0.63199100  0.00631200  1
  C  2069  1  0.82415100  0.61808900  0.02368700  1
  C  2071  1  0.85637900  0.62088200  0.03711100  1
  C  2077  1  0.91665500  0.63966800  0.04570400  1
  C  2079  1  0.78291600  0.62812800  0.99406600  1
  C  2081  1  0.57155700  0.76972300  0.63705500  1
  C  2082  1  0.57931900  0.75252400  0.62304800  1
  C  2083  1  0.61209900  0.73905400  0.62553800  1
  C  2084  1  0.63807900  0.74242600  0.64282100  1
  C  2085  1  0.63002400  0.75969500  0.65680600  1
  C  2087  1  0.59762700  0.77299600  0.65405700  1
  C  2093  1  0.53736200  0.78146200  0.63524500  1
  C  2095  1  0.67167600  0.73034700  0.64658900  1
  C  2097  1  0.07156240  0.74139200  0.40214600  1
  C  2098  1  0.07930140  0.75859900  0.41614500  1
  C  2099  1  0.11208600  0.77206900  0.41366300  1
  C  2100  1  0.13809100  0.76868900  0.39639200  1
  C  2101  1  0.13005700  0.75141100  0.38241400  1
  C  2103  1  0.09765640  0.73811100  0.38515700  1
  C  2109  1  0.03736240  0.72965600  0.40394300  1
  C  2111  1  0.17169000  0.78076600  0.39263000  1
  C  2113  1  0.32116800  0.13788500  0.03352400  1
  C  2114  1  0.32876600  0.15166700  0.01611400  1
  C  2115  1  0.36184800  0.14929600  0.00284000  1
  C  2116  1  0.38838300  0.13235700  0.00662300  1
  C  2117  1  0.38050400  0.11859500  0.02409900  1
  C  2119  1  0.34778800  0.12122700  0.03720100  1
  C  2125  1  0.28671700  0.13958700  0.04509600  1
  C  2127  1  0.42234000  0.12876000  0.99476600  1
  C  2129  1  0.82117900  0.37322300  0.00569100  1
  C  2130  1  0.82880900  0.35942700  0.02308300  1
  C  2131  1  0.86188300  0.36180800  0.03636200  1
  C  2132  1  0.88837500  0.37877200  0.03260300  1
  C  2133  1  0.88046300  0.39255200  0.01514400  1
  C  2135  1  0.84775900  0.38990900  0.00203600  1
  C  2141  1  0.78674500  0.37150200  0.99410700  1
  C  2143  1  0.92232100  0.38238200  0.04446400  1
  C  2145  1  0.63242100  0.74126000  0.90275200  1
  C  2146  1  0.62452500  0.75845600  0.91675100  1
  C  2147  1  0.59205300  0.77212800  0.91404900  1
  C  2148  1  0.56644500  0.76899700  0.89654600  1
  C  2149  1  0.57458800  0.75169000  0.88260400  1
  C  2151  1  0.60667900  0.73819100  0.88556000  1
  C  2157  1  0.66658700  0.72946000  0.90469600  1
  C  2159  1  0.53322400  0.78136300  0.89245000  1
  C  2161  1  0.13243100  0.76985200  0.13646400  1
  C  2162  1  0.12453300  0.75265600  0.12246500  1
  C  2163  1  0.09206040  0.73898500  0.12516800  1
  C  2164  1  0.06645440  0.74211800  0.14267300  1
  C  2165  1  0.07460040  0.75942500  0.15661400  1
  C  2167  1  0.10669200  0.77292200  0.15365600  1
  C  2173  1  0.16659900  0.78165200  0.13451700  1
  C  2175  1  0.03323040  0.72975500  0.14677000  1
  C  2177  1  0.88200800  0.37220400  0.50506600  1
  C  2178  1  0.87398800  0.35801000  0.52207700  1
  C  2179  1  0.84186500  0.36082100  0.53596600  1
  C  2180  1  0.81680700  0.37863500  0.53324700  1
  C  2181  1  0.82507500  0.39276900  0.51611800  1
  C  2183  1  0.85680600  0.38970300  0.50239900  1
  C  2189  1  0.91590200  0.37015800  0.49308100  1
  C  2191  1  0.78399600  0.38288900  0.54586300  1
  C  2193  1  0.38201700  0.13890900  0.53414800  1
  C  2194  1  0.37401800  0.15309600  0.51712700  1
  C  2195  1  0.34188800  0.15028800  0.50324000  1
  C  2196  1  0.31680500  0.13248700  0.50597400  1
  C  2197  1  0.32505200  0.11836300  0.52311400  1
  C  2199  1  0.35679000  0.12142600  0.53682700  1
  C  2205  1  0.41592200  0.14094500  0.54612500  1
  C  2207  1  0.28399100  0.12823500  0.49335900  1
  C  2209  1  0.07138040  0.26964400  0.13684000  1
  C  2210  1  0.07879340  0.25218500  0.12308700  1
  C  2211  1  0.11165300  0.23874900  0.12552500  1
  C  2212  1  0.13816300  0.24240200  0.14250600  1
  C  2213  1  0.13047600  0.25994200  0.15622700  1
  C  2215  1  0.09798540  0.27320600  0.15353000  1
  C  2221  1  0.03705640  0.28134400  0.13510300  1
  C  2223  1  0.17188100  0.23034700  0.14621500  1
  C  2225  1  0.57137100  0.24147700  0.90236900  1
  C  2226  1  0.57878800  0.25893700  0.91612000  1
  C  2227  1  0.61164800  0.27237200  0.91368300  1
  C  2228  1  0.63815700  0.26871600  0.89670200  1
  C  2229  1  0.63047000  0.25117600  0.88298200  1
  C  2231  1  0.59797700  0.23791300  0.88567900  1
  C  2237  1  0.53704900  0.22977700  0.90410600  1
  C  2239  1  0.67188100  0.28076600  0.89299500  1
  C  2241  1  0.82169300  0.63897400  0.53377600  1
  C  2242  1  0.82986900  0.65306000  0.51669500  1
  C  2243  1  0.86250400  0.65037500  0.50314700  1
  C  2244  1  0.88795900  0.63281000  0.50630400  1
  C  2245  1  0.87952100  0.61877200  0.52348200  1
  C  2247  1  0.84727100  0.62171200  0.53685800  1
  C  2253  1  0.78746700  0.64095000  0.54549300  1
  C  2255  1  0.92135100  0.62876800  0.49409600  1
  C  2257  1  0.32167900  0.87214700  0.50543800  1
  C  2258  1  0.32984300  0.85807100  0.52252700  1
  C  2259  1  0.36248300  0.86075100  0.53607100  1
  C  2260  1  0.38795800  0.87830700  0.53290400  1
  C  2261  1  0.37953400  0.89233700  0.51571600  1
  C  2263  1  0.34727600  0.88940000  0.50234200  1
  C  2269  1  0.28745000  0.87017900  0.49372400  1
  C  2271  1  0.42135300  0.88234700  0.54510900  1
  C  2273  1  0.18242700  0.13044500  0.29228700  1
  C  2274  1  0.19653700  0.14524000  0.27710400  1
  C  2275  1  0.18840800  0.14329600  0.25494900  1
  C  2276  1  0.16581900  0.12586700  0.24746400  1
  C  2277  1  0.15243200  0.11085400  0.26265800  1
  C  2279  1  0.16058400  0.11304100  0.28452900  1
  C  2285  1  0.19003100  0.13309400  0.31404400  1
  C  2287  1  0.15380900  0.12339700  0.22628100  1
  C  2289  1  0.68241300  0.38067400  0.74692900  1
  C  2290  1  0.69652200  0.36588000  0.76211300  1
  C  2291  1  0.68839600  0.36782800  0.78426800  1
  C  2292  1  0.66580800  0.38525800  0.79175300  1
  C  2293  1  0.65242000  0.40027000  0.77655600  1
  C  2295  1  0.66056900  0.39808000  0.75468500  1
  C  2301  1  0.69001600  0.37802300  0.72517300  1
  C  2303  1  0.65380000  0.38773000  0.81293400  1
  C  2305  1  0.43114400  0.98237800  0.89439600  1
  C  2306  1  0.44569900  0.99748700  0.90914000  1
  C  2307  1  0.43804500  0.01969700  0.90720400  1
  C  2308  1  0.41548700  0.02733800  0.88982600  1
  C  2309  1  0.40164500  0.01220200  0.87486800  1
  C  2311  1  0.40931500  0.99027400  0.87705200  1
  C  2317  1  0.43841900  0.96057400  0.89700800  1
  C  2319  1  0.40392800  0.04861400  0.88733600  1
  C  2321  1  0.93112600  0.52874100  0.14481600  1
  C  2322  1  0.94567800  0.51363300  0.13006900  1
  C  2323  1  0.93802500  0.49142200  0.13200700  1
  C  2324  1  0.91547700  0.48378100  0.14938700  1
  C  2325  1  0.90163900  0.49891600  0.16434700  1
  C  2327  1  0.90930600  0.52084400  0.16216200  1
  C  2333  1  0.93840000  0.55054400  0.14220200  1
  C  2335  1  0.90392300  0.46250500  0.15187900  1
  C  2337  1  0.02138740  0.38064800  0.29291000  1
  C  2338  1  0.00819537  0.36579400  0.27753600  1
  C  2339  1  0.01642340  0.36809900  0.25542800  1
  C  2340  1  0.03813340  0.38596700  0.24818500  1
  C  2341  1  0.05055940  0.40103100  0.26359100  1
  C  2343  1  0.04235840  0.39847900  0.28541600  1
  C  2349  1  0.01360140  0.37769700  0.31459600  1
  C  2351  1  0.05022740  0.38889900  0.22706400  1
  C  2353  1  0.52136000  0.13046400  0.74630500  1
  C  2354  1  0.50817600  0.14532100  0.76167800  1
  C  2355  1  0.51640600  0.14302000  0.78378700  1
  C  2356  1  0.53811300  0.12515000  0.79103200  1
  C  2357  1  0.55053300  0.11008400  0.77562600  1
  C  2359  1  0.54232900  0.11263300  0.75380300  1
  C  2365  1  0.51357100  0.13341100  0.72462100  1
  C  2367  1  0.55021100  0.12222000  0.81215100  1
  C  2369  1  0.77264400  0.52937200  0.89448000  1
  C  2370  1  0.75899700  0.51405900  0.90927600  1
  C  2371  1  0.76674200  0.49189300  0.90696400  1
  C  2372  1  0.78842900  0.48450700  0.88914000  1
  C  2373  1  0.80132600  0.49987300  0.87414400  1
  C  2375  1  0.79361500  0.52175100  0.87670600  1
  C  2381  1  0.76517900  0.55110400  0.89740600  1
  C  2383  1  0.80001200  0.46328500  0.88615000  1
  C  2385  1  0.27263600  0.98174300  0.14473400  1
  C  2386  1  0.25897700  0.99705600  0.12994300  1
  C  2387  1  0.26672200  0.01922300  0.13225200  1
  C  2388  1  0.28842000  0.02660900  0.15007000  1
  C  2389  1  0.30133500  0.01124500  0.16506200  1
  C  2391  1  0.29362400  0.98936400  0.16250300  1
  C  2397  1  0.26516500  0.96001100  0.14181300  1
  C  2399  1  0.30000300  0.04783200  0.15305800  1
  C  2401  1  0.52235400  0.88078700  0.74610400  1
  C  2402  1  0.50839300  0.86587900  0.76121800  1
  C  2403  1  0.51582400  0.86798900  0.78343200  1
  C  2404  1  0.53751100  0.88570900  0.79104900  1
  C  2405  1  0.55072000  0.90083000  0.77590300  1
  C  2407  1  0.54328900  0.89847300  0.75397400  1
  C  2413  1  0.51537300  0.87801400  0.72430800  1
  C  2415  1  0.54885300  0.88842400  0.81232000  1
  C  2417  1  0.02236640  0.63032600  0.29310500  1
  C  2418  1  0.00840637  0.64523500  0.27799100  1
  C  2419  1  0.01583640  0.64312300  0.25577700  1
  C  2420  1  0.03752140  0.62539900  0.24816100  1
  C  2421  1  0.05072740  0.61028000  0.26330700  1
  C  2423  1  0.04329640  0.61263900  0.28523700  1
  C  2429  1  0.01538640  0.63310300  0.31490100  1
  C  2431  1  0.04885840  0.62268300  0.22688900  1
  C  2433  1  0.68229100  0.63051600  0.74545500  1
  C  2434  1  0.69522900  0.64549000  0.76077600  1
  C  2435  1  0.68781300  0.64296300  0.78294800  1
  C  2436  1  0.66722300  0.62473700  0.79031400  1
  C  2437  1  0.65506800  0.60957200  0.77493000  1
  C  2439  1  0.66243200  0.61234900  0.75304700  1
  C  2445  1  0.68938700  0.63363400  0.72372900  1
  C  2447  1  0.65602400  0.62144000  0.81154700  1
  C  2449  1  0.18232000  0.88060700  0.29375400  1
  C  2450  1  0.19524900  0.86563000  0.27843400  1
  C  2451  1  0.18783000  0.86815300  0.25626200  1
  C  2452  1  0.16724600  0.88638100  0.24889500  1
  C  2453  1  0.15509700  0.90154900  0.26427700  1
  C  2455  1  0.16246100  0.89877400  0.28616000  1
  C  2461  1  0.18941800  0.87749400  0.31548000  1
  C  2463  1  0.15604400  0.88967600  0.22766200  1
  C  2465  1  0.93299200  0.48239000  0.39434100  1
  C  2466  1  0.94638500  0.49746300  0.40944400  1
  C  2467  1  0.93865700  0.51964900  0.40741500  1
  C  2468  1  0.91725300  0.52726200  0.38959100  1
  C  2469  1  0.90463100  0.51216900  0.37427500  1
  C  2471  1  0.91235800  0.49026600  0.37654900  1
  C  2477  1  0.94013000  0.46061200  0.39705300  1
  C  2479  1  0.90563300  0.54848000  0.38695300  1
  C  2481  1  0.43299000  0.02872800  0.64486800  1
  C  2482  1  0.44638200  0.01365500  0.62976600  1
  C  2483  1  0.43865400  0.99146700  0.63179500  1
  C  2484  1  0.41725200  0.98385600  0.64962200  1
  C  2485  1  0.40463100  0.99895100  0.66493800  1
  C  2487  1  0.41235900  0.02085400  0.66266200  1
  C  2493  1  0.44013000  0.05050600  0.64215600  1
  C  2495  1  0.40563100  0.96263800  0.65226100  1
  C  2497  1  0.27081700  0.02934900  0.39442300  1
  C  2498  1  0.25847400  0.01408300  0.40960100  1
  C  2499  1  0.26617300  0.99193300  0.40716800  1
  C  2500  1  0.28643100  0.98455200  0.38883700  1
  C  2501  1  0.29796800  0.99986800  0.37346400  1
  C  2503  1  0.29032600  0.02173000  0.37614900  1
  C  2509  1  0.26358300  0.05106000  0.39746700  1
  C  2511  1  0.29791600  0.96336700  0.38563400  1
  C  2513  1  0.77081300  0.48177100  0.64479400  1
  C  2514  1  0.75847100  0.49703800  0.62961800  1
  C  2515  1  0.76617000  0.51918700  0.63205200  1
  C  2516  1  0.78643100  0.52656800  0.65038200  1
  C  2517  1  0.79796700  0.51125000  0.66575300  1
  C  2519  1  0.79032300  0.48938700  0.66306800  1
  C  2525  1  0.76357400  0.46006000  0.64175000  1
  C  2527  1  0.79791200  0.54775100  0.65358800  1
  N  44  1  0.82347900  0.20984100  0.39822200  1
  N  45  1  0.92960500  0.13627600  0.47484400  1
  N  46  1  0.82062800  0.12565400  0.32842500  1
  N  47  1  0.93955900  0.06548300  0.38977000  1
  N  91  1  0.32347500  0.30127900  0.64099800  1
  N  92  1  0.42960500  0.37484200  0.56437500  1
  N  93  1  0.32061100  0.38546000  0.71079200  1
  N  94  1  0.43955600  0.44563600  0.64944200  1
  N  138  1  0.07352900  0.87719500  0.97380000  1
  N  139  1  0.17891500  0.80005300  0.90011100  1
  N  140  1  0.06891300  0.94625100  0.88953400  1
  N  141  1  0.18205800  0.88279400  0.82865000  1
  N  185  1  0.57350300  0.63393100  0.06541400  1
  N  186  1  0.67892200  0.71106200  0.13911400  1
  N  187  1  0.56889700  0.56486700  0.14968000  1
  N  188  1  0.68206400  0.62831500  0.21056100  1
  N  232  1  0.67918200  0.30001900  0.39980300  1
  N  233  1  0.57299500  0.37652500  0.47357800  1
  N  234  1  0.68963200  0.38505200  0.32917300  1
  N  235  1  0.57069000  0.44638000  0.38937100  1
  N  279  1  0.17918100  0.21110100  0.63941000  1
  N  280  1  0.07301600  0.13459900  0.56563600  1
  N  281  1  0.18960300  0.12605400  0.71004400  1
  N  282  1  0.07068900  0.06473900  0.64983500  1
  N  326  1  0.42941400  0.63522300  0.97506500  1
  N  327  1  0.32398100  0.70989300  0.89855900  1
  N  328  1  0.44128600  0.56563000  0.89000000  1
  N  329  1  0.32817700  0.62808700  0.82807600  1
  N  373  1  0.92941100  0.87589700  0.06414000  1
  N  374  1  0.82399300  0.80121900  0.14065300  1
  N  375  1  0.94127400  0.94548500  0.14921700  1
  N  376  1  0.82819400  0.88302700  0.21113300  1
  N  420  1  0.18741700  0.80117300  0.64095800  1
  N  421  1  0.08245000  0.87488400  0.56389000  1
  N  422  1  0.19187300  0.88555600  0.71005500  1
  N  423  1  0.07931100  0.94629200  0.64664900  1
  N  467  1  0.68742300  0.70994500  0.39823500  1
  N  468  1  0.58245500  0.63623900  0.47531900  1
  N  469  1  0.69188500  0.62556200  0.32915500  1
  N  470  1  0.57931600  0.56482400  0.39256300  1
  N  514  1  0.93647200  0.13411400  0.06486500  1
  N  515  1  0.83224900  0.21120500  0.13947800  1
  N  516  1  0.93425700  0.06438500  0.14694600  1
  N  517  1  0.82783900  0.12838300  0.20986700  1
  N  561  1  0.43649800  0.37699700  0.97434500  1
  N  562  1  0.33224600  0.29991200  0.89972200  1
  N  563  1  0.43426800  0.44673200  0.89226700  1
  N  564  1  0.32783000  0.38274200  0.82934900  1
  N  608  1  0.33191400  0.71123200  0.63977000  1
  N  609  1  0.43696800  0.63479200  0.56504400  1
  N  610  1  0.32021200  0.62608800  0.70928000  1
  N  611  1  0.43274400  0.56428800  0.64693500  1
  N  655  1  0.83191700  0.79988600  0.39944200  1
  N  656  1  0.93694500  0.87631800  0.47416800  1
  N  657  1  0.82024100  0.88504100  0.32992700  1
  N  658  1  0.93274400  0.94683000  0.39228500  1
  N  702  1  0.58258200  0.37592700  0.06370900  1
  N  703  1  0.68688300  0.30109900  0.14066300  1
  N  704  1  0.57787200  0.44616100  0.14653800  1
  N  705  1  0.68429600  0.38320000  0.21043900  1
  N  749  1  0.08257900  0.13518700  0.97551000  1
  N  750  1  0.18687600  0.21002300  0.89855100  1
  N  751  1  0.07787800  0.06495700  0.89267300  1
  N  752  1  0.18428100  0.12792000  0.82877800  1
  N  762  1  0.73760400  0.28830600  0.42886200  1
  N  778  1  0.23763300  0.22280100  0.61036600  1
  N  794  1  0.98910500  0.84725100  0.05302700  1
  N  810  1  0.48902700  0.66389900  0.98621800  1
  N  826  1  0.27264800  0.72237800  0.61081900  1
  N  842  1  0.77261300  0.78875400  0.42837400  1
  N  858  1  0.02218100  0.16380200  0.98595200  1
  N  874  1  0.52225300  0.34728600  0.05323100  1
  N  890  1  0.23846100  0.78882600  0.92874600  1
  N  906  1  0.73846200  0.72228700  0.11047300  1
  N  922  1  0.48811100  0.34593900  0.55247700  1
  N  938  1  0.98815500  0.16515900  0.48671700  1
  N  954  1  0.77175500  0.22180400  0.11105200  1
  N  970  1  0.27175500  0.28931500  0.92815600  1
  N  986  1  0.52336500  0.66516100  0.48657200  1
  N  1002  1  0.02332700  0.84597600  0.55265800  1
  N  1018  1  0.85518400  0.15886300  0.24032200  1
  N  1034  1  0.35516900  0.35226000  0.79889500  1
  N  1050  1  0.10529700  0.03423300  0.92272900  1
  N  1066  1  0.60527400  0.47688700  0.11647900  1
  N  1082  1  0.65751200  0.35247100  0.24061800  1
  N  1098  1  0.15750200  0.15865000  0.79859500  1
  N  1114  1  0.40732000  0.47716300  0.92254100  1
  N  1130  1  0.90728200  0.03395300  0.11667900  1
  N  1146  1  0.15615200  0.85231300  0.79798900  1
  N  1162  1  0.65616600  0.65879800  0.24121800  1
  N  1178  1  0.35341900  0.65870600  0.79769700  1
  N  1194  1  0.85343400  0.85240900  0.24151500  1
  N  1210  1  0.60465900  0.53417800  0.42327000  1
  N  1226  1  0.10465100  0.97693900  0.61594100  1
  N  1242  1  0.90814000  0.97723100  0.42309900  1
  N  1258  1  0.40813400  0.53389100  0.61612300  1
  N  1308  1  0.17001300  0.20984100  0.39822200  1
  N  1309  1  0.27613900  0.13627600  0.47484400  1
  N  1310  1  0.16716200  0.12565400  0.32842500  1
  N  1311  1  0.28609300  0.06548300  0.38977000  1
  N  1355  1  0.67000900  0.30127900  0.64099800  1
  N  1356  1  0.77613900  0.37484200  0.56437500  1
  N  1357  1  0.66714500  0.38546000  0.71079200  1
  N  1358  1  0.78609000  0.44563600  0.64944200  1
  N  1402  1  0.42006300  0.87719500  0.97380000  1
  N  1403  1  0.52544900  0.80005300  0.90011100  1
  N  1404  1  0.41544700  0.94625100  0.88953400  1
  N  1405  1  0.52859200  0.88279400  0.82865000  1
  N  1449  1  0.92003700  0.63393100  0.06541400  1
  N  1450  1  0.02545640  0.71106200  0.13911400  1
  N  1451  1  0.91543100  0.56486700  0.14968000  1
  N  1452  1  0.02859840  0.62831500  0.21056100  1
  N  1496  1  0.02571640  0.30001900  0.39980300  1
  N  1497  1  0.91952900  0.37652500  0.47357800  1
  N  1498  1  0.03616640  0.38505200  0.32917300  1
  N  1499  1  0.91722400  0.44638000  0.38937100  1
  N  1543  1  0.52571500  0.21110100  0.63941000  1
  N  1544  1  0.41955000  0.13459900  0.56563600  1
  N  1545  1  0.53613700  0.12605400  0.71004400  1
  N  1546  1  0.41722300  0.06473900  0.64983500  1
  N  1590  1  0.77594800  0.63522300  0.97506500  1
  N  1591  1  0.67051500  0.70989300  0.89855900  1
  N  1592  1  0.78782000  0.56563000  0.89000000  1
  N  1593  1  0.67471100  0.62808700  0.82807600  1
  N  1637  1  0.27594500  0.87589700  0.06414000  1
  N  1638  1  0.17052700  0.80121900  0.14065300  1
  N  1639  1  0.28780800  0.94548500  0.14921700  1
  N  1640  1  0.17472800  0.88302700  0.21113300  1
  N  1684  1  0.53395100  0.80117300  0.64095800  1
  N  1685  1  0.42898400  0.87488400  0.56389000  1
  N  1686  1  0.53840700  0.88555600  0.71005500  1
  N  1687  1  0.42584500  0.94629200  0.64664900  1
  N  1731  1  0.03395740  0.70994500  0.39823500  1
  N  1732  1  0.92898900  0.63623900  0.47531900  1
  N  1733  1  0.03841940  0.62556200  0.32915500  1
  N  1734  1  0.92585000  0.56482400  0.39256300  1
  N  1778  1  0.28300600  0.13411400  0.06486500  1
  N  1779  1  0.17878300  0.21120500  0.13947800  1
  N  1780  1  0.28079100  0.06438500  0.14694600  1
  N  1781  1  0.17437300  0.12838300  0.20986700  1
  N  1825  1  0.78303200  0.37699700  0.97434500  1
  N  1826  1  0.67878000  0.29991200  0.89972200  1
  N  1827  1  0.78080200  0.44673200  0.89226700  1
  N  1828  1  0.67436400  0.38274200  0.82934900  1
  N  1872  1  0.67844800  0.71123200  0.63977000  1
  N  1873  1  0.78350200  0.63479200  0.56504400  1
  N  1874  1  0.66674600  0.62608800  0.70928000  1
  N  1875  1  0.77927800  0.56428800  0.64693500  1
  N  1919  1  0.17845100  0.79988600  0.39944200  1
  N  1920  1  0.28347900  0.87631800  0.47416800  1
  N  1921  1  0.16677500  0.88504100  0.32992700  1
  N  1922  1  0.27927800  0.94683000  0.39228500  1
  N  1966  1  0.92911600  0.37592700  0.06370900  1
  N  1967  1  0.03341740  0.30109900  0.14066300  1
  N  1968  1  0.92440600  0.44616100  0.14653800  1
  N  1969  1  0.03083040  0.38320000  0.21043900  1
  N  2013  1  0.42911300  0.13518700  0.97551000  1
  N  2014  1  0.53341000  0.21002300  0.89855100  1
  N  2015  1  0.42441200  0.06495700  0.89267300  1
  N  2016  1  0.53081500  0.12792000  0.82877800  1
  N  2026  1  0.08413840  0.28830600  0.42886200  1
  N  2042  1  0.58416700  0.22280100  0.61036600  1
  N  2058  1  0.33563900  0.84725100  0.05302700  1
  N  2074  1  0.83556100  0.66389900  0.98621800  1
  N  2090  1  0.61918200  0.72237800  0.61081900  1
  N  2106  1  0.11914700  0.78875400  0.42837400  1
  N  2122  1  0.36871500  0.16380200  0.98595200  1
  N  2138  1  0.86878700  0.34728600  0.05323100  1
  N  2154  1  0.58499500  0.78882600  0.92874600  1
  N  2170  1  0.08499640  0.72228700  0.11047300  1
  N  2186  1  0.83464500  0.34593900  0.55247700  1
  N  2202  1  0.33468900  0.16515900  0.48671700  1
  N  2218  1  0.11828900  0.22180400  0.11105200  1
  N  2234  1  0.61828900  0.28931500  0.92815600  1
  N  2250  1  0.86989900  0.66516100  0.48657200  1
  N  2266  1  0.36986100  0.84597600  0.55265800  1
  N  2282  1  0.20171800  0.15886300  0.24032200  1
  N  2298  1  0.70170300  0.35226000  0.79889500  1
  N  2314  1  0.45183100  0.03423300  0.92272900  1
  N  2330  1  0.95180800  0.47688700  0.11647900  1
  N  2346  1  0.00404637  0.35247100  0.24061800  1
  N  2362  1  0.50403600  0.15865000  0.79859500  1
  N  2378  1  0.75385400  0.47716300  0.92254100  1
  N  2394  1  0.25381600  0.03395300  0.11667900  1
  N  2410  1  0.50268600  0.85231300  0.79798900  1
  N  2426  1  0.00270037  0.65879800  0.24121800  1
  N  2442  1  0.69995300  0.65870600  0.79769700  1
  N  2458  1  0.19996800  0.85240900  0.24151500  1
  N  2474  1  0.95119300  0.53417800  0.42327000  1
  N  2490  1  0.45118500  0.97693900  0.61594100  1
  N  2506  1  0.25467400  0.97723100  0.42309900  1
  N  2522  1  0.75466800  0.53389100  0.61612300  1
  O  763  1  0.76498400  0.30143300  0.42977400  1
  O  764  1  0.73160900  0.28095800  0.44721400  1
  O  779  1  0.26501600  0.20967400  0.60946800  1
  O  780  1  0.23165400  0.23013900  0.59200900  1
  O  795  1  0.01641900  0.84712800  0.06622500  1
  O  796  1  0.98420100  0.82863400  0.04611400  1
  O  811  1  0.51634500  0.66406700  0.97302100  1
  O  812  1  0.48406500  0.68250300  0.99315700  1
  O  827  1  0.24551700  0.70906500  0.61057700  1
  O  828  1  0.27754700  0.72942200  0.59225200  1
  O  843  1  0.74547900  0.80206600  0.42859700  1
  O  844  1  0.77748500  0.78172000  0.44694900  1
  O  859  1  0.99526400  0.16354500  0.97250900  1
  O  860  1  0.02634200  0.18253200  0.99270700  1
  O  875  1  0.49533100  0.34750200  0.06667300  1
  O  876  1  0.52646400  0.32856800  0.04645200  1
  O  891  1  0.26587300  0.80195600  0.92921500  1
  O  892  1  0.23297100  0.78177900  0.94726400  1
  O  907  1  0.76587300  0.70915600  0.11000400  1
  O  908  1  0.73297200  0.72933400  0.09195500  1
  O  923  1  0.51573900  0.34500200  0.56544300  1
  O  924  1  0.48188800  0.32758900  0.54518200  1
  O  939  1  0.01578400  0.16607500  0.47375000  1
  O  940  1  0.98196000  0.18351900  0.49399700  1
  O  955  1  0.74461000  0.20850000  0.11129200  1
  O  956  1  0.77611000  0.22851100  0.09231800  1
  O  971  1  0.24461400  0.30262100  0.92791500  1
  O  972  1  0.27610900  0.28261000  0.94688900  1
  O  987  1  0.49614800  0.66576100  0.47332400  1
  O  988  1  0.52886900  0.68362500  0.49375400  1
  O  1003  1  0.99611000  0.84539400  0.56590600  1
  O  1004  1  0.02881000  0.82750500  0.54548800  1
  O  1019  1  0.89142200  0.15992700  0.24016700  1
  O  1020  1  0.84175800  0.17701500  0.24447000  1
  O  1035  1  0.39140800  0.35119500  0.79905200  1
  O  1036  1  0.34174100  0.33410900  0.79475000  1
  O  1051  1  0.14154600  0.03413900  0.92369300  1
  O  1052  1  0.09194600  0.03018400  0.94092000  1
  O  1067  1  0.64152200  0.47698300  0.11551100  1
  O  1068  1  0.59191300  0.48093500  0.09829000  1
  O  1083  1  0.62134500  0.35084100  0.24035400  1
  O  1084  1  0.67182600  0.33449700  0.24463500  1
  O  1099  1  0.12133400  0.16028100  0.79886200  1
  O  1100  1  0.17181900  0.17662200  0.79457800  1
  O  1115  1  0.37113300  0.47715500  0.92406000  1
  O  1116  1  0.42154800  0.48105700  0.94056300  1
  O  1131  1  0.87109500  0.03395900  0.11517000  1
  O  1132  1  0.92149300  0.03006000  0.09865300  1
  O  1147  1  0.11996000  0.85083600  0.79783900  1
  O  1148  1  0.17036600  0.83430600  0.79401600  1
  O  1163  1  0.61997600  0.66027700  0.24136800  1
  O  1164  1  0.67038500  0.67680400  0.24519100  1
  O  1179  1  0.38950500  0.66083700  0.79761800  1
  O  1180  1  0.33816600  0.67649200  0.79390400  1
  O  1195  1  0.88951600  0.85027500  0.24159300  1
  O  1196  1  0.83817400  0.83462500  0.24531100  1
  O  1211  1  0.64081400  0.53419400  0.42500000  1
  O  1212  1  0.59009300  0.53002600  0.44115100  1
  O  1227  1  0.14080600  0.97692100  0.61420900  1
  O  1228  1  0.09008300  0.98109000  0.59806100  1
  O  1243  1  0.87211200  0.97714800  0.42550800  1
  O  1244  1  0.92378000  0.98121800  0.44074000  1
  O  1259  1  0.37210600  0.53397400  0.61371400  1
  O  1260  1  0.42377100  0.52990300  0.59848000  1
  O  2027  1  0.11151800  0.30143300  0.42977400  1
  O  2028  1  0.07814340  0.28095800  0.44721400  1
  O  2043  1  0.61155000  0.20967400  0.60946800  1
  O  2044  1  0.57818800  0.23013900  0.59200900  1
  O  2059  1  0.36295300  0.84712800  0.06622500  1
  O  2060  1  0.33073500  0.82863400  0.04611400  1
  O  2075  1  0.86287900  0.66406700  0.97302100  1
  O  2076  1  0.83059900  0.68250300  0.99315700  1
  O  2091  1  0.59205100  0.70906500  0.61057700  1
  O  2092  1  0.62408100  0.72942200  0.59225200  1
  O  2107  1  0.09201340  0.80206600  0.42859700  1
  O  2108  1  0.12401900  0.78172000  0.44694900  1
  O  2123  1  0.34179800  0.16354500  0.97250900  1
  O  2124  1  0.37287600  0.18253200  0.99270700  1
  O  2139  1  0.84186500  0.34750200  0.06667300  1
  O  2140  1  0.87299800  0.32856800  0.04645200  1
  O  2155  1  0.61240700  0.80195600  0.92921500  1
  O  2156  1  0.57950500  0.78177900  0.94726400  1
  O  2171  1  0.11240700  0.70915600  0.11000400  1
  O  2172  1  0.07950640  0.72933400  0.09195500  1
  O  2187  1  0.86227300  0.34500200  0.56544300  1
  O  2188  1  0.82842200  0.32758900  0.54518200  1
  O  2203  1  0.36231800  0.16607500  0.47375000  1
  O  2204  1  0.32849400  0.18351900  0.49399700  1
  O  2219  1  0.09114440  0.20850000  0.11129200  1
  O  2220  1  0.12264400  0.22851100  0.09231800  1
  O  2235  1  0.59114800  0.30262100  0.92791500  1
  O  2236  1  0.62264300  0.28261000  0.94688900  1
  O  2251  1  0.84268200  0.66576100  0.47332400  1
  O  2252  1  0.87540300  0.68362500  0.49375400  1
  O  2267  1  0.34264400  0.84539400  0.56590600  1
  O  2268  1  0.37534400  0.82750500  0.54548800  1
  O  2283  1  0.23795600  0.15992700  0.24016700  1
  O  2284  1  0.18829200  0.17701500  0.24447000  1
  O  2299  1  0.73794200  0.35119500  0.79905200  1
  O  2300  1  0.68827500  0.33410900  0.79475000  1
  O  2315  1  0.48808000  0.03413900  0.92369300  1
  O  2316  1  0.43848000  0.03018400  0.94092000  1
  O  2331  1  0.98805600  0.47698300  0.11551100  1
  O  2332  1  0.93844700  0.48093500  0.09829000  1
  O  2347  1  0.96787900  0.35084100  0.24035400  1
  O  2348  1  0.01836040  0.33449700  0.24463500  1
  O  2363  1  0.46786800  0.16028100  0.79886200  1
  O  2364  1  0.51835300  0.17662200  0.79457800  1
  O  2379  1  0.71766700  0.47715500  0.92406000  1
  O  2380  1  0.76808200  0.48105700  0.94056300  1
  O  2395  1  0.21762900  0.03395900  0.11517000  1
  O  2396  1  0.26802700  0.03006000  0.09865300  1
  O  2411  1  0.46649400  0.85083600  0.79783900  1
  O  2412  1  0.51690000  0.83430600  0.79401600  1
  O  2427  1  0.96651000  0.66027700  0.24136800  1
  O  2428  1  0.01691940  0.67680400  0.24519100  1
  O  2443  1  0.73603900  0.66083700  0.79761800  1
  O  2444  1  0.68470000  0.67649200  0.79390400  1
  O  2459  1  0.23605000  0.85027500  0.24159300  1
  O  2460  1  0.18470800  0.83462500  0.24531100  1
  O  2475  1  0.98734800  0.53419400  0.42500000  1
  O  2476  1  0.93662700  0.53002600  0.44115100  1
  O  2491  1  0.48734000  0.97692100  0.61420900  1
  O  2492  1  0.43661700  0.98109000  0.59806100  1
  O  2507  1  0.21864600  0.97714800  0.42550800  1
  O  2508  1  0.27031400  0.98121800  0.44074000  1
  O  2523  1  0.71864000  0.53397400  0.61371400  1
  O  2524  1  0.77030500  0.52990300  0.59848000  1
