# generated using pymatgen
data_H9C8N7
_symmetry_space_group_name_H-M   'P 1'
_cell_length_a   10.01833333
_cell_length_b   61.70650000
_cell_length_c   78.55860000
_cell_angle_alpha   89.94860000
_cell_angle_beta   90.00000000
_cell_angle_gamma   90.00000000
_symmetry_Int_Tables_number   1
_chemical_formula_structural   H9C8N7
_chemical_formula_sum   'H324 C288 N252'
_cell_volume   48564.61519817
_cell_formula_units_Z   36
loop_
 _symmetry_equiv_pos_site_id
 _symmetry_equiv_pos_as_xyz
  1  'x, y, z'
loop_
 _atom_site_type_symbol
 _atom_site_label
 _atom_site_symmetry_multiplicity
 _atom_site_fract_x
 _atom_site_fract_y
 _atom_site_fract_z
 _atom_site_occupancy
  C  1  1  0.01348100  0.54363400  0.04297700  1
  C  3  1  0.94209000  0.57603000  0.05588900  1
  C  5  1  0.95526500  0.54386100  0.07204700  1
  C  13  1  0.91363100  0.44140700  0.95415500  1
  C  15  1  0.90843000  0.42370600  0.92750600  1
  C  17  1  0.91745500  0.46191800  0.92869600  1
  C  25  1  0.99167900  0.95751000  0.54363000  1
  C  27  1  0.06299900  0.92508700  0.55654600  1
  C  29  1  0.04946500  0.95720800  0.57271600  1
  C  37  1  0.09276500  0.05962400  0.45427400  1
  C  39  1  0.09867100  0.07789700  0.42785200  1
  C  41  1  0.08929800  0.03967500  0.42858000  1
  C  49  1  0.08483000  0.57626600  0.47434400  1
  C  51  1  0.05987600  0.60463300  0.45435800  1
  C  53  1  0.01475500  0.61081800  0.48343600  1
  C  61  1  0.96790300  0.42857800  0.52423200  1
  C  63  1  0.02620300  0.39964000  0.54227900  1
  C  65  1  0.95961300  0.39270400  0.51397500  1
  C  73  1  0.92353900  0.92496600  0.97376200  1
  C  75  1  0.94771400  0.89667700  0.95372300  1
  C  77  1  0.99307600  0.89033100  0.98279100  1
  C  85  1  0.03716900  0.07251600  0.02394900  1
  C  87  1  0.97876300  0.10135200  0.04205400  1
  C  89  1  0.04513400  0.10844800  0.01375200  1
  C  97  1  0.02718700  0.73572200  0.07377900  1
  C  99  1  0.95440800  0.77186900  0.07090500  1
  C  101  1  0.99968600  0.75746000  0.09822600  1
  C  109  1  0.03145300  0.26828400  0.92615000  1
  C  111  1  0.95710400  0.23258800  0.93074800  1
  C  113  1  0.00357900  0.24466000  0.90279100  1
  C  121  1  0.97765900  0.76537700  0.57411700  1
  C  123  1  0.05097100  0.72925800  0.57133800  1
  C  125  1  0.00503600  0.74367700  0.59861600  1
  C  133  1  0.97271400  0.23337400  0.42629400  1
  C  135  1  0.04771300  0.26904900  0.43075700  1
  C  137  1  0.00128000  0.25687600  0.40284500  1
  C  145  1  0.90762500  0.63504300  0.33374500  1
  C  147  1  0.88277000  0.64109100  0.30425200  1
  C  149  1  0.89134200  0.60535100  0.31488000  1
  C  157  1  0.91446500  0.37070200  0.66506300  1
  C  159  1  0.90008600  0.36125400  0.69408500  1
  C  161  1  0.92650800  0.39787600  0.68620200  1
  C  169  1  0.09412300  0.86560400  0.83360800  1
  C  171  1  0.11891800  0.86076900  0.80397000  1
  C  173  1  0.11193700  0.89607600  0.81547400  1
  C  181  1  0.09076900  0.13043400  0.16482100  1
  C  183  1  0.10553300  0.13995400  0.19381200  1
  C  185  1  0.07894000  0.10331500  0.18604100  1
  C  193  1  0.02910300  0.81863800  0.24305100  1
  C  195  1  0.10508300  0.79582800  0.22091200  1
  C  197  1  0.07750300  0.78199700  0.24871300  1
  C  205  1  0.02951200  0.18401200  0.75762500  1
  C  207  1  0.10300700  0.20636900  0.78019200  1
  C  209  1  0.08118800  0.22066200  0.75244400  1
  C  217  1  0.97847400  0.68287500  0.74362600  1
  C  219  1  0.90252700  0.70560900  0.72140100  1
  C  221  1  0.93060100  0.71956500  0.74914000  1
  C  229  1  0.97673500  0.31695800  0.25756000  1
  C  231  1  0.90273100  0.29460200  0.28012700  1
  C  233  1  0.92500100  0.28032100  0.25240500  1
  C  241  1  0.93004100  0.00844100  0.28326300  1
  C  243  1  0.94089100  0.99457200  0.31124200  1
  C  245  1  0.99464300  0.97210500  0.28796400  1
  C  253  1  0.92903800  0.99183000  0.72178200  1
  C  255  1  0.92775100  0.00600800  0.69387200  1
  C  257  1  0.99003300  0.02832400  0.71692300  1
  C  265  1  0.07439500  0.49265800  0.78334100  1
  C  267  1  0.06340500  0.50641900  0.81133500  1
  C  269  1  0.00982900  0.52898300  0.78806900  1
  C  277  1  0.07952100  0.50861400  0.22134600  1
  C  279  1  0.07759300  0.49508900  0.19326100  1
  C  281  1  0.01678000  0.47232300  0.21610800  1
  C  289  1  0.97576300  0.50930400  0.00468500  1
  C  291  1  0.11814800  0.47897200  0.99883900  1
  C  292  1  0.02140600  0.47008800  0.98788000  1
  C  294  1  0.88047400  0.50105600  0.99296300  1
  C  299  1  0.03861400  0.44823700  0.98046000  1
  C  302  1  0.95054900  0.52857200  0.01550400  1
  C  305  1  0.02973200  0.99165400  0.50517600  1
  C  307  1  0.88709100  0.02187800  0.49906000  1
  C  308  1  0.98393300  0.03067800  0.48806200  1
  C  310  1  0.12510600  0.99980400  0.49341300  1
  C  315  1  0.96653600  0.05242000  0.48042800  1
  C  318  1  0.05496500  0.97249900  0.51614000  1
  C  321  1  0.01561800  0.63505300  0.06119300  1
  C  323  1  0.88123000  0.66507000  0.05213300  1
  C  324  1  0.97484100  0.67976200  0.05886700  1
  C  326  1  0.11175700  0.64973600  0.06779400  1
  C  331  1  0.95021400  0.70340200  0.05887100  1
  C  334  1  0.02983100  0.61120800  0.06273100  1
  C  337  1  0.02016000  0.36906100  0.92398900  1
  C  339  1  0.87243800  0.34157300  0.93455700  1
  C  340  1  0.97494000  0.32601900  0.93354900  1
  C  342  1  0.12572700  0.35369900  0.92358400  1
  C  347  1  0.94902800  0.30281700  0.93700500  1
  C  350  1  0.03696700  0.39195500  0.91863400  1
  C  353  1  0.98902900  0.86604000  0.56160200  1
  C  355  1  0.12377400  0.83608100  0.55254900  1
  C  356  1  0.02990100  0.82134800  0.55918800  1
  C  358  1  0.89256100  0.85131400  0.56808600  1
  C  363  1  0.05461700  0.79771200  0.55917700  1
  C  366  1  0.97481100  0.88987300  0.56321100  1
  C  369  1  0.98605900  0.13264600  0.42439300  1
  C  371  1  0.13286200  0.16024200  0.43495500  1
  C  372  1  0.02998100  0.17572300  0.43387700  1
  C  374  1  0.88011400  0.14793600  0.42391100  1
  C  379  1  0.05527500  0.19893400  0.43731600  1
  C  382  1  0.96991000  0.10970900  0.41916400  1
  C  385  1  0.99260200  0.50504800  0.14749300  1
  C  387  1  0.14504100  0.51581700  0.12551600  1
  C  388  1  0.03840500  0.51909900  0.11412400  1
  C  390  1  0.88454600  0.50771200  0.13596000  1
  C  395  1  0.06127500  0.52719700  0.09660000  1
  C  398  1  0.97391100  0.49840000  0.16550800  1
  C  401  1  0.97635700  0.49912700  0.85749700  1
  C  403  1  0.13072800  0.49221700  0.88019300  1
  C  404  1  0.02501500  0.49040000  0.89192600  1
  C  406  1  0.86894200  0.49761000  0.86926400  1
  C  411  1  0.05075400  0.48544300  0.91007900  1
  C  414  1  0.95725300  0.50368600  0.83907300  1
  C  417  1  0.01208900  0.99629600  0.64806200  1
  C  419  1  0.85969200  0.98540300  0.62613100  1
  C  420  1  0.96633100  0.98206900  0.61474900  1
  C  422  1  0.12013600  0.99357900  0.63653700  1
  C  427  1  0.94348800  0.97389300  0.59725400  1
  C  430  1  0.03084800  0.00298600  0.66606000  1
  C  433  1  0.02875500  0.00185100  0.35734800  1
  C  435  1  0.87498200  0.00919900  0.38001200  1
  C  436  1  0.98094800  0.01105300  0.39170000  1
  C  438  1  0.13640200  0.00337300  0.36907600  1
  C  443  1  0.95578300  0.01651100  0.40976700  1
  C  446  1  0.04745800  0.99716100  0.33894700  1
  C  449  1  0.00456700  0.52112300  0.49011200  1
  C  451  1  0.15285700  0.49868200  0.50635100  1
  C  452  1  0.04892700  0.48388700  0.50957800  1
  C  454  1  0.89886400  0.50632700  0.49331800  1
  C  459  1  0.07187400  0.46371800  0.51934900  1
  C  462  1  0.98555000  0.54151700  0.48043300  1
  C  465  1  0.00297100  0.98000000  0.98981500  1
  C  467  1  0.85368200  0.00240000  0.00591100  1
  C  468  1  0.95738200  0.01719400  0.00923900  1
  C  470  1  0.10847700  0.99478400  0.99313900  1
  C  475  1  0.93383600  0.03734700  0.01898000  1
  C  478  1  0.02260400  0.95964000  0.98013700  1
  C  481  1  0.04136500  0.62848000  0.37584700  1
  C  483  1  0.89141800  0.61867800  0.39836800  1
  C  484  1  0.99857100  0.61045200  0.40798900  1
  C  486  1  0.15029000  0.62044900  0.38557500  1
  C  491  1  0.98213700  0.60117900  0.42521400  1
  C  494  1  0.05662300  0.63744900  0.35844100  1
  C  497  1  0.02914300  0.37014600  0.62008500  1
  C  499  1  0.88021300  0.36827400  0.59626600  1
  C  500  1  0.98165600  0.37573900  0.58534200  1
  C  502  1  0.13399200  0.37668300  0.60903500  1
  C  507  1  0.95391300  0.38013200  0.56718700  1
  C  510  1  0.04376600  0.36905300  0.63884700  1
  C  513  1  0.96121400  0.87222200  0.87538900  1
  C  515  1  0.11262500  0.88258800  0.89758400  1
  C  516  1  0.00595700  0.89085400  0.90726200  1
  C  518  1  0.85285200  0.88036800  0.88515200  1
  C  523  1  0.02319300  0.90022400  0.92443800  1
  C  526  1  0.94454600  0.86256800  0.85823900  1
  C  529  1  0.97592200  0.13084000  0.11984800  1
  C  531  1  0.12482200  0.13267200  0.09602200  1
  C  532  1  0.02340500  0.12517200  0.08512000  1
  C  534  1  0.87110500  0.12425800  0.10881900  1
  C  539  1  0.05115100  0.12076500  0.06697400  1
  C  542  1  0.96131400  0.13198800  0.13860700  1
  C  545  1  0.99252700  0.68364900  0.54097600  1
  C  547  1  0.15609100  0.65959500  0.52924100  1
  C  548  1  0.05750200  0.64940700  0.51930200  1
  C  550  1  0.89178600  0.67320200  0.53125400  1
  C  555  1  0.09147900  0.63161600  0.50748200  1
  C  558  1  0.96424800  0.70211800  0.55248100  1
  C  561  1  0.97702000  0.31589400  0.45937300  1
  C  563  1  0.13470900  0.33689800  0.47527800  1
  C  564  1  0.03056000  0.34932500  0.48229300  1
  C  566  1  0.87115500  0.32838600  0.46633500  1
  C  571  1  0.05781200  0.36689700  0.49459200  1
  C  574  1  0.95457600  0.29807200  0.44706700  1
  C  577  1  0.01375500  0.81744600  0.04046100  1
  C  579  1  0.85062600  0.84151600  0.02861200  1
  C  580  1  0.94948600  0.85167300  0.01868100  1
  C  582  1  0.11477100  0.82786600  0.03075000  1
  C  587  1  0.91588800  0.86947000  0.00681800  1
  C  590  1  0.04167100  0.79898500  0.05201800  1
  C  593  1  0.02772100  0.18559500  0.95930900  1
  C  595  1  0.87010200  0.16457700  0.97524400  1
  C  596  1  0.97421200  0.15206300  0.98219100  1
  C  598  1  0.13355100  0.17301800  0.96620300  1
  C  603  1  0.94695100  0.13442700  0.99446100  1
  C  606  1  0.05012500  0.20345000  0.94700100  1
  C  609  1  0.03072900  0.79010200  0.17437200  1
  C  611  1  0.18307100  0.78048000  0.15209200  1
  C  612  1  0.07947200  0.78174300  0.14003100  1
  C  614  1  0.92560000  0.79140200  0.16226500  1
  C  619  1  0.09837000  0.77733500  0.12172300  1
  C  622  1  0.00999800  0.79400900  0.19281400  1
  C  625  1  0.02665800  0.21116000  0.82678500  1
  C  627  1  0.17966800  0.21960500  0.84929000  1
  C  628  1  0.07542800  0.21859800  0.86127900  1
  C  630  1  0.92091800  0.21005900  0.83881900  1
  C  635  1  0.09415400  0.22298800  0.87961300  1
  C  638  1  0.00609400  0.20781200  0.80826100  1
  C  641  1  0.97529900  0.71102600  0.67478100  1
  C  643  1  0.82244800  0.72070400  0.65255800  1
  C  644  1  0.92562100  0.71936300  0.64044600  1
  C  646  1  0.07997100  0.70962700  0.66261900  1
  C  651  1  0.90631600  0.72380200  0.62214300  1
  C  654  1  0.99660400  0.70717400  0.69322700  1
  C  657  1  0.97870400  0.29003400  0.32674100  1
  C  659  1  0.82551400  0.28167900  0.34925600  1
  C  660  1  0.92961100  0.28278800  0.36125600  1
  C  662  1  0.08429200  0.29124500  0.33878800  1
  C  667  1  0.91077800  0.27846300  0.37960100  1
  C  670  1  0.99944400  0.29328000  0.30820700  1
  C  673  1  0.96137500  0.73211000  0.27052200  1
  C  675  1  0.10005200  0.70084100  0.27456500  1
  C  676  1  0.98931400  0.68868500  0.28008700  1
  C  678  1  0.84892900  0.71999000  0.27608100  1
  C  683  1  0.00485600  0.66606800  0.28600500  1
  C  686  1  0.95267000  0.75498300  0.26476800  1
  C  689  1  0.97034700  0.27036700  0.72973900  1
  C  691  1  0.10989400  0.30139000  0.72501700  1
  C  692  1  0.99998200  0.31328900  0.71892300  1
  C  694  1  0.85861400  0.28225100  0.72366300  1
  C  699  1  0.01555600  0.33569200  0.71249400  1
  C  702  1  0.96042700  0.24776100  0.73607400  1
  C  705  1  0.04477400  0.76980100  0.77058900  1
  C  707  1  0.90447300  0.80093400  0.77432000  1
  C  708  1  0.01448900  0.81331900  0.77974900  1
  C  710  1  0.15651400  0.78215300  0.77605300  1
  C  715  1  0.99751800  0.83600700  0.78541600  1
  C  718  1  0.05462700  0.74686300  0.76503600  1
  C  721  1  0.03583000  0.23069300  0.22966300  1
  C  723  1  0.89607500  0.19973900  0.22480600  1
  C  724  1  0.00601700  0.18786400  0.21869900  1
  C  726  1  0.14756500  0.21882600  0.22358500  1
  C  731  1  0.99033000  0.16550700  0.21220600  1
  C  734  1  0.04581300  0.25325200  0.23606200  1
  C  737  1  0.98100700  0.54671400  0.25571900  1
  C  739  1  0.12005700  0.55582200  0.27949700  1
  C  740  1  0.01086700  0.56537800  0.28791900  1
  C  742  1  0.87061600  0.55664000  0.26398200  1
  C  747  1  0.02459600  0.57447700  0.30524500  1
  C  750  1  0.96906900  0.53516200  0.23922800  1
  C  753  1  0.99297100  0.45522400  0.74779000  1
  C  755  1  0.14628400  0.44498500  0.72578400  1
  C  756  1  0.04130100  0.43610200  0.71613100  1
  C  758  1  0.88659100  0.44598000  0.73828400  1
  C  763  1  0.06539200  0.42612900  0.69929500  1
  C  766  1  0.97193400  0.46683000  0.76410000  1
  C  769  1  0.02619900  0.95370500  0.75622300  1
  C  771  1  0.88653200  0.94531700  0.78012000  1
  C  772  1  0.99506700  0.93575000  0.78868800  1
  C  774  1  0.13587700  0.94374100  0.76463000  1
  C  779  1  0.98107800  0.92742600  0.80626600  1
  C  782  1  0.03900000  0.96502400  0.73962200  1
  C  785  1  0.01203400  0.04589100  0.24770300  1
  C  787  1  0.85883200  0.05622900  0.22569900  1
  C  788  1  0.96394500  0.06507100  0.21603500  1
  C  790  1  0.11856800  0.05508400  0.23818000  1
  C  795  1  0.93995400  0.07510700  0.19920700  1
  C  798  1  0.03291100  0.03426700  0.26402400  1
  C  801  1  0.96291700  0.91737400  0.26770600  1
  C  803  1  0.14044900  0.89235800  0.26198700  1
  C  804  1  0.04822800  0.87669800  0.25637600  1
  C  806  1  0.86920400  0.90189900  0.26165300  1
  C  811  1  0.09299700  0.85532000  0.24998900  1
  C  814  1  0.92410200  0.93922700  0.27387900  1
  C  817  1  0.95843000  0.08540200  0.73268200  1
  C  819  1  0.13666700  0.10900100  0.74111600  1
  C  820  1  0.04532500  0.12585000  0.74433300  1
  C  822  1  0.86520000  0.10222300  0.73605100  1
  C  827  1  0.09085500  0.14711400  0.75087100  1
  C  830  1  0.91840200  0.06354900  0.72661500  1
  C  833  1  0.04264900  0.58387300  0.76800200  1
  C  835  1  0.86572000  0.60906200  0.76241000  1
  C  836  1  0.95831000  0.62473600  0.75689400  1
  C  838  1  0.13672000  0.59936300  0.76204000  1
  C  843  1  0.91398100  0.64620300  0.75060300  1
  C  846  1  0.08097800  0.56193400  0.77407300  1
  C  849  1  0.04808900  0.41574900  0.23299100  1
  C  851  1  0.86919400  0.39173300  0.24044600  1
  C  852  1  0.96083400  0.37510800  0.24421500  1
  C  854  1  0.14158600  0.39918300  0.23698900  1
  C  859  1  0.91507000  0.35376100  0.25057900  1
  C  862  1  0.08814500  0.43770300  0.22713800  1
  H  8  1  0.83078300  0.60201900  0.06019700  1
  H  10  1  0.87762300  0.51988500  0.08566500  1
  H  12  1  0.13826200  0.53875300  0.02359000  1
  H  20  1  0.87581600  0.40642600  0.90618700  1
  H  22  1  0.90857100  0.49454000  0.92801800  1
  H  24  1  0.89600400  0.42462200  0.97592800  1
  H  32  1  0.17404600  0.89906900  0.56091600  1
  H  34  1  0.12730100  0.98114100  0.58632700  1
  H  36  1  0.86706600  0.96243100  0.52423600  1
  H  44  1  0.13306300  0.09571000  0.40681900  1
  H  46  1  0.09945500  0.00707500  0.42741300  1
  H  48  1  0.11107800  0.07587800  0.47627300  1
  H  56  1  0.05017500  0.62871300  0.43728200  1
  H  58  1  0.90284300  0.61852000  0.50333800  1
  H  60  1  0.17044800  0.54750800  0.46962200  1
  H  68  1  0.14583400  0.38266800  0.55735800  1
  H  70  1  0.88889200  0.38535000  0.49087000  1
  H  72  1  0.88528900  0.45707100  0.52980500  1
  H  80  1  0.95669200  0.87264700  0.93663200  1
  H  82  1  0.10481400  0.88247000  0.00268300  1
  H  84  1  0.83873000  0.95380100  0.96902900  1
  H  92  1  0.85915600  0.11823400  0.05717000  1
  H  94  1  0.11552500  0.11593100  0.99064500  1
  H  96  1  0.12012600  0.04402800  0.02950000  1
  H  104  1  0.87681000  0.80138500  0.06762400  1
  H  106  1  0.02684100  0.74599600  0.12190200  1
  H  108  1  0.13911200  0.71737600  0.05858700  1
  H  116  1  0.85956100  0.20555400  0.93666900  1
  H  118  1  0.02846900  0.25463700  0.87867900  1
  H  120  1  0.13411100  0.28823500  0.94136300  1
  H  128  1  0.12883100  0.69975600  0.56814200  1
  H  130  1  0.97760500  0.75515500  0.62226600  1
  H  132  1  0.86588000  0.78367500  0.55884100  1
  H  140  1  0.14439200  0.29621800  0.43651900  1
  H  142  1  0.97645600  0.24681100  0.37877100  1
  H  144  1  0.86996000  0.21348000  0.44156800  1
  H  152  1  0.83007400  0.64942200  0.28039700  1
  H  154  1  0.86771700  0.57458400  0.32268900  1
  H  156  1  0.90716400  0.65899600  0.35123800  1
  H  164  1  0.82804900  0.34969300  0.71610900  1
  H  166  1  0.91910200  0.42977200  0.68069000  1
  H  168  1  0.88865700  0.34911500  0.64619200  1
  H  176  1  0.16928600  0.85348700  0.77981600  1
  H  178  1  0.13302200  0.92637400  0.82430900  1
  H  180  1  0.09113900  0.84084200  0.85040900  1
  H  188  1  0.17801500  0.15155500  0.21577700  1
  H  190  1  0.08646900  0.07139900  0.18064100  1
  H  192  1  0.11629900  0.15198000  0.14588400  1
  H  200  1  0.17444600  0.77755500  0.20189900  1
  H  202  1  0.14116800  0.76760800  0.26992200  1
  H  204  1  0.91075600  0.84412300  0.24074800  1
  H  212  1  0.17208000  0.22414400  0.79951700  1
  H  214  1  0.14988300  0.23518800  0.73158100  1
  H  216  1  0.90753300  0.15889600  0.75919800  1
  H  224  1  0.83301400  0.72381500  0.70233200  1
  H  226  1  0.86679900  0.73402000  0.77030700  1
  H  228  1  0.09655900  0.65735300  0.74141900  1
  H  236  1  0.83393700  0.27681500  0.29948800  1
  H  238  1  0.85643600  0.26584100  0.23154200  1
  H  240  1  0.09794700  0.34214300  0.25925900  1
  H  248  1  0.85720000  0.98608400  0.33304000  1
  H  250  1  0.11055200  0.95417600  0.27320800  1
  H  252  1  0.85508500  0.03764100  0.27710600  1
  H  260  1  0.84112400  0.01423300  0.67209500  1
  H  262  1  0.08709600  0.04641300  0.73387300  1
  H  264  1  0.85233300  0.96292800  0.72845300  1
  H  272  1  0.14721600  0.51487600  0.83311600  1
  H  274  1  0.89441800  0.54703200  0.77330000  1
  H  276  1  0.14992200  0.46352100  0.77715800  1
  H  284  1  0.16396600  0.48723100  0.17142600  1
  H  286  1  0.91028800  0.45404700  0.23191100  1
  H  288  1  0.15649400  0.53735700  0.22828600  1
  H  295  1  0.20495500  0.47096300  0.00150500  1
  H  297  1  0.73778500  0.52463000  0.99394600  1
  H  298  1  0.70177000  0.50411500  0.98103200  1
  H  300  1  0.12394100  0.44839200  0.97174800  1
  H  301  1  0.06400400  0.43723100  0.99092000  1
  H  303  1  0.85387100  0.52604300  0.02170700  1
  H  304  1  0.94343200  0.54302200  0.00747500  1
  H  311  1  0.80012500  0.02988400  0.50163500  1
  H  313  1  0.26802000  0.97628000  0.49460600  1
  H  314  1  0.30398900  0.99667000  0.48154000  1
  H  316  1  0.88214500  0.05203000  0.47157500  1
  H  317  1  0.93950900  0.06354200  0.49072800  1
  H  319  1  0.15152000  0.97510900  0.52234800  1
  H  320  1  0.06233200  0.95797800  0.50821200  1
  H  327  1  0.79493900  0.67029800  0.04654100  1
  H  329  1  0.25196400  0.62883900  0.07712400  1
  H  330  1  0.28813800  0.65489000  0.07985300  1
  H  332  1  0.93611100  0.70906100  0.04578800  1
  H  333  1  0.85715400  0.70612000  0.06586600  1
  H  335  1  0.03581900  0.60718900  0.07629100  1
  H  336  1  0.12422800  0.60670600  0.05667600  1
  H  343  1  0.77806100  0.33747100  0.93829700  1
  H  345  1  0.28069600  0.37255500  0.91547700  1
  H  346  1  0.32016100  0.34673400  0.91880800  1
  H  348  1  0.92699800  0.30054900  0.95052800  1
  H  349  1  0.85995900  0.29828400  0.92973700  1
  H  351  1  0.07977500  0.39226300  0.90581600  1
  H  352  1  0.11007600  0.39933500  0.92722300  1
  H  359  1  0.21032000  0.83088900  0.54700900  1
  H  361  1  0.75187900  0.87215100  0.57735300  1
  H  362  1  0.71559000  0.84608300  0.57998800  1
  H  364  1  0.06889900  0.79209800  0.54609200  1
  H  365  1  0.14761500  0.79497800  0.56618600  1
  H  367  1  0.96805300  0.89378900  0.57677800  1
  H  368  1  0.88079100  0.89443000  0.55708100  1
  H  375  1  0.22703100  0.16440400  0.43873000  1
  H  377  1  0.72582500  0.12895600  0.41579800  1
  H  378  1  0.68559000  0.15475500  0.41905400  1
  H  380  1  0.07675500  0.20121300  0.45084900  1
  H  381  1  0.14455000  0.20351000  0.43009800  1
  H  383  1  0.92700800  0.10924300  0.40635600  1
  H  384  1  0.89720700  0.10234000  0.42782600  1
  H  391  1  0.24157900  0.51880100  0.12203100  1
  H  393  1  0.72713800  0.49864200  0.15086300  1
  H  394  1  0.68565000  0.50603000  0.13121000  1
  H  396  1  0.12508800  0.54155500  0.09748900  1
  H  397  1  0.11476400  0.51477400  0.08937800  1
  H  399  1  0.93034200  0.48213400  0.16572000  1
  H  400  1  0.90270700  0.50968900  0.17124700  1
  H  407  1  0.22785000  0.49024800  0.88385700  1
  H  409  1  0.70998500  0.50346600  0.85365500  1
  H  410  1  0.66975800  0.49896600  0.87388100  1
  H  412  1  0.11628300  0.47123800  0.91056700  1
  H  413  1  0.10656000  0.49896800  0.91560100  1
  H  415  1  0.90962900  0.51957200  0.83781500  1
  H  416  1  0.88948600  0.49138500  0.83399200  1
  H  423  1  0.76316800  0.98239500  0.62265800  1
  H  425  1  0.27755800  0.00273200  0.65139300  1
  H  426  1  0.31903100  0.99524100  0.63177500  1
  H  428  1  0.87967300  0.95954000  0.59819700  1
  H  429  1  0.89000600  0.98628900  0.58998600  1
  H  431  1  0.07428000  0.01926200  0.66623700  1
  H  432  1  0.10224900  0.99172000  0.67180500  1
  H  439  1  0.77802100  0.01137100  0.38367200  1
  H  441  1  0.29489100  0.99715500  0.35348600  1
  H  442  1  0.33559300  0.00186700  0.37366000  1
  H  444  1  0.89209600  0.03094500  0.40998200  1
  H  445  1  0.89835100  0.00332600  0.41553900  1
  H  447  1  0.09435400  0.98121200  0.33775500  1
  H  448  1  0.11571300  0.00935500  0.33379700  1
  H  455  1  0.24705400  0.49619200  0.51094000  1
  H  457  1  0.74465300  0.52100200  0.48080800  1
  H  458  1  0.70441700  0.49786400  0.49036400  1
  H  460  1  0.14904200  0.45451400  0.51263400  1
  H  461  1  0.10940600  0.46773400  0.53204300  1
  H  463  1  0.90963400  0.55084700  0.48727500  1
  H  464  1  0.94664200  0.53769600  0.46776200  1
  H  471  1  0.75919600  0.00487900  0.01040300  1
  H  473  1  0.26352400  0.98012900  0.98080600  1
  H  474  1  0.30312600  0.00324800  0.99039900  1
  H  476  1  0.85680500  0.04653600  0.01221400  1
  H  477  1  0.89590500  0.03330600  0.03165400  1
  H  479  1  0.09773700  0.95025300  0.98708300  1
  H  480  1  0.06278600  0.96350700  0.96753500  1
  H  487  1  0.79552900  0.61826700  0.40277900  1
  H  489  1  0.30656600  0.62704700  0.36971000  1
  H  490  1  0.34938600  0.61510200  0.38787900  1
  H  492  1  0.87805800  0.60229900  0.42940000  1
  H  493  1  0.00888500  0.58402600  0.42451500  1
  H  495  1  0.11143300  0.62544100  0.35093500  1
  H  496  1  0.11829900  0.65206600  0.35905200  1
  H  503  1  0.78567600  0.36537000  0.59194800  1
  H  505  1  0.28933600  0.37891200  0.62575300  1
  H  506  1  0.32791700  0.38524300  0.60577500  1
  H  508  1  0.93545200  0.36469200  0.56075400  1
  H  509  1  0.86232800  0.38980800  0.56658700  1
  H  511  1  0.08512600  0.38462700  0.64291400  1
  H  512  1  0.11530400  0.35632500  0.64215200  1
  H  519  1  0.20879800  0.88310400  0.90188400  1
  H  521  1  0.69543200  0.87335300  0.86959100  1
  H  522  1  0.65377800  0.88558300  0.88766700  1
  H  524  1  0.12759200  0.89923300  0.92850900  1
  H  525  1  0.99565600  0.91734300  0.92371300  1
  H  527  1  0.88760500  0.87410200  0.85051700  1
  H  528  1  0.88413100  0.84786500  0.85940500  1
  H  535  1  0.21933500  0.13558500  0.09169400  1
  H  537  1  0.71580400  0.12204300  0.12554800  1
  H  538  1  0.67722600  0.11565800  0.10559000  1
  H  540  1  0.06972000  0.13620200  0.06051900  1
  H  541  1  0.14267500  0.11107500  0.06639100  1
  H  543  1  0.92006500  0.11642100  0.14272700  1
  H  544  1  0.88970500  0.14471600  0.14187300  1
  H  551  1  0.25391200  0.65496300  0.52866400  1
  H  553  1  0.72604000  0.68995200  0.53871600  1
  H  554  1  0.69681900  0.67055700  0.52452900  1
  H  556  1  0.17442700  0.63718300  0.49951900  1
  H  557  1  0.12546600  0.61766100  0.51492300  1
  H  559  1  0.89349400  0.69661400  0.56220000  1
  H  560  1  0.91617600  0.71472500  0.54483100  1
  H  567  1  0.23224100  0.33969400  0.47838600  1
  H  569  1  0.70950600  0.31450600  0.45485500  1
  H  570  1  0.67274200  0.33472200  0.46800900  1
  H  572  1  0.11195100  0.35967500  0.50528400  1
  H  573  1  0.12285100  0.37889200  0.48851700  1
  H  575  1  0.90747300  0.30498100  0.43570800  1
  H  576  1  0.88466500  0.28668100  0.45295700  1
  H  583  1  0.75284800  0.84616800  0.02799300  1
  H  585  1  0.28024300  0.81110100  0.03831300  1
  H  586  1  0.30990900  0.83047200  0.02409400  1
  H  588  1  0.83297900  0.86392600  0.99884800  1
  H  589  1  0.88195000  0.88343300  0.01423200  1
  H  591  1  0.11226100  0.80449000  0.06174700  1
  H  592  1  0.08983100  0.78635900  0.04441200  1
  H  599  1  0.77260000  0.16180600  0.97838600  1
  H  601  1  0.29513600  0.18687700  0.95467400  1
  H  602  1  0.33189300  0.16657900  0.96778000  1
  H  604  1  0.89315000  0.14160800  0.00518900  1
  H  605  1  0.88159100  0.12249700  0.98838200  1
  H  607  1  0.09641000  0.19653800  0.93559900  1
  H  608  1  0.12071500  0.21476000  0.95284000  1
  H  615  1  0.27831700  0.77648100  0.14867900  1
  H  617  1  0.76810900  0.79939500  0.17752800  1
  H  618  1  0.73001800  0.79687100  0.15703500  1
  H  620  1  0.07994800  0.79256200  0.11498700  1
  H  621  1  0.20096600  0.77228800  0.11899600  1
  H  623  1  0.93636900  0.78223800  0.19738800  1
  H  624  1  0.96789200  0.81028000  0.19413400  1
  H  631  1  0.27533200  0.22319100  0.85279600  1
  H  633  1  0.76292700  0.20301200  0.82335400  1
  H  634  1  0.72427900  0.20533200  0.84384700  1
  H  636  1  0.07070600  0.20802900  0.88645900  1
  H  637  1  0.19786500  0.22729200  0.88243100  1
  H  639  1  0.93391400  0.21990500  0.80383300  1
  H  640  1  0.96235200  0.19170200  0.80664100  1
  H  647  1  0.72720300  0.72477100  0.64918900  1
  H  649  1  0.23774100  0.70153100  0.67781300  1
  H  650  1  0.27522100  0.70400300  0.65729300  1
  H  652  1  0.92458100  0.70858600  0.61540500  1
  H  653  1  0.80367400  0.72885600  0.61944800  1
  H  655  1  0.07082200  0.71889600  0.69770800  1
  H  656  1  0.03818200  0.69087100  0.69458800  1
  H  663  1  0.72985900  0.27807900  0.35276000  1
  H  665  1  0.24238100  0.29825600  0.32331800  1
  H  666  1  0.28080700  0.29607200  0.34383000  1
  H  668  1  0.93417400  0.29344700  0.38639700  1
  H  669  1  0.80705800  0.27416300  0.38242600  1
  H  671  1  0.07182900  0.28118900  0.30384900  1
  H  672  1  0.04298800  0.30939500  0.30652100  1
  H  679  1  0.19351100  0.69424800  0.27401000  1
  H  681  1  0.70157900  0.74272200  0.27421100  1
  H  682  1  0.65042500  0.71865700  0.28115500  1
  H  684  1  0.05132300  0.65638900  0.27595000  1
  H  685  1  0.07392600  0.66649700  0.29680800  1
  H  687  1  0.91145600  0.76495100  0.27501400  1
  H  688  1  0.88328800  0.75537900  0.25400400  1
  H  695  1  0.20333300  0.30799500  0.72554400  1
  H  697  1  0.71034500  0.25975500  0.72606900  1
  H  698  1  0.66050200  0.28349700  0.71833100  1
  H  700  1  0.05524400  0.34602800  0.72260900  1
  H  701  1  0.08907400  0.33511900  0.70218300  1
  H  703  1  0.91986100  0.23742500  0.72601200  1
  H  704  1  0.89000500  0.24786200  0.74673200  1
  H  711  1  0.81067600  0.80739100  0.77368100  1
  H  713  1  0.30500700  0.75959100  0.77440900  1
  H  714  1  0.35490100  0.78381000  0.78113700  1
  H  716  1  0.95076300  0.84544200  0.77522700  1
  H  717  1  0.92791000  0.83564600  0.79616700  1
  H  719  1  0.09634000  0.73706900  0.77536600  1
  H  720  1  0.12399900  0.74642300  0.75427300  1
  H  727  1  0.80256600  0.19315400  0.22528700  1
  H  729  1  0.29600200  0.24126400  0.22611300  1
  H  730  1  0.34577200  0.21756900  0.21831400  1
  H  732  1  0.95060900  0.15510400  0.22229200  1
  H  733  1  0.91682600  0.16615900  0.20189500  1
  H  735  1  0.08665600  0.26364300  0.22603800  1
  H  736  1  0.11602500  0.25306600  0.24674200  1
  H  743  1  0.21238700  0.55511700  0.28499900  1
  H  745  1  0.72325500  0.55187100  0.24642500  1
  H  746  1  0.67419200  0.56472500  0.26392800  1
  H  748  1  0.06098900  0.56156800  0.31361300  1
  H  749  1  0.10191400  0.58702900  0.30492000  1
  H  751  1  0.93202800  0.54640800  0.22953700  1
  H  752  1  0.89395800  0.52248200  0.24106600  1
  H  759  1  0.24240700  0.44491200  0.72143400  1
  H  761  1  0.72852100  0.45171800  0.75405800  1
  H  762  1  0.68925300  0.43905200  0.73607800  1
  H  764  1  0.11825900  0.43784800  0.69128000  1
  H  765  1  0.13219400  0.41227700  0.70114400  1
  H  767  1  0.92568800  0.45579700  0.77328700  1
  H  768  1  0.90116400  0.47991600  0.76142200  1
  H  775  1  0.79436100  0.94637100  0.78563000  1
  H  777  1  0.28353800  0.94793400  0.74702000  1
  H  778  1  0.33182000  0.93536000  0.76470000  1
  H  780  1  0.94773900  0.94092100  0.81424800  1
  H  781  1  0.90135400  0.91527200  0.80645200  1
  H  783  1  0.07566900  0.95361600  0.73004300  1
  H  784  1  0.11467700  0.97763200  0.74135700  1
  H  791  1  0.76268800  0.05636200  0.22135900  1
  H  793  1  0.27659900  0.04924000  0.25394600  1
  H  794  1  0.31603800  0.06190400  0.23595300  1
  H  796  1  0.88685200  0.06344300  0.19118400  1
  H  797  1  0.87341600  0.08898300  0.20107200  1
  H  799  1  0.07935200  0.04527500  0.27319900  1
  H  800  1  0.10348200  0.02115700  0.26135700  1
  H  807  1  0.24071300  0.88932300  0.26214500  1
  H  809  1  0.69496200  0.91881200  0.26396200  1
  H  810  1  0.67723600  0.89387500  0.25630800  1
  H  812  1  0.13972100  0.85779900  0.23754400  1
  H  813  1  0.16894600  0.84910800  0.25874600  1
  H  815  1  0.84629400  0.93710100  0.28351100  1
  H  816  1  0.88192100  0.94825400  0.26314900  1
  H  823  1  0.23687800  0.11103500  0.74294500  1
  H  825  1  0.68963300  0.08704700  0.73038000  1
  H  826  1  0.67293300  0.11256300  0.73680200  1
  H  828  1  0.13327300  0.14456000  0.76355800  1
  H  829  1  0.17026600  0.15295300  0.74246900  1
  H  831  1  0.86113900  0.06572000  0.71487600  1
  H  832  1  0.85309300  0.05627500  0.73622800  1
  H  839  1  0.76552300  0.61215200  0.76257400  1
  H  841  1  0.31056700  0.58231900  0.76426000  1
  H  842  1  0.32889300  0.60733100  0.75674800  1
  H  844  1  0.86698800  0.64384300  0.73816200  1
  H  845  1  0.83830000  0.65238600  0.75939800  1
  H  847  1  0.15878400  0.56392600  0.78371900  1
  H  848  1  0.12304000  0.55298900  0.76330600  1
  H  855  1  0.76863700  0.38946100  0.24170000  1
  H  857  1  0.31766900  0.41482400  0.23245100  1
  H  858  1  0.33429400  0.38933600  0.23897600  1
  H  860  1  0.87038600  0.35621000  0.26314900  1
  H  861  1  0.83734200  0.34787400  0.24195300  1
  H  863  1  0.15380400  0.43568000  0.21612200  1
  H  864  1  0.14496000  0.44544500  0.23736700  1
  N  2  1  0.98465700  0.56510300  0.04194100  1
  N  4  1  0.92750500  0.56531500  0.07090800  1
  N  6  1  0.99870100  0.53310100  0.05802100  1
  N  7  1  0.92094900  0.59849400  0.05462400  1
  N  9  1  0.93590000  0.53332700  0.08772000  1
  N  11  1  0.05483600  0.53165400  0.02875300  1
  N  14  1  0.90908000  0.42298000  0.94473900  1
  N  16  1  0.91261900  0.44324500  0.91957400  1
  N  18  1  0.91758600  0.46084200  0.94600400  1
  N  19  1  0.90790300  0.40404000  0.91846900  1
  N  21  1  0.92479600  0.48181300  0.91985100  1
  N  23  1  0.91426600  0.44028900  0.97211200  1
  N  26  1  0.02058000  0.93604900  0.54259400  1
  N  28  1  0.07731500  0.93575700  0.57157500  1
  N  30  1  0.00624600  0.96800400  0.55867900  1
  N  31  1  0.08424600  0.90263200  0.55525700  1
  N  33  1  0.06882100  0.96771800  0.58838800  1
  N  35  1  0.95055300  0.96951100  0.52938900  1
  N  38  1  0.09765600  0.07825300  0.44508900  1
  N  40  1  0.09445300  0.05854200  0.41968200  1
  N  42  1  0.08880900  0.04036400  0.44589700  1
  N  43  1  0.09940500  0.09775800  0.41906800  1
  N  45  1  0.08216500  0.02000700  0.41946600  1
  N  47  1  0.09160800  0.06034900  0.47223400  1
  N  50  1  0.09191700  0.58374900  0.45808900  1
  N  52  1  0.02158200  0.61804300  0.46718000  1
  N  54  1  0.04660000  0.58992100  0.48694100  1
  N  55  1  0.07102500  0.61238600  0.43750900  1
  N  57  1  0.97822400  0.62539500  0.49630100  1
  N  59  1  0.10996300  0.55450800  0.47863800  1
  N  62  1  0.01002300  0.42120800  0.53962300  1
  N  64  1  0.00011333  0.38551000  0.52945600  1
  N  66  1  0.94248900  0.41431500  0.51154200  1
  N  67  1  0.06269100  0.39228700  0.55854900  1
  N  69  1  0.93442000  0.37761500  0.50091300  1
  N  71  1  0.94810800  0.45062200  0.52080200  1
  N  74  1  0.91596400  0.91755200  0.95749900  1
  N  76  1  0.98590900  0.88319100  0.96652300  1
  N  78  1  0.96161900  0.91122400  0.98633100  1
  N  79  1  0.93563300  0.88896700  0.93688000  1
  N  81  1  0.02928100  0.87566900  0.99563900  1
  N  83  1  0.89822500  0.94669700  0.97811300  1
  N  86  1  0.99509800  0.07980100  0.03935800  1
  N  88  1  0.00462700  0.11555100  0.02925200  1
  N  90  1  0.06243300  0.08685200  0.01128400  1
  N  91  1  0.94236400  0.10862400  0.05834100  1
  N  93  1  0.07027800  0.12361500  0.00072100  1
  N  95  1  0.05735100  0.05049300  0.02049100  1
  N  98  1  0.98850400  0.75258500  0.06381500  1
  N  100  1  0.95973700  0.77406300  0.08809600  1
  N  102  1  0.03281700  0.73826400  0.09090000  1
  N  103  1  0.92139400  0.78957700  0.06035400  1
  N  105  1  0.00296000  0.76038500  0.11602800  1
  N  107  1  0.06156800  0.71546700  0.06700700  1
  N  110  1  0.99138900  0.25234800  0.93692300  1
  N  112  1  0.96372500  0.22888200  0.91371800  1
  N  114  1  0.03693800  0.26437800  0.90918800  1
  N  115  1  0.92789500  0.21574700  0.94223500  1
  N  117  1  0.00337900  0.24068300  0.88510100  1
  N  119  1  0.06416800  0.28914000  0.93183500  1
  N  122  1  0.01674600  0.74852000  0.56419800  1
  N  124  1  0.04537300  0.72707800  0.58853200  1
  N  126  1  0.97178000  0.76285400  0.59124200  1
  N  127  1  0.08432700  0.71154900  0.56083400  1
  N  129  1  0.00162000  0.74076400  0.61642200  1
  N  131  1  0.94320700  0.78561300  0.56728800  1
  N  134  1  0.01298100  0.24933500  0.43700700  1
  N  136  1  0.04132200  0.27268400  0.41371200  1
  N  138  1  0.96751200  0.23720100  0.40931500  1
  N  139  1  0.07704500  0.28592500  0.44218200  1
  N  141  1  0.00157000  0.26078700  0.38514300  1
  N  143  1  0.94002300  0.21253900  0.43205800  1
  N  146  1  0.89621400  0.64878600  0.32033600  1
  N  148  1  0.88119100  0.61932600  0.30157600  1
  N  150  1  0.90477900  0.61336500  0.33088100  1
  N  151  1  0.87473400  0.65621100  0.29089000  1
  N  153  1  0.89489100  0.58285600  0.31187100  1
  N  155  1  0.92503000  0.64262400  0.35050800  1
  N  158  1  0.90032700  0.35552100  0.67743900  1
  N  160  1  0.91377300  0.38244200  0.69843900  1
  N  162  1  0.92570500  0.39185200  0.66958100  1
  N  163  1  0.88721200  0.34467100  0.70618700  1
  N  165  1  0.93763900  0.41982000  0.69092100  1
  N  167  1  0.91447600  0.36513000  0.64767800  1
  N  170  1  0.10496500  0.85243300  0.81986000  1
  N  172  1  0.12165300  0.88264000  0.80183700  1
  N  174  1  0.09800600  0.88738300  0.83126700  1
  N  175  1  0.12689800  0.84617500  0.79025400  1
  N  177  1  0.10945500  0.91872700  0.81308600  1
  N  179  1  0.07552200  0.85729900  0.85016200  1
  N  182  1  0.10510300  0.14564600  0.17714900  1
  N  184  1  0.09184300  0.11877800  0.19822900  1
  N  186  1  0.07955100  0.10929600  0.16940200  1
  N  187  1  0.11860900  0.15656100  0.20586600  1
  N  189  1  0.06779100  0.08138800  0.19083200  1
  N  191  1  0.09060100  0.13596500  0.14741900  1
  N  194  1  0.06402400  0.81554400  0.22650800  1
  N  196  1  0.11175000  0.77916200  0.23218700  1
  N  198  1  0.03475800  0.80173900  0.25409300  1
  N  199  1  0.13282100  0.79265200  0.20346000  1
  N  201  1  0.08406700  0.76388600  0.25946900  1
  N  203  1  0.98457200  0.83893600  0.24885900  1
  N  206  1  0.06165800  0.18681100  0.77429400  1
  N  208  1  0.11278500  0.22318700  0.76908900  1
  N  210  1  0.03825600  0.20106400  0.74676400  1
  N  211  1  0.12946400  0.20916300  0.79772000  1
  N  213  1  0.09069900  0.23890200  0.74184700  1
  N  215  1  0.98445200  0.16389300  0.75149200  1
  N  218  1  0.94340700  0.68590800  0.72707700  1
  N  220  1  0.89611400  0.72232400  0.73260900  1
  N  222  1  0.97312400  0.69983100  0.75459900  1
  N  223  1  0.87426400  0.70869700  0.70394700  1
  N  225  1  0.92365500  0.73772400  0.75982200  1
  N  227  1  0.02262500  0.66256000  0.74949700  1
  N  230  1  0.94419700  0.31416000  0.27421700  1
  N  232  1  0.89310400  0.27778800  0.26904500  1
  N  234  1  0.96815100  0.29991200  0.24671500  1
  N  235  1  0.87617000  0.29182200  0.29765700  1
  N  237  1  0.91550800  0.26209700  0.24181700  1
  N  239  1  0.02196500  0.33708100  0.25143500  1
  N  242  1  0.91517800  0.01113900  0.30033900  1
  N  244  1  0.98100700  0.97510200  0.30496400  1
  N  246  1  0.96862600  0.98882300  0.27722100  1
  N  247  1  0.92212100  0.99779100  0.32880200  1
  N  249  1  0.03474700  0.95173700  0.28180400  1
  N  251  1  0.90774200  0.02529000  0.27146400  1
  N  254  1  0.90758300  0.98928500  0.70481200  1
  N  256  1  0.96947000  0.02546500  0.70000400  1
  N  258  1  0.96947100  0.01141400  0.72769100  1
  N  259  1  0.90641500  0.00261200  0.67638100  1
  N  261  1  0.03189800  0.04870100  0.72299000  1
  N  263  1  0.91162500  0.97484200  0.73358200  1
  N  266  1  0.08920200  0.48989700  0.80041600  1
  N  268  1  0.02338900  0.52591700  0.80506900  1
  N  270  1  0.03588900  0.51230500  0.77731200  1
  N  271  1  0.08243500  0.50315100  0.82889200  1
  N  273  1  0.97005800  0.54939600  0.78192800  1
  N  275  1  0.09695000  0.47585800  0.77152900  1
  N  278  1  0.09925000  0.51154900  0.20437500  1
  N  280  1  0.03568200  0.47553900  0.19920400  1
  N  282  1  0.03918400  0.48892600  0.22707900  1
  N  283  1  0.09847600  0.49876100  0.17579600  1
  N  285  1  0.97504900  0.45184000  0.22191900  1
  N  287  1  0.09687000  0.52539800  0.23330000  1
  N  290  1  0.09028100  0.49776800  0.00696300  1
  N  293  1  0.90770700  0.48171200  0.98542700  1
  N  296  1  0.76251400  0.51066600  0.98921300  1
  N  306  1  0.91504400  0.00317600  0.50733600  1
  N  309  1  0.09776800  0.01905900  0.48571900  1
  N  312  1  0.24320900  0.99018700  0.48975800  1
  N  322  1  0.90496800  0.64353600  0.05363500  1
  N  325  1  0.08542000  0.67126700  0.06635300  1
  N  328  1  0.22683100  0.64391400  0.07561800  1
  N  338  1  0.89870500  0.36216300  0.92960400  1
  N  341  1  0.09659900  0.33297000  0.92815400  1
  N  344  1  0.25262800  0.35806700  0.91871600  1
  N  354  1  0.09999400  0.85760600  0.55409600  1
  N  357  1  0.91898200  0.82979500  0.56661200  1
  N  360  1  0.77711200  0.85708700  0.57583400  1
  N  370  1  0.10719900  0.13962900  0.43004200  1
  N  373  1  0.90862000  0.16868900  0.42844700  1
  N  376  1  0.75343000  0.14346900  0.41901400  1
  N  386  1  0.11784000  0.50923900  0.14160400  1
  N  389  1  0.91347300  0.51477500  0.11996900  1
  N  392  1  0.75471300  0.50395100  0.13977000  1
  N  402  1  0.10222000  0.49633100  0.86365500  1
  N  405  1  0.89919900  0.49321500  0.88581300  1
  N  408  1  0.73851200  0.50015900  0.86517900  1
  N  418  1  0.88687100  0.99206200  0.64219100  1
  N  421  1  0.09123800  0.98643200  0.62057700  1
  N  424  1  0.24998000  0.99735900  0.64032600  1
  N  434  1  0.90309200  0.00486300  0.36350500  1
  N  437  1  0.10656000  0.00802600  0.38558600  1
  N  440  1  0.26666800  0.00064400  0.36498400  1
  N  450  1  0.12650500  0.51653500  0.49688600  1
  N  453  1  0.92725800  0.48849800  0.50282100  1
  N  456  1  0.77195000  0.50866300  0.48765200  1
  N  466  1  0.88061100  0.98457000  0.99646600  1
  N  469  1  0.07947600  0.01259400  0.00260900  1
  N  472  1  0.23576400  0.99245800  0.98760900  1
  N  482  1  0.91710400  0.62711600  0.38280500  1
  N  485  1  0.12271100  0.61176400  0.40110700  1
  N  488  1  0.27951400  0.62075300  0.38050500  1
  N  498  1  0.90732300  0.36623400  0.61305200  1
  N  501  1  0.10387600  0.37941500  0.59228100  1
  N  504  1  0.26070400  0.38091200  0.61404800  1
  N  514  1  0.08596900  0.87381300  0.88217000  1
  N  517  1  0.88135500  0.88932400  0.90054900  1
  N  520  1  0.72320000  0.87984600  0.88027200  1
  N  530  1  0.09771700  0.13475300  0.11280300  1
  N  533  1  0.90121400  0.12149200  0.09207100  1
  N  536  1  0.74442700  0.12002300  0.11384700  1
  N  546  1  0.11999200  0.67624800  0.53945500  1
  N  549  1  0.93019100  0.65674100  0.52086000  1
  N  552  1  0.76054400  0.67848500  0.53149700  1
  N  562  1  0.10384500  0.32082000  0.46424600  1
  N  565  1  0.90394000  0.34437200  0.47747000  1
  N  568  1  0.74004100  0.32553000  0.46275700  1
  N  578  1  0.88638100  0.82486900  0.03887800  1
  N  581  1  0.07671500  0.84431900  0.02030400  1
  N  584  1  0.24597400  0.82256200  0.03105500  1
  N  594  1  0.90094600  0.18069700  0.96422800  1
  N  597  1  0.10078600  0.15698700  0.97732200  1
  N  600  1  0.26461600  0.17583000  0.96257400  1
  N  610  1  0.15455200  0.78472000  0.16860700  1
  N  613  1  0.95601400  0.78722600  0.14572200  1
  N  616  1  0.79715400  0.79638100  0.16597900  1
  N  626  1  0.15108900  0.21586100  0.83270300  1
  N  629  1  0.95128300  0.21381400  0.85543400  1
  N  632  1  0.79186400  0.20572300  0.83495300  1
  N  642  1  0.85141700  0.71648000  0.66906900  1
  N  645  1  0.04912600  0.71380600  0.64608400  1
  N  648  1  0.20840600  0.70456200  0.66627500  1
  N  658  1  0.85425600  0.28533100  0.33265500  1
  N  661  1  0.05377700  0.28757500  0.35541300  1
  N  664  1  0.21334000  0.29560300  0.33492500  1
  N  674  1  0.08149200  0.72178900  0.27001900  1
  N  677  1  0.86932300  0.69896400  0.28062600  1
  N  680  1  0.72303200  0.72786000  0.27721600  1
  N  690  1  0.09059500  0.28066300  0.73013300  1
  N  693  1  0.87989300  0.30302000  0.71852300  1
  N  696  1  0.73255500  0.27442800  0.72261200  1
  N  706  1  0.92415300  0.77995600  0.76997100  1
  N  709  1  0.13501000  0.80321400  0.78040000  1
  N  712  1  0.28278700  0.77446200  0.77727500  1
  N  722  1  0.91547500  0.22042300  0.22999200  1
  N  725  1  0.12618400  0.19810300  0.21837100  1
  N  728  1  0.27371500  0.22662500  0.22259800  1
  N  738  1  0.10048700  0.54681000  0.26398400  1
  N  741  1  0.89164700  0.56533900  0.27965900  1
  N  744  1  0.74537000  0.55773000  0.25753900  1
  N  754  1  0.11784200  0.45426300  0.74097800  1
  N  757  1  0.91675500  0.43698900  0.72296200  1
  N  760  1  0.75710800  0.44567800  0.74324800  1
  N  770  1  0.90673400  0.95398700  0.76448700  1
  N  773  1  0.11433100  0.93542400  0.78044200  1
  N  776  1  0.26107300  0.94233700  0.75821200  1
  N  786  1  0.88715100  0.04692100  0.24089900  1
  N  789  1  0.08850400  0.06411000  0.22285600  1
  N  792  1  0.24808200  0.05530800  0.24313500  1
  N  802  1  0.09430300  0.91174300  0.26749600  1
  N  805  1  0.91713400  0.88237900  0.25640500  1
  N  808  1  0.73567900  0.90515300  0.26070900  1
  N  818  1  0.08995100  0.08973800  0.73541500  1
  N  821  1  0.91395100  0.12153400  0.74164600  1
  N  824  1  0.73125100  0.10040700  0.73417100  1
  N  834  1  0.91139600  0.58958600  0.76781400  1
  N  837  1  0.08926800  0.61897300  0.75689800  1
  N  840  1  0.27017300  0.59603900  0.76108400  1
  N  850  1  0.91614600  0.41109200  0.23496200  1
  N  853  1  0.09262800  0.37975500  0.24231900  1
  N  856  1  0.27590100  0.40133300  0.23593600  1
