# generated using pymatgen
data_H9C18N2O5
_symmetry_space_group_name_H-M   'P 1'
_cell_length_a   50.81400000
_cell_length_b   64.57740000
_cell_length_c   64.57740000
_cell_angle_alpha   90.00000000
_cell_angle_beta   90.00000000
_cell_angle_gamma   90.00000000
_symmetry_Int_Tables_number   1
_chemical_formula_structural   H9C18N2O5
_chemical_formula_sum   'H576 C1152 N128 O320'
_cell_volume   211906.60537888
_cell_formula_units_Z   64
loop_
 _symmetry_equiv_pos_site_id
 _symmetry_equiv_pos_as_xyz
  1  'x, y, z'
loop_
 _atom_site_type_symbol
 _atom_site_label
 _atom_site_symmetry_multiplicity
 _atom_site_fract_x
 _atom_site_fract_y
 _atom_site_fract_z
 _atom_site_occupancy
  H  7  1  0.11637500  0.12892200  0.28280200  1
  H  8  1  0.17427800  0.08372700  0.29420200  1
  H  15  1  0.02339300  0.13023600  0.23530200  1
  H  16  1  0.10531900  0.12262900  0.23608200  1
  H  19  1  0.10286900  0.06849800  0.24196700  1
  H  20  1  0.05929000  0.10072900  0.29798000  1
  H  27  1  0.11651300  0.86763000  0.69394700  1
  H  28  1  0.17433800  0.91288700  0.68254900  1
  H  35  1  0.02341600  0.86633800  0.74138300  1
  H  36  1  0.10535400  0.87390900  0.74064400  1
  H  39  1  0.10284000  0.92806500  0.73473200  1
  H  40  1  0.05939900  0.89583400  0.67872000  1
  H  47  1  0.11638200  0.70383900  0.11895600  1
  H  48  1  0.17431200  0.69243700  0.07378400  1
  H  55  1  0.02339800  0.75132900  0.12024000  1
  H  56  1  0.10532600  0.75056900  0.11263400  1
  H  59  1  0.10289100  0.74466100  0.05852300  1
  H  60  1  0.05932700  0.68864300  0.09077400  1
  H  67  1  0.11650200  0.29269700  0.85766500  1
  H  68  1  0.17430100  0.30409400  0.90294200  1
  H  75  1  0.02341400  0.24524700  0.85633900  1
  H  76  1  0.10535100  0.24600800  0.86391800  1
  H  79  1  0.10282000  0.25189600  0.91809000  1
  H  80  1  0.05935800  0.30790300  0.88587600  1
  H  87  1  0.78465800  0.86771300  0.28280600  1
  H  88  1  0.72675700  0.91290700  0.29421300  1
  H  95  1  0.87762900  0.86639500  0.23529400  1
  H  96  1  0.79570200  0.87400500  0.23608200  1
  H  99  1  0.79815100  0.92813400  0.24196500  1
  H  100  1  0.84174300  0.89590600  0.29797600  1
  H  107  1  0.78453800  0.12899500  0.69393900  1
  H  108  1  0.72670600  0.08374500  0.68253200  1
  H  115  1  0.87761300  0.13028800  0.74139300  1
  H  116  1  0.79567500  0.12271600  0.74064900  1
  H  119  1  0.79817400  0.06856700  0.73474300  1
  H  120  1  0.84164100  0.10079400  0.67872800  1
  H  127  1  0.78462500  0.29279300  0.11895700  1
  H  128  1  0.72670800  0.30418500  0.07377200  1
  H  135  1  0.87762500  0.24532200  0.12026300  1
  H  136  1  0.79569800  0.24606400  0.11264300  1
  H  139  1  0.79814500  0.25196700  0.05852800  1
  H  140  1  0.84168200  0.30799600  0.09078200  1
  H  147  1  0.78455000  0.70392400  0.85767100  1
  H  148  1  0.72674900  0.69251700  0.90294200  1
  H  155  1  0.87761900  0.75139500  0.85634500  1
  H  156  1  0.79568100  0.75062300  0.86392100  1
  H  159  1  0.79820200  0.74474300  0.91808700  1
  H  160  1  0.84168600  0.68873400  0.88588200  1
  H  167  1  0.77135700  0.86608300  0.69833500  1
  H  168  1  0.72312200  0.91732600  0.68530100  1
  H  175  1  0.86606300  0.86191100  0.74760200  1
  H  176  1  0.78343600  0.86673900  0.74824400  1
  H  179  1  0.77512900  0.92371300  0.74787300  1
  H  180  1  0.82247700  0.89638700  0.68783600  1
  H  187  1  0.77137600  0.13055400  0.27818200  1
  H  188  1  0.72314200  0.07933200  0.29130000  1
  H  195  1  0.86603200  0.13472300  0.22894200  1
  H  196  1  0.78340300  0.12990400  0.22825600  1
  H  199  1  0.77500500  0.07287400  0.22865100  1
  H  200  1  0.82238800  0.10023500  0.28867200  1
  H  207  1  0.77133500  0.28825200  0.85610100  1
  H  208  1  0.72307100  0.30130600  0.90732100  1
  H  215  1  0.86604500  0.23899800  0.85196600  1
  H  216  1  0.78341600  0.23835700  0.85677300  1
  H  219  1  0.77508600  0.23874400  0.91375600  1
  H  220  1  0.82244100  0.29876400  0.88643000  1
  H  227  1  0.77139200  0.70839400  0.12058000  1
  H  228  1  0.72319500  0.69529800  0.06933000  1
  H  235  1  0.86604300  0.75765600  0.12479000  1
  H  236  1  0.78341600  0.75833700  0.11994500  1
  H  239  1  0.77505500  0.75795700  0.06292900  1
  H  240  1  0.82242300  0.69791700  0.09029700  1
  H  247  1  0.12968200  0.13055300  0.69834000  1
  H  248  1  0.17791500  0.07930900  0.68530300  1
  H  255  1  0.03497000  0.13472100  0.74760200  1
  H  256  1  0.11759700  0.12989500  0.74824100  1
  H  259  1  0.12589500  0.07291600  0.74786600  1
  H  260  1  0.07855600  0.10024700  0.68783500  1
  H  267  1  0.12965700  0.86607800  0.27817000  1
  H  268  1  0.17789200  0.91730000  0.29128900  1
  H  275  1  0.03499800  0.86191100  0.22893300  1
  H  276  1  0.11762700  0.86673100  0.22824700  1
  H  279  1  0.12601600  0.92376200  0.22864600  1
  H  280  1  0.07864100  0.89639500  0.28866600  1
  H  287  1  0.12970600  0.70840200  0.85610800  1
  H  288  1  0.17797500  0.69534300  0.90732600  1
  H  295  1  0.03498800  0.75764200  0.85198000  1
  H  296  1  0.11761700  0.75828900  0.85678200  1
  H  299  1  0.12595000  0.75789900  0.91377300  1
  H  300  1  0.07859900  0.69788400  0.88644700  1
  H  307  1  0.12963000  0.28822900  0.12058100  1
  H  308  1  0.17782900  0.30132500  0.06933300  1
  H  315  1  0.03497500  0.23897700  0.12479000  1
  H  316  1  0.11760200  0.23828800  0.11994200  1
  H  319  1  0.12596200  0.23867300  0.06292600  1
  H  320  1  0.07860200  0.29871300  0.09029700  1
  H  327  1  0.62160300  0.63123900  0.77683000  1
  H  328  1  0.67769400  0.58353300  0.78090300  1
  H  335  1  0.52062700  0.63716700  0.74118800  1
  H  336  1  0.60152600  0.62899000  0.73145800  1
  H  339  1  0.59953000  0.57409800  0.73334300  1
  H  340  1  0.56777300  0.60281400  0.79641700  1
  H  347  1  0.62160500  0.36531800  0.19989200  1
  H  348  1  0.67759500  0.41309600  0.19580800  1
  H  355  1  0.52055000  0.35940100  0.23553300  1
  H  356  1  0.60146500  0.36754300  0.24523900  1
  H  359  1  0.59939800  0.42245600  0.24334800  1
  H  360  1  0.56771000  0.39374100  0.18029000  1
  H  367  1  0.62158100  0.20984300  0.62124800  1
  H  368  1  0.67768800  0.20578700  0.57355300  1
  H  375  1  0.52059100  0.24544600  0.62717200  1
  H  376  1  0.60148200  0.25521600  0.61898500  1
  H  379  1  0.59950200  0.25332400  0.56410400  1
  H  380  1  0.56777900  0.19023200  0.59283400  1
  H  387  1  0.62163800  0.78677500  0.35531900  1
  H  388  1  0.67760300  0.79087500  0.40311400  1
  H  395  1  0.52058100  0.75111400  0.34939900  1
  H  396  1  0.60150600  0.74144000  0.35752600  1
  H  399  1  0.59941600  0.74332500  0.41245800  1
  H  400  1  0.56771000  0.80636200  0.38375800  1
  H  407  1  0.27945500  0.36538900  0.77679400  1
  H  408  1  0.22332800  0.41306700  0.78090700  1
  H  415  1  0.38042300  0.35952500  0.74113600  1
  H  416  1  0.29951600  0.36767000  0.73142400  1
  H  419  1  0.30147600  0.42256500  0.73334100  1
  H  420  1  0.33326700  0.39383400  0.79638800  1
  H  427  1  0.27942300  0.63132600  0.19990600  1
  H  428  1  0.22343700  0.58354600  0.19581400  1
  H  435  1  0.38048600  0.63723500  0.23553700  1
  H  436  1  0.29957100  0.62909600  0.24524700  1
  H  439  1  0.30164100  0.57417700  0.24334300  1
  H  440  1  0.33333333  0.60290100  0.18029400  1
  H  447  1  0.27947400  0.78675800  0.62124900  1
  H  448  1  0.22333800  0.79084900  0.57357900  1
  H  455  1  0.38045200  0.75112400  0.62711700  1
  H  456  1  0.29955100  0.74138300  0.61895900  1
  H  459  1  0.30150400  0.74330100  0.56407600  1
  H  460  1  0.33326500  0.80636700  0.59281800  1
  H  467  1  0.27940300  0.20986700  0.35531100  1
  H  468  1  0.22342900  0.20575300  0.40309900  1
  H  475  1  0.38045400  0.24553200  0.34940400  1
  H  476  1  0.29953200  0.25520400  0.35753200  1
  H  479  1  0.30161200  0.25330500  0.41246300  1
  H  480  1  0.33333333  0.19027500  0.38375000  1
  H  487  1  0.27190000  0.36948200  0.19129700  1
  H  488  1  0.22494000  0.42301800  0.19030600  1
  H  495  1  0.37230900  0.35768400  0.23440100  1
  H  496  1  0.29032200  0.36414700  0.24105600  1
  H  499  1  0.28497700  0.41853000  0.24839500  1
  H  500  1  0.32546400  0.39688900  0.17995300  1
  H  507  1  0.27204500  0.62720000  0.78514600  1
  H  508  1  0.22497600  0.57372800  0.78631300  1
  H  515  1  0.37240900  0.63886700  0.74206600  1
  H  516  1  0.29041400  0.63244700  0.73541600  1
  H  519  1  0.28496900  0.57797300  0.72816600  1
  H  520  1  0.32548300  0.59968600  0.79650900  1
  H  527  1  0.27193500  0.79529600  0.35948300  1
  H  528  1  0.22487500  0.79631200  0.41296500  1
  H  535  1  0.37233700  0.75219600  0.34776500  1
  H  536  1  0.29034300  0.74554700  0.35418700  1
  H  539  1  0.28493100  0.73823000  0.40858100  1
  H  540  1  0.32545800  0.80664500  0.38694500  1
  H  547  1  0.27201800  0.20145400  0.61720200  1
  H  548  1  0.22504600  0.20031100  0.56367500  1
  H  555  1  0.37239000  0.24453600  0.62894600  1
  H  556  1  0.29040000  0.25119400  0.62248500  1
  H  559  1  0.28501800  0.25846500  0.56801900  1
  H  560  1  0.32549100  0.19009700  0.58973800  1
  H  567  1  0.62912800  0.62714600  0.19129100  1
  H  568  1  0.67608800  0.57361000  0.19031900  1
  H  575  1  0.52872100  0.63895700  0.23439500  1
  H  576  1  0.61070800  0.63249300  0.24105600  1
  H  579  1  0.61605900  0.57811800  0.24840700  1
  H  580  1  0.57556600  0.59974500  0.17995300  1
  H  587  1  0.62899200  0.36943400  0.78516700  1
  H  588  1  0.67604200  0.42291900  0.78629500  1
  H  595  1  0.52861400  0.35773200  0.74210400  1
  H  596  1  0.61061000  0.36415200  0.73544100  1
  H  599  1  0.61604500  0.41862000  0.72815400  1
  H  600  1  0.57553100  0.39693900  0.79652300  1
  H  607  1  0.62910500  0.20132400  0.35948200  1
  H  608  1  0.67614500  0.20033000  0.41297400  1
  H  615  1  0.52869900  0.24442400  0.34774100  1
  H  616  1  0.61069000  0.25108000  0.35417000  1
  H  619  1  0.61609400  0.25841200  0.40855300  1
  H  620  1  0.57557200  0.18997800  0.38692600  1
  H  627  1  0.62902400  0.79519900  0.61720300  1
  H  628  1  0.67598700  0.79632000  0.56367000  1
  H  635  1  0.52864400  0.75212600  0.62896700  1
  H  636  1  0.61063500  0.74546600  0.62251100  1
  H  639  1  0.61601000  0.73816900  0.56804300  1
  H  640  1  0.57552700  0.80654900  0.58974000  1
  H  647  1  0.14403600  0.01012000  0.30371000  1
  H  648  1  0.13614100  0.04643000  0.30483600  1
  H  655  1  0.19464200  0.94455700  0.26234500  1
  H  656  1  0.11335900  0.95066000  0.27417900  1
  H  657  1  0.11795000  0.98703800  0.27630400  1
  H  658  1  0.17535700  0.01583500  0.24347700  1
  H  671  1  0.14402100  0.98643400  0.67294100  1
  H  672  1  0.13615200  0.95011800  0.67186100  1
  H  679  1  0.19459200  0.05205800  0.71425200  1
  H  680  1  0.11332400  0.04595000  0.70235200  1
  H  681  1  0.11791100  0.00956800  0.70028200  1
  H  682  1  0.17528500  0.98081600  0.73320300  1
  H  695  1  0.14412300  0.68288700  0.00018200  1
  H  696  1  0.13622100  0.68177800  0.03649100  1
  H  703  1  0.19466400  0.72427000  0.93459300  1
  H  704  1  0.11339800  0.71236800  0.94071400  1
  H  705  1  0.11800300  0.71026000  0.97709000  1
  H  706  1  0.17538100  0.74314500  0.00586400  1
  H  719  1  0.14393400  0.31365400  0.97649700  1
  H  720  1  0.13607100  0.31475400  0.94018100  1
  H  727  1  0.19457000  0.27236000  0.04209100  1
  H  728  1  0.11328500  0.28418700  0.03600200  1
  H  729  1  0.11785800  0.28627600  0.99961900  1
  H  730  1  0.17526500  0.25341800  0.97084000  1
  H  743  1  0.75699700  0.98651300  0.30371400  1
  H  744  1  0.76489200  0.95020300  0.30484000  1
  H  751  1  0.70638400  0.05207700  0.26235600  1
  H  752  1  0.78766900  0.04597300  0.27418100  1
  H  753  1  0.78307800  0.00959500  0.27630400  1
  H  754  1  0.72566500  0.98079700  0.24348400  1
  H  767  1  0.75701400  0.01019500  0.67294500  1
  H  768  1  0.76488400  0.04651000  0.67186300  1
  H  775  1  0.70643800  0.94457300  0.71424800  1
  H  776  1  0.78770900  0.95068600  0.70236600  1
  H  777  1  0.78311900  0.98706700  0.70029400  1
  H  778  1  0.72573000  0.01582000  0.73320000  1
  H  791  1  0.75692000  0.31374000  0.00017800  1
  H  792  1  0.76481500  0.31484500  0.03648900  1
  H  799  1  0.70637900  0.27237400  0.93458200  1
  H  800  1  0.78764600  0.28427000  0.94070600  1
  H  801  1  0.78304100  0.28637100  0.97708400  1
  H  802  1  0.72566300  0.25348200  0.00585200  1
  H  815  1  0.75710500  0.68297400  0.97649900  1
  H  816  1  0.76497100  0.68187400  0.94018300  1
  H  823  1  0.70645300  0.72426200  0.04208900  1
  H  824  1  0.78774200  0.71244500  0.03600200  1
  H  825  1  0.78317000  0.71035600  0.99962000  1
  H  826  1  0.72575500  0.74320500  0.97083700  1
  H  839  1  0.64190400  0.51226900  0.79120200  1
  H  840  1  0.63732500  0.54888800  0.79283600  1
  H  847  1  0.68853300  0.44530900  0.75375400  1
  H  848  1  0.60798600  0.45279900  0.76769800  1
  H  849  1  0.61242400  0.48914100  0.76514000  1
  H  850  1  0.66785200  0.51660900  0.72928700  1
  H  863  1  0.64171300  0.48433000  0.18550300  1
  H  864  1  0.63712800  0.44771000  0.18387400  1
  H  871  1  0.68851500  0.55125100  0.22287200  1
  H  872  1  0.60794700  0.54385900  0.20894300  1
  H  873  1  0.61230400  0.50751300  0.21154900  1
  H  874  1  0.66771800  0.47999300  0.24740400  1
  H  887  1  0.64193800  0.19546800  0.50228700  1
  H  888  1  0.63733800  0.19383900  0.53890300  1
  H  895  1  0.68859800  0.23288500  0.43533600  1
  H  896  1  0.60804700  0.21892300  0.44280000  1
  H  897  1  0.61245800  0.22151500  0.47914200  1
  H  898  1  0.66784800  0.25739300  0.50662300  1
  H  911  1  0.64167600  0.80118100  0.47433900  1
  H  912  1  0.63710800  0.80280700  0.43771800  1
  H  919  1  0.68845000  0.76377700  0.54127700  1
  H  920  1  0.60788600  0.77770500  0.53386300  1
  H  921  1  0.61226700  0.77513100  0.49751600  1
  H  922  1  0.66770800  0.73928600  0.47001200  1
  H  935  1  0.25907200  0.48434200  0.79123900  1
  H  936  1  0.26366400  0.44772300  0.79285600  1
  H  943  1  0.21247100  0.55132400  0.75377900  1
  H  944  1  0.29301400  0.54381700  0.76773900  1
  H  945  1  0.28856000  0.50747400  0.76519000  1
  H  946  1  0.23313500  0.48002800  0.72932000  1
  H  959  1  0.25931600  0.51231700  0.18548600  1
  H  960  1  0.26390400  0.54893600  0.18386800  1
  H  967  1  0.21251800  0.44538600  0.22286100  1
  H  968  1  0.29308300  0.45277700  0.20891300  1
  H  969  1  0.28872800  0.48912300  0.21151800  1
  H  970  1  0.23332200  0.51663700  0.24739000  1
  H  983  1  0.25905100  0.80118800  0.50230200  1
  H  984  1  0.26365800  0.80280500  0.53891900  1
  H  991  1  0.21241600  0.76376200  0.43533500  1
  H  992  1  0.29296100  0.77773400  0.44281600  1
  H  993  1  0.28853700  0.77514800  0.47915600  1
  H  994  1  0.23314500  0.73926100  0.50662000  1
  H  1007  1  0.25934000  0.19543700  0.47432800  1
  H  1008  1  0.26391400  0.19381700  0.43770700  1
  H  1015  1  0.21257500  0.23284900  0.54127100  1
  H  1016  1  0.29313800  0.21891500  0.53385200  1
  H  1017  1  0.28875300  0.22148100  0.49750500  1
  H  1018  1  0.23331200  0.25733300  0.47000800  1
  H  1031  1  0.17504100  0.18898200  0.34159600  1
  H  1032  1  0.20087800  0.21251800  0.36183800  1
  H  1039  1  0.16243500  0.10285000  0.32912400  1
  H  1040  1  0.16352000  0.14702000  0.28099700  1
  H  1041  1  0.18663700  0.17063900  0.30289400  1
  H  1042  1  0.23618100  0.14487700  0.34432800  1
  H  1055  1  0.17513100  0.80762700  0.63515700  1
  H  1056  1  0.20091700  0.78409700  0.61486800  1
  H  1063  1  0.16249800  0.89374500  0.64763000  1
  H  1064  1  0.16370600  0.84957700  0.69575800  1
  H  1065  1  0.18681200  0.82597300  0.67383900  1
  H  1066  1  0.23625200  0.85174300  0.63232400  1
  H  1079  1  0.17505000  0.64504600  0.17904100  1
  H  1080  1  0.20089200  0.62480500  0.20257500  1
  H  1087  1  0.16244100  0.65751100  0.09290300  1
  H  1088  1  0.16352900  0.70564300  0.13706900  1
  H  1089  1  0.18664000  0.68374500  0.16069200  1
  H  1090  1  0.23617900  0.64230900  0.13492700  1
  H  1103  1  0.17511900  0.35148600  0.79768400  1
  H  1104  1  0.20089900  0.37177700  0.77415100  1
  H  1111  1  0.16248700  0.33901200  0.88379600  1
  H  1112  1  0.16369300  0.29088500  0.83962600  1
  H  1113  1  0.18680500  0.31280400  0.81602300  1
  H  1114  1  0.23625000  0.35431600  0.84179100  1
  H  1127  1  0.72600100  0.80765200  0.34161300  1
  H  1128  1  0.70016200  0.78411600  0.36185400  1
  H  1135  1  0.73861000  0.89378700  0.32913700  1
  H  1136  1  0.73751400  0.84961400  0.28101100  1
  H  1137  1  0.71440200  0.82599600  0.30291200  1
  H  1138  1  0.66486600  0.85176300  0.34434900  1
  H  1151  1  0.72592800  0.18899900  0.63512300  1
  H  1152  1  0.70013000  0.21252800  0.61484300  1
  H  1159  1  0.73857400  0.10287700  0.64761200  1
  H  1160  1  0.73734200  0.14705400  0.69573000  1
  H  1161  1  0.71424800  0.17065600  0.67380000  1
  H  1162  1  0.66482700  0.14486800  0.63228300  1
  H  1175  1  0.72597000  0.35158900  0.17902400  1
  H  1176  1  0.70013400  0.37183400  0.20256000  1
  H  1183  1  0.73857200  0.33911200  0.09288800  1
  H  1184  1  0.73747400  0.29098900  0.13706300  1
  H  1185  1  0.71436700  0.31289100  0.16068100  1
  H  1186  1  0.66483700  0.35433600  0.13491300  1
  H  1199  1  0.72594200  0.64510400  0.79769000  1
  H  1200  1  0.70014600  0.62482300  0.77416000  1
  H  1207  1  0.73859000  0.65759800  0.88380700  1
  H  1208  1  0.73735800  0.70571400  0.83962600  1
  H  1209  1  0.71425600  0.68378400  0.81602900  1
  H  1210  1  0.66483300  0.64226900  0.84181600  1
  H  1223  1  0.72813800  0.81815900  0.62622000  1
  H  1224  1  0.70436300  0.79410500  0.60523900  1
  H  1231  1  0.73633500  0.90114700  0.65110200  1
  H  1232  1  0.72465300  0.85108800  0.69207400  1
  H  1233  1  0.70656900  0.83109500  0.66457600  1
  H  1234  1  0.66530900  0.86062700  0.62208700  1
  H  1247  1  0.72825100  0.17851300  0.35038400  1
  H  1248  1  0.70445400  0.20253500  0.37138200  1
  H  1255  1  0.73649400  0.09550300  0.32547000  1
  H  1256  1  0.72467700  0.14556900  0.28452800  1
  H  1257  1  0.70666200  0.16555000  0.31206200  1
  H  1258  1  0.66553200  0.13595400  0.35459300  1
  H  1271  1  0.72811500  0.36034300  0.80812900  1
  H  1272  1  0.70435700  0.38133400  0.78407600  1
  H  1279  1  0.73629600  0.33549800  0.89113500  1
  H  1280  1  0.72463300  0.29450700  0.84108800  1
  H  1281  1  0.70655800  0.32199800  0.82108100  1
  H  1282  1  0.66529100  0.36451000  0.85059700  1
  H  1295  1  0.72826600  0.63617100  0.16848600  1
  H  1296  1  0.70445400  0.61518500  0.19250800  1
  H  1303  1  0.73653400  0.66112200  0.08549400  1
  H  1304  1  0.72468500  0.70204400  0.13557200  1
  H  1305  1  0.70666600  0.67450000  0.15553700  1
  H  1306  1  0.66554500  0.63199000  0.12592600  1
  H  1319  1  0.17290700  0.17848000  0.62623300  1
  H  1320  1  0.19667600  0.20253400  0.60524700  1
  H  1327  1  0.16470800  0.09549200  0.65110300  1
  H  1328  1  0.17638800  0.14554600  0.69208400  1
  H  1329  1  0.19447500  0.16554100  0.66458800  1
  H  1330  1  0.23574000  0.13601900  0.62210000  1
  H  1343  1  0.17278900  0.81811500  0.35036500  1
  H  1344  1  0.19658100  0.79409500  0.37136800  1
  H  1351  1  0.16454400  0.90112400  0.32545700  1
  H  1352  1  0.17636000  0.85106300  0.28451000  1
  H  1353  1  0.19437700  0.83108000  0.31204100  1
  H  1354  1  0.23551000  0.86067200  0.35457400  1
  H  1367  1  0.17292600  0.63631800  0.80812700  1
  H  1368  1  0.19667500  0.61531900  0.78407600  1
  H  1375  1  0.16475300  0.66115300  0.89113500  1
  H  1376  1  0.17640700  0.70215400  0.84109200  1
  H  1377  1  0.19448600  0.67466700  0.82108100  1
  H  1378  1  0.23576000  0.63215400  0.85058800  1
  H  1391  1  0.17276300  0.36045100  0.16848900  1
  H  1392  1  0.19657600  0.38144000  0.19251000  1
  H  1399  1  0.16449300  0.33550300  0.08549700  1
  H  1400  1  0.17633700  0.29457800  0.13557400  1
  H  1401  1  0.19435900  0.32212000  0.15554000  1
  H  1402  1  0.23548200  0.36462900  0.12592900  1
  H  1415  1  0.08481000  0.14573000  0.16682900  1
  H  1416  1  0.07919400  0.12090300  0.19412000  1
  H  1423  1  0.10751400  0.23173300  0.15754300  1
  H  1424  1  0.04737100  0.20106200  0.12455900  1
  H  1425  1  0.04671600  0.17432900  0.15001200  1
  H  1426  1  0.06192000  0.19362600  0.20740500  1
  H  1439  1  0.08484700  0.85085000  0.80987700  1
  H  1440  1  0.07924100  0.87566300  0.78257300  1
  H  1447  1  0.10750200  0.76484300  0.81918500  1
  H  1448  1  0.04741200  0.79554700  0.85219700  1
  H  1449  1  0.04674500  0.82227300  0.82673400  1
  H  1450  1  0.06187200  0.80294400  0.76934100  1
  H  1463  1  0.08481700  0.81982000  0.13570400  1
  H  1464  1  0.07920300  0.79252000  0.11088900  1
  H  1471  1  0.10752000  0.82913500  0.22170300  1
  H  1472  1  0.04739400  0.86212400  0.19101900  1
  H  1473  1  0.04672700  0.83666000  0.16429400  1
  H  1474  1  0.06190400  0.77927000  0.18361700  1
  H  1487  1  0.08484800  0.17677200  0.84082300  1
  H  1488  1  0.07923700  0.20406500  0.86564900  1
  H  1495  1  0.10750000  0.16749300  0.75481000  1
  H  1496  1  0.04739800  0.13448700  0.78550300  1
  H  1497  1  0.04674500  0.15993800  0.81224000  1
  H  1498  1  0.06189600  0.21733600  0.79293300  1
  H  1511  1  0.81620300  0.85089900  0.16682800  1
  H  1512  1  0.82182100  0.87572800  0.19411700  1
  H  1519  1  0.79350600  0.76489400  0.15754600  1
  H  1520  1  0.85364100  0.79556900  0.12455800  1
  H  1521  1  0.85429500  0.82230300  0.15001100  1
  H  1522  1  0.83909600  0.80300300  0.20740700  1
  H  1535  1  0.81618100  0.14578500  0.80988300  1
  H  1536  1  0.82179000  0.12096600  0.78258400  1
  H  1543  1  0.79352600  0.23179500  0.81917900  1
  H  1544  1  0.85362000  0.20109500  0.85219100  1
  H  1545  1  0.85428100  0.17436400  0.82673400  1
  H  1546  1  0.83914700  0.19368500  0.76933800  1
  H  1559  1  0.81621100  0.17682000  0.13571900  1
  H  1560  1  0.82182300  0.20412400  0.11090500  1
  H  1567  1  0.79351000  0.16750100  0.22171700  1
  H  1568  1  0.85363300  0.13451300  0.19102800  1
  H  1569  1  0.85430200  0.15997800  0.16430700  1
  H  1570  1  0.83912600  0.21737000  0.18363200  1
  H  1583  1  0.81618300  0.81986400  0.84082400  1
  H  1584  1  0.82179400  0.79257200  0.86565400  1
  H  1591  1  0.79353200  0.82914100  0.75481100  1
  H  1592  1  0.85363500  0.86214600  0.78550500  1
  H  1593  1  0.85428700  0.83669600  0.81224200  1
  H  1594  1  0.83913100  0.77929700  0.79293600  1
  H  1607  1  0.57383800  0.65660200  0.66782800  1
  H  1608  1  0.57066800  0.63028200  0.69384300  1
  H  1615  1  0.60066900  0.74105300  0.66123900  1
  H  1616  1  0.53760800  0.71344700  0.62893600  1
  H  1617  1  0.53573700  0.68643500  0.65404900  1
  H  1618  1  0.55479400  0.70207800  0.71222900  1
  H  1631  1  0.57384000  0.33996200  0.30887600  1
  H  1632  1  0.57063800  0.36627600  0.28285700  1
  H  1639  1  0.60069300  0.25551200  0.31544100  1
  H  1640  1  0.53766700  0.28310200  0.34779900  1
  H  1641  1  0.53575600  0.31012100  0.32269500  1
  H  1642  1  0.55472300  0.29447900  0.26450300  1
  H  1655  1  0.57377700  0.31883400  0.64658900  1
  H  1656  1  0.57061500  0.29281600  0.62027400  1
  H  1663  1  0.60062400  0.32543400  0.73103500  1
  H  1664  1  0.53757300  0.35774400  0.70342500  1
  H  1665  1  0.53568700  0.33262400  0.67642000  1
  H  1666  1  0.55473700  0.27444100  0.69207100  1
  H  1679  1  0.57388900  0.67779400  0.32994000  1
  H  1680  1  0.57068600  0.70380800  0.35625700  1
  H  1687  1  0.60073000  0.67123300  0.24548800  1
  H  1688  1  0.53769100  0.63888600  0.27307400  1
  H  1689  1  0.53579400  0.66398600  0.30009700  1
  H  1690  1  0.55476900  0.72217200  0.28446300  1
  H  1703  1  0.32719500  0.34007500  0.66778400  1
  H  1704  1  0.33036800  0.36639600  0.69379800  1
  H  1711  1  0.30036800  0.25562200  0.66121100  1
  H  1712  1  0.36342600  0.28321800  0.62889600  1
  H  1713  1  0.36530100  0.31023700  0.65400100  1
  H  1714  1  0.34626300  0.29460300  0.71218200  1
  H  1727  1  0.32719700  0.65666600  0.30888300  1
  H  1728  1  0.33039700  0.63035600  0.28286200  1
  H  1735  1  0.30034700  0.74111500  0.31546000  1
  H  1736  1  0.36336700  0.71351800  0.34782000  1
  H  1737  1  0.36527900  0.68650400  0.32271000  1
  H  1738  1  0.34632000  0.70215400  0.26452000  1
  H  1751  1  0.32723900  0.67775100  0.64654300  1
  H  1752  1  0.33040900  0.70377000  0.62022900  1
  H  1759  1  0.30040600  0.67116300  0.73099400  1
  H  1760  1  0.36344500  0.63883800  0.70338500  1
  H  1761  1  0.36533500  0.66395200  0.67637500  1
  H  1762  1  0.34631000  0.72213600  0.69202500  1
  H  1775  1  0.32714400  0.31885100  0.32994800  1
  H  1776  1  0.33034800  0.29283800  0.35626500  1
  H  1783  1  0.30030100  0.32540900  0.24549400  1
  H  1784  1  0.36333700  0.35776000  0.27307800  1
  H  1785  1  0.36523600  0.33266100  0.30010300  1
  H  1786  1  0.34626500  0.27447400  0.28447100  1
  H  1799  1  0.93116500  0.08743800  0.24283100  1
  H  1800  1  0.88655300  0.09234600  0.23310800  1
  H  1807  1  0.01163700  0.07572100  0.26674900  1
  H  1808  1  0.00290100  0.14047300  0.27099100  1
  H  1809  1  0.95704200  0.13654500  0.27593700  1
  H  1810  1  0.91812000  0.12055600  0.29809900  1
  H  1823  1  0.93121600  0.90916600  0.73376200  1
  H  1824  1  0.88658900  0.90427100  0.74344700  1
  H  1831  1  0.01173500  0.92085200  0.70992600  1
  H  1832  1  0.00295700  0.85610100  0.70566700  1
  H  1833  1  0.95710700  0.86005100  0.70067500  1
  H  1834  1  0.91823400  0.87605700  0.67848000  1
  H  1847  1  0.93117900  0.74376700  0.07749300  1
  H  1848  1  0.88656900  0.75348900  0.08241100  1
  H  1855  1  0.01164400  0.71985700  0.06575000  1
  H  1856  1  0.00294100  0.71562600  0.13050600  1
  H  1857  1  0.95708100  0.71066900  0.12659300  1
  H  1858  1  0.91815300  0.68850000  0.11061700  1
  H  1871  1  0.93119500  0.25283900  0.89921200  1
  H  1872  1  0.88656500  0.24315600  0.89432500  1
  H  1879  1  0.01172200  0.27668200  0.91087700  1
  H  1880  1  0.00292100  0.28094600  0.84612800  1
  H  1881  1  0.95707100  0.28593000  0.85008900  1
  H  1882  1  0.91820400  0.30812000  0.86610100  1
  H  1895  1  0.96986500  0.90919500  0.24282300  1
  H  1896  1  0.01447700  0.90428800  0.23310000  1
  H  1903  1  0.88939100  0.92091100  0.26674200  1
  H  1904  1  0.89812500  0.85616000  0.27098000  1
  H  1905  1  0.94398400  0.86008700  0.27592600  1
  H  1906  1  0.98290700  0.87607400  0.29809000  1
  H  1919  1  0.96982200  0.08746100  0.73376500  1
  H  1920  1  0.01444900  0.09235700  0.74344500  1
  H  1927  1  0.88929900  0.07577500  0.70993200  1
  H  1928  1  0.89807400  0.14052600  0.70568100  1
  H  1929  1  0.94392300  0.13657800  0.70068600  1
  H  1930  1  0.98279300  0.12057500  0.67848500  1
  H  1943  1  0.96983400  0.25287300  0.07750300  1
  H  1944  1  0.01444400  0.24314700  0.08241600  1
  H  1951  1  0.88937400  0.27678900  0.06577000  1
  H  1952  1  0.89808800  0.28102200  0.13052200  1
  H  1953  1  0.94394700  0.28597600  0.12660500  1
  H  1954  1  0.98287500  0.30814000  0.11062400  1
  H  1967  1  0.96984200  0.74380300  0.89922600  1
  H  1968  1  0.01447000  0.75348600  0.89434200  1
  H  1975  1  0.88931100  0.71995900  0.91088500  1
  H  1976  1  0.89812100  0.71569900  0.84613600  1
  H  1977  1  0.94397100  0.71071700  0.85010000  1
  H  1978  1  0.98283400  0.68852400  0.86611300  1
  H  1991  1  0.43501200  0.58969000  0.75235900  1
  H  1992  1  0.39034700  0.59472500  0.74333700  1
  H  1999  1  0.51600400  0.57981100  0.77047300  1
  H  2000  1  0.50478000  0.64401300  0.77809100  1
  H  2001  1  0.46007600  0.63839000  0.78637400  1
  H  2002  1  0.42285600  0.62082700  0.80890300  1
  H  2015  1  0.43488200  0.40689100  0.22421000  1
  H  2016  1  0.39019400  0.40185500  0.23315400  1
  H  2023  1  0.51594300  0.41675700  0.20621600  1
  H  2024  1  0.50473500  0.35254400  0.19862200  1
  H  2025  1  0.46004700  0.35816400  0.19027700  1
  H  2026  1  0.42289900  0.37571000  0.16766800  1
  H  2039  1  0.43499800  0.23425200  0.57975200  1
  H  2040  1  0.39033600  0.24327400  0.58480300  1
  H  2047  1  0.51597400  0.21615000  0.56983200  1
  H  2048  1  0.50479400  0.20852800  0.63403900  1
  H  2049  1  0.46009000  0.20023200  0.62843300  1
  H  2050  1  0.42285800  0.17770000  0.61087700  1
  H  2063  1  0.43490800  0.76240100  0.39694700  1
  H  2064  1  0.39021900  0.75345000  0.39192900  1
  H  2071  1  0.51597800  0.78041000  0.40677200  1
  H  2072  1  0.50472300  0.78801000  0.34256500  1
  H  2073  1  0.46003300  0.79634000  0.34820500  1
  H  2074  1  0.42289600  0.81893800  0.36576500  1
  H  2087  1  0.46604300  0.40696100  0.75236800  1
  H  2088  1  0.51071000  0.40190700  0.74335900  1
  H  2095  1  0.38504600  0.41686700  0.77045900  1
  H  2096  1  0.39623000  0.35265300  0.77804400  1
  H  2097  1  0.44093200  0.35825700  0.78634700  1
  H  2098  1  0.47814600  0.37579800  0.80890600  1
  H  2111  1  0.46615100  0.58974600  0.22420800  1
  H  2112  1  0.51084000  0.59478200  0.23315300  1
  H  2119  1  0.38508900  0.57988200  0.20621600  1
  H  2120  1  0.39629700  0.64409600  0.19862500  1
  H  2121  1  0.44098500  0.63847500  0.19027700  1
  H  2122  1  0.47813200  0.62092900  0.16766700  1
  H  2135  1  0.46606300  0.76238100  0.57972600  1
  H  2136  1  0.51073000  0.75337600  0.58479100  1
  H  2143  1  0.38507500  0.78046100  0.56978700  1
  H  2144  1  0.39622200  0.78804400  0.63400600  1
  H  2145  1  0.44092400  0.79636000  0.62841800  1
  H  2146  1  0.47814600  0.81892400  0.61088400  1
  H  2159  1  0.46613600  0.23422600  0.39693600  1
  H  2160  1  0.51082400  0.24317300  0.39191200  1
  H  2167  1  0.38506100  0.21622400  0.40676900  1
  H  2168  1  0.39630400  0.20863000  0.34255900  1
  H  2169  1  0.44099500  0.20029600  0.34819400  1
  H  2170  1  0.47813200  0.17769100  0.36574700  1
  C  1  1  0.10874500  0.09977200  0.26920700  1
  C  2  1  0.12359600  0.11424700  0.28066500  1
  C  3  1  0.14755100  0.10850700  0.29008900  1
  C  4  1  0.15698500  0.08814100  0.28731200  1
  C  5  1  0.14273100  0.07365200  0.27544100  1
  C  6  1  0.11826000  0.07934100  0.26659600  1
  C  9  1  0.08513900  0.10642600  0.25976400  1
  C  10  1  0.06016100  0.10250600  0.26874600  1
  C  11  1  0.03720000  0.11127400  0.25983200  1
  C  12  1  0.03977400  0.12371300  0.24189600  1
  C  13  1  0.06453500  0.12780000  0.23299500  1
  C  14  1  0.08714400  0.11905200  0.24200700  1
  C  21  1  0.10881800  0.89677900  0.70752300  1
  C  22  1  0.12372500  0.88230500  0.69610800  1
  C  23  1  0.14766300  0.88807500  0.68667300  1
  C  24  1  0.15705100  0.90845500  0.68943700  1
  C  25  1  0.14275800  0.92293200  0.70129100  1
  C  26  1  0.11828800  0.91722300  0.71012400  1
  C  29  1  0.08520500  0.89010200  0.71694100  1
  C  30  1  0.06023600  0.89404700  0.70795500  1
  C  31  1  0.03726100  0.88528700  0.71685400  1
  C  32  1  0.03980800  0.87285300  0.73479700  1
  C  33  1  0.06455900  0.86875100  0.74370700  1
  C  34  1  0.08718600  0.87747500  0.73469800  1
  C  41  1  0.10876800  0.71743000  0.08980100  1
  C  42  1  0.12361100  0.70597600  0.10428400  1
  C  43  1  0.14757000  0.69655100  0.09855300  1
  C  44  1  0.15701700  0.69932800  0.07819100  1
  C  45  1  0.14277100  0.71119400  0.06369500  1
  C  46  1  0.11829500  0.72003900  0.06937400  1
  C  49  1  0.08515700  0.72687100  0.09644600  1
  C  50  1  0.06018400  0.71787900  0.09253200  1
  C  51  1  0.03721900  0.72679100  0.10129400  1
  C  52  1  0.03978300  0.74473700  0.11372100  1
  C  53  1  0.06453900  0.75364900  0.11780300  1
  C  54  1  0.08715300  0.74463800  0.10906000  1
  C  61  1  0.10879300  0.27911600  0.88680800  1
  C  62  1  0.12370600  0.29053500  0.87234200  1
  C  63  1  0.14764000  0.29997200  0.87812100  1
  C  64  1  0.15701700  0.29720600  0.89850400  1
  C  65  1  0.14271800  0.28534900  0.91297400  1
  C  66  1  0.11825300  0.27651100  0.90725600  1
  C  69  1  0.08518700  0.26969500  0.88012300  1
  C  70  1  0.06021200  0.27867000  0.88407200  1
  C  71  1  0.03724300  0.26976800  0.87530600  1
  C  72  1  0.03980100  0.25183400  0.86285800  1
  C  73  1  0.06455800  0.24293600  0.85875300  1
  C  74  1  0.08717900  0.25194600  0.86748400  1
  C  81  1  0.79228200  0.89686300  0.26920700  1
  C  82  1  0.77743600  0.88238700  0.28066900  1
  C  83  1  0.75348400  0.88812700  0.29009800  1
  C  84  1  0.74404700  0.90849200  0.28732000  1
  C  85  1  0.75829700  0.92298200  0.27544600  1
  C  86  1  0.78276500  0.91729200  0.26659600  1
  C  89  1  0.81588600  0.89020900  0.25976300  1
  C  90  1  0.84086700  0.89412800  0.26874100  1
  C  91  1  0.86382500  0.88535900  0.25982600  1
  C  92  1  0.86124900  0.87291900  0.24188900  1
  C  93  1  0.83648600  0.86883100  0.23299200  1
  C  94  1  0.81387900  0.87758000  0.24200600  1
  C  101  1  0.79221700  0.09984900  0.70752600  1
  C  102  1  0.77732000  0.11432300  0.69610200  1
  C  103  1  0.75338700  0.10855300  0.68665900  1
  C  104  1  0.74399000  0.08817600  0.68942500  1
  C  105  1  0.75827200  0.07370000  0.70128800  1
  C  106  1  0.78273900  0.07940600  0.71012900  1
  C  109  1  0.81582700  0.10652200  0.71694700  1
  C  110  1  0.84079800  0.10257800  0.70796200  1
  C  111  1  0.86377000  0.11133800  0.71686300  1
  C  112  1  0.86122200  0.12377300  0.73480600  1
  C  113  1  0.83646900  0.12787400  0.74371500  1
  C  114  1  0.81384300  0.11915000  0.73470400  1
  C  121  1  0.79225100  0.27920000  0.08980500  1
  C  122  1  0.77740000  0.29065300  0.10428300  1
  C  123  1  0.75344200  0.30007400  0.09854700  1
  C  124  1  0.74400400  0.29729600  0.07818300  1
  C  125  1  0.75825600  0.28542900  0.06369100  1
  C  126  1  0.78273200  0.27658700  0.06937500  1
  C  129  1  0.81586400  0.26976400  0.09645400  1
  C  130  1  0.84083600  0.27876100  0.09254400  1
  C  131  1  0.86380000  0.26985600  0.10131100  1
  C  132  1  0.86124000  0.25191000  0.11374100  1
  C  133  1  0.83648500  0.24299500  0.11782000  1
  C  134  1  0.81387100  0.25200000  0.10907200  1
  C  141  1  0.79224500  0.71751400  0.88681100  1
  C  142  1  0.77734100  0.70608700  0.87234500  1
  C  143  1  0.75341300  0.69664300  0.87812400  1
  C  144  1  0.74403000  0.69941000  0.89850600  1
  C  145  1  0.75831900  0.71127600  0.91297400  1
  C  146  1  0.78277900  0.72012000  0.90725600  1
  C  149  1  0.81585000  0.72694000  0.88012800  1
  C  150  1  0.84082600  0.71796700  0.88407800  1
  C  151  1  0.86379400  0.72687100  0.87531200  1
  C  152  1  0.86123200  0.74480500  0.86286500  1
  C  153  1  0.83647500  0.75370100  0.85875800  1
  C  154  1  0.81385500  0.74468700  0.86748900  1
  C  161  1  0.77873100  0.89233800  0.71682300  1
  C  162  1  0.76496900  0.88072900  0.70186600  1
  C  163  1  0.74402800  0.88954900  0.69050100  1
  C  164  1  0.73727200  0.91044200  0.69426900  1
  C  165  1  0.75094500  0.92242600  0.70909400  1
  C  166  1  0.77137800  0.91305700  0.72076200  1
  C  169  1  0.80233600  0.88427200  0.72505300  1
  C  170  1  0.82691200  0.88983800  0.71628600  1
  C  171  1  0.85042000  0.88183300  0.72481800  1
  C  172  1  0.84900300  0.86811000  0.74183200  1
  C  173  1  0.82461800  0.86227200  0.75063400  1
  C  174  1  0.80132700  0.87047600  0.74194200  1
  C  181  1  0.77866400  0.10429800  0.25966800  1
  C  182  1  0.76493100  0.11593100  0.27462700  1
  C  183  1  0.74404300  0.10710200  0.28605200  1
  C  184  1  0.73727600  0.08620800  0.28230900  1
  C  185  1  0.75089800  0.07423000  0.26745400  1
  C  186  1  0.77130400  0.08357900  0.25574600  1
  C  189  1  0.80227900  0.11235800  0.25144700  1
  C  190  1  0.82684700  0.10678500  0.26022400  1
  C  191  1  0.85036500  0.11479200  0.25170700  1
  C  192  1  0.84896500  0.12851600  0.23469300  1
  C  193  1  0.82458800  0.13436500  0.22588700  1
  C  194  1  0.80128900  0.12615500  0.23455900  1
  C  201  1  0.77869700  0.26978000  0.88236700  1
  C  202  1  0.76493900  0.28472900  0.87074500  1
  C  203  1  0.74399000  0.29609600  0.87955500  1
  C  204  1  0.73722400  0.29233600  0.90044600  1
  C  205  1  0.75089400  0.27751800  0.91244200  1
  C  206  1  0.77133500  0.26584800  0.90308500  1
  C  209  1  0.80230900  0.26154600  0.87431100  1
  C  210  1  0.82688300  0.27031300  0.87988600  1
  C  211  1  0.85039400  0.26178000  0.87188500  1
  C  212  1  0.84898300  0.24476800  0.85816200  1
  C  213  1  0.82460000  0.23596600  0.85231800  1
  C  214  1  0.80130700  0.24465700  0.86051600  1
  C  221  1  0.77869500  0.72692400  0.09433800  1
  C  222  1  0.76495700  0.71195800  0.10595600  1
  C  223  1  0.74407700  0.70053600  0.09711300  1
  C  224  1  0.73732500  0.70428600  0.07621700  1
  C  225  1  0.75095500  0.71914900  0.06425200  1
  C  226  1  0.77135100  0.73085600  0.07361700  1
  C  229  1  0.80230500  0.73514200  0.10241100  1
  C  230  1  0.82687700  0.72636500  0.09684800  1
  C  231  1  0.85038800  0.73488500  0.10486000  1
  C  232  1  0.84898100  0.75190200  0.11858000  1
  C  233  1  0.82459800  0.76070800  0.12442000  1
  C  234  1  0.80130500  0.75203300  0.11620500  1
  C  241  1  0.12230400  0.10429600  0.71682100  1
  C  242  1  0.13606800  0.11590700  0.70186700  1
  C  243  1  0.15701100  0.10708600  0.69050400  1
  C  244  1  0.16376500  0.08619300  0.69427000  1
  C  245  1  0.15008700  0.07420700  0.70909100  1
  C  246  1  0.12965300  0.08357600  0.72075900  1
  C  249  1  0.09869800  0.11236200  0.72505200  1
  C  250  1  0.07412200  0.10679400  0.71628600  1
  C  251  1  0.05061400  0.11480000  0.72481800  1
  C  252  1  0.05203000  0.12852300  0.74183000  1
  C  253  1  0.07641500  0.13436100  0.75063200  1
  C  254  1  0.09970600  0.12615800  0.74194000  1
  C  261  1  0.12236400  0.89233500  0.25966000  1
  C  262  1  0.13610100  0.88070100  0.27461600  1
  C  263  1  0.15699000  0.88952900  0.28603900  1
  C  264  1  0.16375600  0.91042500  0.28229800  1
  C  265  1  0.15012900  0.92240400  0.26744600  1
  C  266  1  0.12972200  0.91305400  0.25573800  1
  C  269  1  0.09874800  0.88427500  0.25143900  1
  C  270  1  0.07418000  0.88984600  0.26021600  1
  C  271  1  0.05066300  0.88183900  0.25169900  1
  C  272  1  0.05206300  0.86811700  0.23468400  1
  C  273  1  0.07644100  0.86226800  0.22587800  1
  C  274  1  0.09973900  0.87047900  0.23454900  1
  C  281  1  0.12234100  0.72687000  0.88237800  1
  C  282  1  0.13610100  0.71192300  0.87075300  1
  C  283  1  0.15705200  0.70055900  0.87955900  1
  C  284  1  0.16381900  0.70431400  0.90045200  1
  C  285  1  0.15014700  0.71912900  0.91245200  1
  C  286  1  0.12970500  0.73079800  0.90309700  1
  C  289  1  0.09872900  0.73510200  0.87432500  1
  C  290  1  0.07415600  0.72633400  0.87990200  1
  C  291  1  0.05064300  0.73486500  0.87190200  1
  C  292  1  0.05205100  0.75187500  0.85817600  1
  C  293  1  0.07643400  0.76067700  0.85232800  1
  C  294  1  0.09972800  0.75198900  0.86052600  1
  C  301  1  0.12232500  0.26970300  0.09433700  1
  C  302  1  0.13606500  0.28466700  0.10595700  1
  C  303  1  0.15694600  0.29608800  0.09711400  1
  C  304  1  0.16369900  0.29233700  0.07621900  1
  C  305  1  0.15006800  0.27747600  0.06425300  1
  C  306  1  0.12967000  0.26577100  0.07361600  1
  C  309  1  0.09871500  0.26148400  0.10241000  1
  C  310  1  0.07414400  0.27026500  0.09684700  1
  C  311  1  0.05063200  0.26174600  0.10486100  1
  C  312  1  0.05203700  0.24472900  0.11858000  1
  C  313  1  0.07641900  0.23592000  0.12441900  1
  C  314  1  0.09971300  0.24459300  0.11620200  1
  C  321  1  0.61070200  0.60345700  0.76179500  1
  C  322  1  0.62770500  0.61660200  0.77294800  1
  C  323  1  0.65233200  0.60944200  0.77997200  1
  C  324  1  0.66041500  0.58917500  0.77494400  1
  C  325  1  0.64383900  0.57596900  0.76340400  1
  C  326  1  0.61868400  0.58301200  0.75703400  1
  C  329  1  0.58576600  0.61113000  0.75595600  1
  C  330  1  0.56279600  0.60680300  0.76765500  1
  C  331  1  0.53856100  0.61638400  0.76239500  1
  C  332  1  0.53796800  0.63022000  0.74537000  1
  C  333  1  0.56080400  0.63488700  0.73391300  1
  C  334  1  0.58463300  0.62518300  0.73928400  1
  C  341  1  0.61063500  0.39309400  0.21490900  1
  C  342  1  0.62769000  0.37995300  0.20379600  1
  C  343  1  0.65228900  0.38715800  0.19675100  1
  C  344  1  0.66031200  0.40744600  0.20175000  1
  C  345  1  0.64370900  0.42062200  0.21329400  1
  C  346  1  0.61856400  0.41355500  0.21966000  1
  C  349  1  0.58570700  0.38539300  0.22073500  1
  C  350  1  0.56273300  0.38974300  0.20905000  1
  C  351  1  0.53849200  0.38017300  0.21431800  1
  C  352  1  0.53789700  0.36633700  0.23134400  1
  C  353  1  0.56073400  0.36166000  0.24279400  1
  C  354  1  0.58457200  0.37134000  0.23740600  1
  C  361  1  0.61068000  0.22487400  0.59346400  1
  C  362  1  0.62768600  0.21372600  0.60661300  1
  C  363  1  0.65231900  0.20671000  0.59945700  1
  C  364  1  0.66040500  0.21174100  0.57919000  1
  C  365  1  0.64382500  0.22327600  0.56598200  1
  C  366  1  0.61866600  0.22963900  0.57302000  1
  C  369  1  0.58574000  0.23070600  0.60113200  1
  C  370  1  0.56278000  0.21899100  0.59681400  1
  C  371  1  0.53854300  0.22424200  0.60639600  1
  C  372  1  0.53793700  0.24127200  0.62022600  1
  C  373  1  0.56076300  0.25274500  0.62488500  1
  C  374  1  0.58459300  0.24738200  0.61518100  1
  C  381  1  0.61065900  0.77176000  0.38309300  1
  C  382  1  0.62771700  0.78287400  0.36995600  1
  C  383  1  0.65231300  0.78992300  0.37716900  1
  C  384  1  0.66032400  0.78492900  0.39745900  1
  C  385  1  0.64371700  0.77338600  0.41063400  1
  C  386  1  0.61857800  0.76701500  0.40355900  1
  C  389  1  0.58573500  0.76593100  0.37538800  1
  C  390  1  0.56275300  0.77760300  0.37974600  1
  C  391  1  0.53851100  0.77232700  0.37017700  1
  C  392  1  0.53792700  0.75530900  0.35633300  1
  C  393  1  0.56077300  0.74387100  0.35164900  1
  C  394  1  0.58460900  0.74926500  0.36132700  1
  C  401  1  0.29033000  0.39318500  0.76177400  1
  C  402  1  0.27334000  0.38002400  0.77292300  1
  C  403  1  0.24870900  0.38716900  0.77995600  1
  C  404  1  0.24061100  0.40743600  0.77494200  1
  C  405  1  0.25717300  0.42065800  0.76340600  1
  C  406  1  0.28233200  0.41362900  0.75702700  1
  C  409  1  0.31527000  0.38552900  0.75592600  1
  C  410  1  0.33824000  0.38985900  0.76762400  1
  C  411  1  0.36247900  0.38028800  0.76235700  1
  C  412  1  0.36307700  0.36646200  0.74532400  1
  C  413  1  0.34024300  0.36179200  0.73386800  1
  C  414  1  0.31640900  0.37148300  0.73924700  1
  C  421  1  0.29039800  0.60354800  0.21491400  1
  C  422  1  0.27334000  0.61669100  0.20380600  1
  C  423  1  0.24873900  0.60948500  0.19676400  1
  C  424  1  0.24071900  0.58919600  0.20175800  1
  C  425  1  0.25732700  0.57601700  0.21329600  1
  C  426  1  0.28247200  0.58308400  0.21966000  1
  C  429  1  0.31532700  0.61124700  0.22073800  1
  C  430  1  0.33829900  0.60689800  0.20905300  1
  C  431  1  0.36254200  0.61646600  0.21432100  1
  C  432  1  0.36313800  0.63030100  0.23134700  1
  C  433  1  0.34030200  0.63497700  0.24279800  1
  C  434  1  0.31646200  0.62529900  0.23741100  1
  C  441  1  0.29035100  0.77173700  0.59345500  1
  C  442  1  0.27336000  0.78288300  0.60661400  1
  C  443  1  0.24872300  0.78990900  0.59947200  1
  C  444  1  0.24062300  0.78488900  0.57920700  1
  C  445  1  0.25718700  0.77335500  0.56598700  1
  C  446  1  0.28235000  0.76698400  0.57301100  1
  C  449  1  0.31529500  0.76589600  0.60110900  1
  C  450  1  0.33825500  0.77760400  0.59678700  1
  C  451  1  0.36249700  0.77234500  0.60635900  1
  C  452  1  0.36310500  0.75530700  0.62017800  1
  C  453  1  0.34027600  0.74384000  0.62484200  1
  C  454  1  0.31644200  0.74921400  0.61515000  1
  C  461  1  0.29037700  0.22487700  0.38309000  1
  C  462  1  0.27332100  0.21376500  0.36995000  1
  C  463  1  0.24872500  0.20671300  0.37715600  1
  C  464  1  0.24070700  0.21170200  0.39744700  1
  C  465  1  0.25731100  0.22324400  0.41062600  1
  C  466  1  0.28245200  0.22961700  0.40355600  1
  C  469  1  0.31530100  0.23070900  0.37539000  1
  C  470  1  0.33828300  0.21903600  0.37974600  1
  C  471  1  0.36252200  0.22431400  0.37017900  1
  C  472  1  0.36310900  0.24133500  0.35633800  1
  C  473  1  0.34026500  0.25277400  0.35165500  1
  C  474  1  0.31642900  0.24737700  0.36133400  1
  C  481  1  0.28346700  0.39263100  0.21249400  1
  C  482  1  0.26727900  0.38377000  0.19720700  1
  C  483  1  0.24539700  0.39468400  0.18939400  1
  C  484  1  0.23982200  0.41466600  0.19701600  1
  C  485  1  0.25604000  0.42397500  0.21222000  1
  C  486  1  0.27757500  0.41253600  0.22032900  1
  C  489  1  0.30729000  0.38268800  0.21768900  1
  C  490  1  0.33102500  0.38836800  0.20766200  1
  C  491  1  0.35499900  0.37926400  0.21397600  1
  C  492  1  0.35487300  0.36432400  0.22996100  1
  C  493  1  0.33132400  0.35840500  0.23998900  1
  C  494  1  0.30752200  0.36770700  0.23357100  1
  C  501  1  0.28353000  0.60398500  0.76399100  1
  C  502  1  0.26737100  0.61291400  0.77926000  1
  C  503  1  0.24549200  0.60203800  0.78713100  1
  C  504  1  0.23987900  0.58203400  0.77957900  1
  C  505  1  0.25605200  0.57268000  0.76437800  1
  C  506  1  0.27760100  0.58406500  0.75621400  1
  C  509  1  0.30737000  0.61389100  0.75877400  1
  C  510  1  0.33110200  0.60819800  0.76880100  1
  C  511  1  0.35508300  0.61728500  0.76248000  1
  C  512  1  0.35496900  0.63222800  0.74649700  1
  C  513  1  0.33142500  0.63815900  0.73647100  1
  C  514  1  0.30761800  0.62886300  0.74288500  1
  C  521  1  0.28346500  0.77411500  0.38265800  1
  C  522  1  0.26729100  0.78939500  0.37377000  1
  C  523  1  0.24538700  0.79721200  0.38465300  1
  C  524  1  0.23977500  0.78959900  0.40463500  1
  C  525  1  0.25597700  0.77440300  0.41397000  1
  C  526  1  0.27753800  0.76629100  0.40256200  1
  C  529  1  0.30729900  0.76890900  0.37274000  1
  C  530  1  0.33103100  0.77893400  0.37843100  1
  C  531  1  0.35501100  0.77261800  0.36933900  1
  C  532  1  0.35489500  0.75663400  0.35439900  1
  C  533  1  0.33135000  0.74660700  0.34846800  1
  C  534  1  0.30754300  0.75302800  0.35776000  1
  C  541  1  0.28354000  0.22262600  0.59400900  1
  C  542  1  0.26736900  0.20734900  0.60291200  1
  C  543  1  0.24551100  0.19948100  0.59200700  1
  C  544  1  0.23993200  0.20704300  0.57200200  1
  C  545  1  0.25612100  0.22225100  0.56267500  1
  C  546  1  0.27764400  0.23041200  0.57408700  1
  C  549  1  0.30736600  0.22783200  0.60394000  1
  C  550  1  0.33110200  0.21780400  0.59826000  1
  C  551  1  0.35507600  0.22412200  0.60735900  1
  C  552  1  0.35495400  0.24010200  0.62230200  1
  C  553  1  0.33140500  0.25013400  0.62822100  1
  C  554  1  0.30760600  0.24372100  0.61891300  1
  C  561  1  0.61756200  0.60400500  0.21249700  1
  C  562  1  0.63374900  0.61285900  0.19720500  1
  C  563  1  0.65563100  0.60194400  0.18939600  1
  C  564  1  0.66120800  0.58196300  0.19702500  1
  C  565  1  0.64499200  0.57266100  0.21223200  1
  C  566  1  0.62345600  0.58410300  0.22034000  1
  C  569  1  0.59374200  0.61395000  0.21768900  1
  C  570  1  0.57000700  0.60827000  0.20766200  1
  C  571  1  0.54603300  0.61737500  0.21397400  1
  C  572  1  0.54615900  0.63231700  0.22995600  1
  C  573  1  0.56970600  0.63823700  0.23998600  1
  C  574  1  0.59350800  0.62893200  0.23356900  1
  C  581  1  0.61749600  0.39263400  0.76399700  1
  C  582  1  0.63366000  0.38371900  0.77927200  1
  C  583  1  0.65553600  0.39460500  0.78713200  1
  C  584  1  0.66114100  0.41460400  0.77956600  1
  C  585  1  0.64496200  0.42394400  0.76436000  1
  C  586  1  0.62341700  0.41255000  0.75620700  1
  C  589  1  0.59365800  0.38272000  0.75879100  1
  C  590  1  0.56992800  0.38841600  0.76881800  1
  C  591  1  0.54594600  0.37932400  0.76250500  1
  C  592  1  0.54605700  0.36437200  0.74653300  1
  C  593  1  0.56959900  0.35843600  0.73650500  1
  C  594  1  0.59340600  0.36773800  0.74291100  1
  C  601  1  0.61756600  0.22251400  0.38264600  1
  C  602  1  0.63374500  0.20723000  0.37376700  1
  C  603  1  0.65564400  0.19941900  0.38465900  1
  C  604  1  0.66124900  0.20703800  0.40463800  1
  C  605  1  0.64504500  0.22223900  0.41396300  1
  C  606  1  0.62348800  0.23034800  0.40254600  1
  C  609  1  0.59373600  0.22771400  0.37272100  1
  C  610  1  0.57000300  0.21768900  0.37841100  1
  C  611  1  0.54602300  0.22400200  0.36931600  1
  C  612  1  0.54614100  0.23998800  0.35437600  1
  C  613  1  0.56968400  0.25001500  0.34844700  1
  C  614  1  0.59349200  0.24359600  0.35773900  1
  C  621  1  0.61749600  0.77401900  0.59402000  1
  C  622  1  0.63367000  0.78929900  0.60291500  1
  C  623  1  0.65552600  0.79716100  0.59200500  1
  C  624  1  0.66110000  0.78959100  0.57200200  1
  C  625  1  0.64490900  0.77438000  0.56268100  1
  C  626  1  0.62338600  0.76622600  0.57410000  1
  C  629  1  0.59366900  0.76881900  0.60395400  1
  C  630  1  0.56993400  0.77884500  0.59826900  1
  C  631  1  0.54596000  0.77253100  0.60737100  1
  C  632  1  0.54608200  0.75655800  0.62232300  1
  C  633  1  0.56962900  0.74653000  0.62824700  1
  C  634  1  0.59342900  0.75293800  0.61893400  1
  C  641  1  0.15139000  0.05289300  0.27484700  1
  C  642  1  0.16377400  0.04403300  0.25717200  1
  C  643  1  0.16809800  0.02244300  0.25671500  1
  C  644  1  0.16057100  0.00968600  0.27347500  1
  C  645  1  0.15001300  0.01899700  0.29143800  1
  C  646  1  0.14535900  0.04035500  0.29210000  1
  C  649  1  0.15936800  0.98785700  0.27119400  1
  C  650  1  0.18169200  0.97536800  0.26683200  1
  C  651  1  0.17849300  0.95361000  0.26512400  1
  C  652  1  0.15352400  0.94422600  0.26740000  1
  C  653  1  0.13160100  0.95693200  0.27169200  1
  C  654  1  0.13442400  0.97839600  0.27330600  1
  C  665  1  0.15136700  0.94370400  0.70187200  1
  C  666  1  0.16373200  0.95259400  0.71954100  1
  C  667  1  0.16804000  0.97418800  0.71997000  1
  C  668  1  0.16052300  0.98691700  0.70318700  1
  C  669  1  0.14998600  0.97757700  0.68523100  1
  C  670  1  0.14534700  0.95621600  0.68459800  1
  C  673  1  0.15932100  0.00875100  0.70543000  1
  C  674  1  0.18164200  0.02124300  0.70979300  1
  C  675  1  0.17844600  0.04300300  0.71146800  1
  C  676  1  0.15348100  0.05238700  0.70915800  1
  C  677  1  0.13156200  0.03967900  0.70486200  1
  C  678  1  0.13438300  0.01821200  0.70328100  1
  C  689  1  0.15143800  0.71178300  0.04293800  1
  C  690  1  0.16380800  0.72945700  0.03406900  1
  C  691  1  0.16813600  0.72990500  0.01247900  1
  C  692  1  0.16062600  0.71313300  0.99973100  1
  C  693  1  0.15008600  0.69516800  0.00905200  1
  C  694  1  0.14542900  0.69451600  0.03041000  1
  C  697  1  0.15941500  0.71540300  0.97790000  1
  C  698  1  0.18173000  0.71977900  0.96540700  1
  C  699  1  0.17852200  0.72147800  0.94364800  1
  C  700  1  0.15355200  0.71918000  0.93427000  1
  C  701  1  0.13163900  0.71487200  0.94698100  1
  C  702  1  0.13447100  0.71326800  0.96844500  1
  C  713  1  0.15132000  0.28475900  0.93374900  1
  C  714  1  0.16370000  0.26709200  0.94262800  1
  C  715  1  0.16800600  0.26665000  0.96422000  1
  C  716  1  0.16046900  0.28341900  0.97696200  1
  C  717  1  0.14991200  0.30137500  0.96763200  1
  C  718  1  0.14527700  0.30202000  0.94627000  1
  C  721  1  0.15927500  0.28116300  0.99879300  1
  C  722  1  0.18160500  0.27681500  0.01128000  1
  C  723  1  0.17841700  0.27513000  0.03304000  1
  C  724  1  0.15345200  0.27741600  0.04243000  1
  C  725  1  0.13152400  0.28169600  0.02972700  1
  C  726  1  0.13433600  0.28328800  0.00825900  1
  C  737  1  0.74963600  0.94374000  0.27485300  1
  C  738  1  0.73725000  0.95260000  0.25718000  1
  C  739  1  0.73292400  0.97419000  0.25672300  1
  C  740  1  0.74045600  0.98694700  0.27348100  1
  C  741  1  0.75101800  0.97763500  0.29144200  1
  C  742  1  0.75567200  0.95627800  0.29210500  1
  C  745  1  0.74166000  0.00877600  0.27120000  1
  C  746  1  0.71933600  0.02126600  0.26684100  1
  C  747  1  0.72253400  0.04302300  0.26513300  1
  C  748  1  0.74750300  0.05240800  0.26740600  1
  C  749  1  0.76942600  0.03970100  0.27169500  1
  C  750  1  0.76660400  0.01823700  0.27330900  1
  C  761  1  0.74966000  0.05292800  0.70187000  1
  C  762  1  0.73728700  0.04404000  0.71953600  1
  C  763  1  0.73298000  0.02244700  0.71996800  1
  C  764  1  0.74050300  0.00971500  0.70318800  1
  C  765  1  0.75104500  0.01905400  0.68523300  1
  C  766  1  0.75568400  0.04041400  0.68459700  1
  C  769  1  0.74170500  0.98788200  0.70543500  1
  C  770  1  0.71938500  0.97538800  0.70979400  1
  C  771  1  0.72258300  0.95362900  0.71146800  1
  C  772  1  0.74755000  0.94424600  0.70916400  1
  C  773  1  0.76946900  0.95695500  0.70487300  1
  C  774  1  0.76664700  0.97842200  0.70329000  1
  C  785  1  0.74959700  0.28484200  0.04293100  1
  C  786  1  0.73723000  0.26716600  0.03405900  1
  C  787  1  0.73290900  0.26672000  0.01246800  1
  C  788  1  0.74041800  0.28349400  0.99972300  1
  C  789  1  0.75095700  0.30145800  0.00904700  1
  C  790  1  0.75561100  0.30210900  0.03040600  1
  C  793  1  0.74162900  0.28122800  0.97789200  1
  C  794  1  0.71931400  0.27685700  0.96539700  1
  C  795  1  0.72252200  0.27516300  0.94363900  1
  C  796  1  0.74748900  0.27746200  0.93426100  1
  C  797  1  0.76940500  0.28176600  0.94697300  1
  C  798  1  0.76657300  0.28336500  0.96843700  1
  C  809  1  0.74971300  0.71186600  0.93374700  1
  C  810  1  0.73732700  0.72953200  0.94262600  1
  C  811  1  0.73301900  0.72997300  0.96421900  1
  C  812  1  0.74056000  0.71320600  0.97696000  1
  C  813  1  0.75112200  0.69525400  0.96763200  1
  C  814  1  0.75576100  0.69460600  0.94627200  1
  C  817  1  0.74175300  0.71546300  0.99879200  1
  C  818  1  0.71942000  0.71980900  0.01127800  1
  C  819  1  0.72260600  0.72149300  0.03303800  1
  C  820  1  0.74757200  0.71921200  0.04243000  1
  C  821  1  0.76950100  0.71493500  0.02972700  1
  C  822  1  0.76669100  0.71334300  0.00825900  1
  C  833  1  0.65022100  0.55473700  0.76203200  1
  C  834  1  0.65982200  0.54532200  0.74358800  1
  C  835  1  0.66221400  0.52353900  0.74284400  1
  C  836  1  0.65528200  0.51113800  0.76001900  1
  C  837  1  0.64719200  0.52086600  0.77853800  1
  C  838  1  0.64457300  0.54241100  0.77952100  1
  C  841  1  0.65344000  0.48928800  0.75840900  1
  C  842  1  0.67556400  0.47638600  0.75474200  1
  C  843  1  0.67240200  0.45458600  0.75574100  1
  C  844  1  0.64774500  0.44549100  0.76031200  1
  C  845  1  0.62591100  0.45865200  0.76343400  1
  C  846  1  0.62864200  0.48016500  0.76225500  1
  C  857  1  0.65004200  0.44186300  0.21467200  1
  C  858  1  0.65966300  0.45128000  0.23310900  1
  C  859  1  0.66205800  0.47306300  0.23385300  1
  C  860  1  0.65511500  0.48546400  0.21667900  1
  C  861  1  0.64700100  0.47573400  0.19816700  1
  C  862  1  0.64437800  0.45419100  0.19718800  1
  C  865  1  0.65331800  0.50731600  0.21827700  1
  C  866  1  0.67547400  0.52019100  0.22192900  1
  C  867  1  0.67236000  0.54199400  0.22090200  1
  C  868  1  0.64772500  0.55111700  0.21631900  1
  C  869  1  0.62585700  0.53798500  0.21321800  1
  C  870  1  0.62854000  0.51647000  0.21442500  1
  C  881  1  0.65021500  0.22464800  0.54475200  1
  C  882  1  0.65981100  0.24309400  0.53533500  1
  C  883  1  0.66221400  0.24383600  0.51355400  1
  C  884  1  0.65529800  0.22665500  0.50115300  1
  C  885  1  0.64721400  0.20813500  0.51088300  1
  C  886  1  0.64458300  0.20715600  0.53242600  1
  C  889  1  0.65347000  0.22825800  0.47930400  1
  C  890  1  0.67560400  0.23192000  0.46640900  1
  C  891  1  0.67245700  0.23090400  0.44460700  1
  C  892  1  0.64781200  0.22631600  0.43550700  1
  C  893  1  0.62596600  0.22320200  0.44865700  1
  C  894  1  0.62867900  0.22440000  0.47017000  1
  C  905  1  0.65004000  0.77201100  0.43187700  1
  C  906  1  0.65966500  0.75357700  0.44129600  1
  C  907  1  0.66204600  0.75283600  0.46308000  1
  C  908  1  0.65509100  0.77000900  0.47547700  1
  C  909  1  0.64697400  0.78851800  0.46574600  1
  C  910  1  0.64436200  0.78949500  0.44420200  1
  C  913  1  0.65328300  0.76840800  0.49733000  1
  C  914  1  0.67543000  0.76475100  0.51021200  1
  C  915  1  0.67230100  0.76575800  0.53201500  1
  C  916  1  0.64766000  0.77032800  0.54113200  1
  C  917  1  0.62580200  0.77344000  0.52799200  1
  C  918  1  0.62849800  0.77225400  0.50647700  1
  C  929  1  0.25077400  0.44188600  0.76204800  1
  C  930  1  0.24117000  0.45130900  0.74360800  1
  C  931  1  0.23877100  0.47309200  0.74287400  1
  C  932  1  0.24569800  0.48548500  0.76005600  1
  C  933  1  0.25378700  0.47575000  0.77857200  1
  C  934  1  0.25641400  0.45420500  0.77954300  1
  C  937  1  0.24754600  0.50733500  0.75845200  1
  C  938  1  0.22542800  0.52024200  0.75477900  1
  C  939  1  0.22859900  0.54204200  0.75577200  1
  C  940  1  0.25325700  0.55113200  0.76034300  1
  C  941  1  0.27508600  0.53796600  0.76347400  1
  C  942  1  0.27234600  0.51645400  0.76230200  1
  C  953  1  0.25099600  0.55477400  0.21466900  1
  C  954  1  0.24137700  0.54535400  0.23310500  1
  C  955  1  0.23898200  0.52357100  0.23384000  1
  C  956  1  0.24591900  0.51117500  0.21666200  1
  C  957  1  0.25403100  0.52090800  0.19815300  1
  C  958  1  0.25665600  0.54245300  0.19717900  1
  C  961  1  0.24771300  0.48932100  0.21825600  1
  C  962  1  0.22556000  0.47644700  0.22190900  1
  C  963  1  0.22867100  0.45464300  0.22088500  1
  C  964  1  0.25330400  0.44551900  0.21629800  1
  C  965  1  0.27517200  0.45865100  0.21319100  1
  C  966  1  0.27249200  0.48016600  0.21439700  1
  C  977  1  0.25078300  0.77199400  0.54475800  1
  C  978  1  0.24118600  0.75355100  0.53533700  1
  C  979  1  0.23877900  0.75281700  0.51355500  1
  C  980  1  0.24569200  0.77000100  0.50115900  1
  C  981  1  0.25377500  0.78851800  0.51089400  1
  C  982  1  0.25641000  0.78949100  0.53243800  1
  C  985  1  0.24752400  0.76840100  0.47931000  1
  C  986  1  0.22539900  0.76473400  0.46641000  1
  C  987  1  0.22855100  0.76574700  0.44460900  1
  C  988  1  0.25320000  0.77033500  0.43551400  1
  C  989  1  0.27504100  0.77345600  0.44866900  1
  C  990  1  0.27231900  0.77226200  0.47018100  1
  C  1001  1  0.25098400  0.22461400  0.43186900  1
  C  1002  1  0.24135900  0.24304600  0.44129000  1
  C  1003  1  0.23897200  0.24378300  0.46307300  1
  C  1004  1  0.24592600  0.22661000  0.47546900  1
  C  1005  1  0.25404200  0.20810200  0.46573500  1
  C  1006  1  0.25665800  0.20712800  0.44419100  1
  C  1009  1  0.24773500  0.22820800  0.49732200  1
  C  1010  1  0.22559200  0.23186700  0.51020600  1
  C  1011  1  0.22872300  0.23086500  0.53200800  1
  C  1012  1  0.25336500  0.22629600  0.54112400  1
  C  1013  1  0.27522200  0.22317900  0.52798300  1
  C  1014  1  0.27252200  0.22436200  0.50646800  1
  C  1025  1  0.23391800  0.19260600  0.36512100  1
  C  1026  1  0.24413400  0.17275400  0.36011300  1
  C  1027  1  0.22868300  0.15910700  0.34809200  1
  C  1028  1  0.20331600  0.16477400  0.34122700  1
  C  1029  1  0.19341000  0.18453700  0.34634700  1
  C  1030  1  0.20849600  0.19827000  0.35832200  1
  C  1033  1  0.18834400  0.15078300  0.32913700  1
  C  1034  1  0.18126100  0.13091800  0.33673400  1
  C  1035  1  0.16776500  0.11707400  0.32351200  1
  C  1036  1  0.16116900  0.12264000  0.30300200  1
  C  1037  1  0.16785300  0.14260600  0.29583700  1
  C  1038  1  0.18138900  0.15648500  0.30872900  1
  C  1049  1  0.23394400  0.80401800  0.61152800  1
  C  1050  1  0.24416700  0.82387000  0.61652200  1
  C  1051  1  0.22874800  0.83751200  0.62857100  1
  C  1052  1  0.20340300  0.83184000  0.63548000  1
  C  1053  1  0.19348700  0.81207800  0.63037500  1
  C  1054  1  0.20854100  0.79834700  0.61837200  1
  C  1057  1  0.18845700  0.84582800  0.64759400  1
  C  1058  1  0.18134200  0.86568900  0.64000400  1
  C  1059  1  0.16785700  0.87952500  0.65324000  1
  C  1060  1  0.16129700  0.87395500  0.67375700  1
  C  1061  1  0.16801700  0.85399500  0.68091600  1
  C  1062  1  0.18154600  0.84012500  0.66801200  1
  C  1073  1  0.23392800  0.62152000  0.18265700  1
  C  1074  1  0.24413800  0.62652500  0.16280300  1
  C  1075  1  0.22868500  0.63854500  0.14915700  1
  C  1076  1  0.20331800  0.64541100  0.15482900  1
  C  1077  1  0.19341800  0.64029500  0.17459300  1
  C  1078  1  0.20850800  0.62832000  0.18832600  1
  C  1081  1  0.18834400  0.65750000  0.14083800  1
  C  1082  1  0.18126000  0.64990200  0.12097400  1
  C  1083  1  0.16776900  0.66312500  0.10712700  1
  C  1084  1  0.16117800  0.68363600  0.11269100  1
  C  1085  1  0.16785900  0.69080300  0.13265700  1
  C  1086  1  0.18139200  0.67791000  0.14653800  1
  C  1097  1  0.23393000  0.37511400  0.79406500  1
  C  1098  1  0.24415900  0.37011800  0.81391600  1
  C  1099  1  0.22874400  0.35806900  0.82756100  1
  C  1100  1  0.20339500  0.35116100  0.82189200  1
  C  1101  1  0.19347500  0.35626800  0.80213000  1
  C  1102  1  0.20852700  0.36827100  0.78839900  1
  C  1105  1  0.18845200  0.33904700  0.83588200  1
  C  1106  1  0.18133700  0.34663600  0.85574300  1
  C  1107  1  0.16784800  0.33340100  0.86957800  1
  C  1108  1  0.16128300  0.31288600  0.86400400  1
  C  1109  1  0.16800600  0.30572600  0.84404500  1
  C  1110  1  0.18153800  0.31863100  0.83017500  1
  C  1121  1  0.66712400  0.80403100  0.36513700  1
  C  1122  1  0.65691200  0.82388500  0.36013200  1
  C  1123  1  0.67236200  0.83753200  0.34811400  1
  C  1124  1  0.69772900  0.83186300  0.34124800  1
  C  1125  1  0.70763200  0.81209900  0.34636500  1
  C  1126  1  0.69254400  0.79836500  0.35833900  1
  C  1129  1  0.71270200  0.84585300  0.32915500  1
  C  1130  1  0.71978800  0.86571900  0.33675100  1
  C  1131  1  0.73327900  0.87956200  0.32352500  1
  C  1132  1  0.73986900  0.87399400  0.30301400  1
  C  1133  1  0.73318400  0.85402900  0.29585100  1
  C  1134  1  0.71965100  0.84014900  0.30874600  1
  C  1145  1  0.66711200  0.19260000  0.61150000  1
  C  1146  1  0.65690000  0.17274300  0.61648800  1
  C  1147  1  0.67232500  0.15910000  0.62853200  1
  C  1148  1  0.69767000  0.16477900  0.63544200  1
  C  1149  1  0.70757500  0.18454600  0.63033900  1
  C  1150  1  0.69251200  0.19827400  0.61834100  1
  C  1153  1  0.71261700  0.15079500  0.64755900  1
  C  1154  1  0.71973700  0.13093200  0.63997400  1
  C  1155  1  0.73321600  0.11709800  0.65321700  1
  C  1156  1  0.73976300  0.12267200  0.67373400  1
  C  1157  1  0.73304200  0.14263400  0.68088800  1
  C  1158  1  0.71951900  0.15650200  0.66797600  1
  C  1169  1  0.66709800  0.37512500  0.18264300  1
  C  1170  1  0.65688600  0.37012000  0.16278900  1
  C  1171  1  0.67233300  0.35809900  0.14914300  1
  C  1172  1  0.69769800  0.35122800  0.15481300  1
  C  1173  1  0.70760100  0.35634400  0.17457600  1
  C  1174  1  0.69251600  0.36832100  0.18830900  1
  C  1177  1  0.71266600  0.33913200  0.14082300  1
  C  1178  1  0.71975300  0.34672800  0.12095700  1
  C  1179  1  0.73324100  0.33350000  0.10711300  1
  C  1180  1  0.73982800  0.31299000  0.11268100  1
  C  1181  1  0.73314700  0.30582800  0.13264800  1
  C  1182  1  0.71961500  0.31872300  0.14652600  1
  C  1193  1  0.66712600  0.62148300  0.79408500  1
  C  1194  1  0.65690800  0.62647300  0.81394000  1
  C  1195  1  0.67233300  0.63851700  0.82758500  1
  C  1196  1  0.69768000  0.64542500  0.82190800  1
  C  1197  1  0.70758900  0.64032100  0.80214200  1
  C  1198  1  0.69252800  0.62832300  0.78841300  1
  C  1201  1  0.71262500  0.65754400  0.83589200  1
  C  1202  1  0.71974500  0.64996100  0.85575500  1
  C  1203  1  0.73322700  0.66320400  0.86958700  1
  C  1204  1  0.73978100  0.68371900  0.86401100  1
  C  1205  1  0.73305400  0.69087100  0.84404900  1
  C  1206  1  0.71952800  0.67796100  0.83018300  1
  C  1217  1  0.67072700  0.81319600  0.60093300  1
  C  1218  1  0.65954100  0.83281400  0.60554400  1
  C  1219  1  0.67396400  0.84695200  0.61784100  1
  C  1220  1  0.69899500  0.84171600  0.62574500  1
  C  1221  1  0.71027100  0.82249300  0.62030600  1
  C  1222  1  0.69637500  0.80842800  0.60786100  1
  C  1225  1  0.71072200  0.85416400  0.64126900  1
  C  1226  1  0.71896800  0.87480700  0.63751000  1
  C  1227  1  0.72965600  0.88649200  0.65405500  1
  C  1228  1  0.73205500  0.87811000  0.67421500  1
  C  1229  1  0.72346800  0.85760700  0.67765100  1
  C  1230  1  0.71291400  0.84581800  0.66142900  1
  C  1241  1  0.67087100  0.18339700  0.37573600  1
  C  1242  1  0.65972800  0.16376000  0.37113700  1
  C  1243  1  0.67416500  0.14964100  0.35883000  1
  C  1244  1  0.69917000  0.15491000  0.35089800  1
  C  1245  1  0.71040700  0.17415200  0.35632100  1
  C  1246  1  0.69649500  0.18820000  0.36877700  1
  C  1249  1  0.71089100  0.14248000  0.33535900  1
  C  1250  1  0.71915900  0.12183900  0.33909700  1
  C  1251  1  0.72980700  0.11016100  0.32253100  1
  C  1252  1  0.73214300  0.11854600  0.30236900  1
  C  1253  1  0.72354300  0.13904900  0.29895300  1
  C  1254  1  0.71302800  0.15083000  0.31519500  1
  C  1265  1  0.67072500  0.38565900  0.80316600  1
  C  1266  1  0.65953700  0.38105400  0.82278300  1
  C  1267  1  0.67395000  0.36874900  0.83692100  1
  C  1268  1  0.69897500  0.36083300  0.83168700  1
  C  1269  1  0.71025300  0.36626400  0.81246200  1
  C  1270  1  0.69636600  0.37871600  0.79839600  1
  C  1273  1  0.71069600  0.34531400  0.84414000  1
  C  1274  1  0.71893400  0.34908000  0.86478500  1
  C  1275  1  0.72962000  0.33253900  0.87647800  1
  C  1276  1  0.73202300  0.31237500  0.86810500  1
  C  1277  1  0.72344500  0.30893100  0.84760100  1
  C  1278  1  0.71289400  0.32514900  0.83580400  1
  C  1289  1  0.67086900  0.61084600  0.17337000  1
  C  1290  1  0.65973000  0.61544700  0.15373300  1
  C  1291  1  0.67417700  0.62774700  0.13961200  1
  C  1292  1  0.69918600  0.63566900  0.14488200  1
  C  1293  1  0.71042100  0.63024000  0.16412200  1
  C  1294  1  0.69649900  0.61779200  0.17817200  1
  C  1297  1  0.71090900  0.65121300  0.13245900  1
  C  1298  1  0.71918200  0.64748300  0.11181800  1
  C  1299  1  0.72983700  0.66405400  0.10015000  1
  C  1300  1  0.73216900  0.68421300  0.10854500  1
  C  1301  1  0.72355500  0.68762200  0.12904500  1
  C  1302  1  0.71303800  0.67137400  0.14081700  1
  C  1313  1  0.23031500  0.18344600  0.60094000  1
  C  1314  1  0.24150400  0.16383000  0.60555300  1
  C  1315  1  0.22708300  0.14969300  0.61785300  1
  C  1316  1  0.20205300  0.15492600  0.62575700  1
  C  1317  1  0.19077400  0.17414700  0.62031700  1
  C  1318  1  0.20466600  0.18821400  0.60787000  1
  C  1321  1  0.19032600  0.14247700  0.64127800  1
  C  1322  1  0.18208000  0.12183400  0.63751700  1
  C  1323  1  0.17138900  0.11014800  0.65406000  1
  C  1324  1  0.16898700  0.11852700  0.67422000  1
  C  1325  1  0.17757400  0.13902900  0.67766100  1
  C  1326  1  0.18813100  0.15081900  0.66144100  1
  C  1337  1  0.23016500  0.81323100  0.37572200  1
  C  1338  1  0.24131000  0.83286700  0.37112200  1
  C  1339  1  0.22687700  0.84698500  0.35881100  1
  C  1340  1  0.20187200  0.84171600  0.35087800  1
  C  1341  1  0.19063300  0.82247600  0.35630100  1
  C  1342  1  0.20454000  0.80842800  0.36876000  1
  C  1345  1  0.19015100  0.85414800  0.33534000  1
  C  1346  1  0.18188300  0.87478800  0.33908100  1
  C  1347  1  0.17123300  0.88646700  0.32251700  1
  C  1348  1  0.16889300  0.87808400  0.30235500  1
  C  1349  1  0.17749500  0.85758300  0.29893400  1
  C  1350  1  0.18801100  0.84580000  0.31517700  1
  C  1361  1  0.23031300  0.61099500  0.80316100  1
  C  1362  1  0.24150600  0.61560500  0.82277600  1
  C  1363  1  0.22709900  0.62791400  0.83691300  1
  C  1364  1  0.20207200  0.63583000  0.83168000  1
  C  1365  1  0.19079000  0.63039800  0.81245900  1
  C  1366  1  0.20467000  0.61794000  0.79839300  1
  C  1369  1  0.19035200  0.65134800  0.84413800  1
  C  1370  1  0.18211300  0.64757700  0.86478200  1
  C  1371  1  0.17142600  0.66411600  0.87647800  1
  C  1372  1  0.16902100  0.68427900  0.86810800  1
  C  1373  1  0.17759700  0.68772800  0.84760400  1
  C  1374  1  0.18814900  0.67151300  0.83580400  1
  C  1385  1  0.23016100  0.38577700  0.17337000  1
  C  1386  1  0.24130000  0.38117300  0.15373400  1
  C  1387  1  0.22685300  0.36887200  0.13961500  1
  C  1388  1  0.20184200  0.36095100  0.14488600  1
  C  1389  1  0.19060900  0.36638200  0.16412700  1
  C  1390  1  0.20453000  0.37883200  0.17817400  1
  C  1393  1  0.19011700  0.34540700  0.13246300  1
  C  1394  1  0.18184200  0.34913900  0.11182200  1
  C  1395  1  0.17118800  0.33257000  0.10015300  1
  C  1396  1  0.16885400  0.31240900  0.10854700  1
  C  1397  1  0.17746700  0.30900000  0.12904800  1
  C  1398  1  0.18798600  0.32524700  0.14082100  1
  C  1409  1  0.06707300  0.14259100  0.21695000  1
  C  1410  1  0.06216500  0.16387600  0.22082600  1
  C  1411  1  0.06564800  0.17829800  0.20459800  1
  C  1412  1  0.07407700  0.17195300  0.18475000  1
  C  1413  1  0.07869500  0.15071900  0.18108200  1
  C  1414  1  0.07549300  0.13619600  0.19710100  1
  C  1417  1  0.07710900  0.18687500  0.16882200  1
  C  1418  1  0.09508300  0.20359000  0.17076500  1
  C  1419  1  0.09505800  0.21942500  0.15562200  1
  C  1420  1  0.07744100  0.21908400  0.13866700  1
  C  1421  1  0.06026300  0.20197500  0.13670100  1
  C  1422  1  0.06010700  0.18607900  0.15153800  1
  C  1433  1  0.06707700  0.85397000  0.75976200  1
  C  1434  1  0.06214000  0.83268700  0.75590200  1
  C  1435  1  0.06561700  0.81827300  0.77213800  1
  C  1436  1  0.07407000  0.82462400  0.79197800  1
  C  1437  1  0.07871300  0.84585600  0.79563200  1
  C  1438  1  0.07551600  0.86037200  0.77960500  1
  C  1441  1  0.07711100  0.80970800  0.80790900  1
  C  1442  1  0.09507400  0.79298700  0.80596100  1
  C  1443  1  0.09505600  0.77715700  0.82111000  1
  C  1444  1  0.07745400  0.77751000  0.83807400  1
  C  1445  1  0.06029100  0.79462700  0.84004900  1
  C  1446  1  0.06012800  0.81051800  0.82520400  1
  C  1457  1  0.06707000  0.76970100  0.13258600  1
  C  1458  1  0.06215500  0.76583500  0.15387100  1
  C  1459  1  0.06563600  0.78207000  0.16828500  1
  C  1460  1  0.07407200  0.80191500  0.16193400  1
  C  1461  1  0.07869600  0.80557200  0.14069900  1
  C  1462  1  0.07549500  0.78954700  0.12618300  1
  C  1465  1  0.07711100  0.81784600  0.17685000  1
  C  1466  1  0.09508300  0.81590400  0.19356400  1
  C  1467  1  0.09506600  0.83105500  0.20939500  1
  C  1468  1  0.07745700  0.84801400  0.20904500  1
  C  1469  1  0.06028000  0.84997900  0.19193500  1
  C  1470  1  0.06011700  0.83513500  0.17604600  1
  C  1481  1  0.06708500  0.22688900  0.84396500  1
  C  1482  1  0.06215700  0.23076000  0.82268200  1
  C  1483  1  0.06563700  0.21453000  0.80826000  1
  C  1484  1  0.07408400  0.19468700  0.81460300  1
  C  1485  1  0.07872000  0.19102200  0.83583500  1
  C  1486  1  0.07552000  0.20704300  0.85035900  1
  C  1489  1  0.07711800  0.17876100  0.79968000  1
  C  1490  1  0.09508000  0.18071200  0.78295900  1
  C  1491  1  0.09505400  0.16556900  0.76712200  1
  C  1492  1  0.07744400  0.14860900  0.76746900  1
  C  1493  1  0.06028200  0.14663300  0.78458700  1
  C  1494  1  0.06012700  0.16147000  0.80048400  1
  C  1505  1  0.83394400  0.85404000  0.21694900  1
  C  1506  1  0.83885200  0.83275700  0.22082600  1
  C  1507  1  0.83536900  0.81833400  0.20459800  1
  C  1508  1  0.82693800  0.82467600  0.18475000  1
  C  1509  1  0.82231900  0.84591000  0.18108000  1
  C  1510  1  0.82552300  0.86043500  0.19710000  1
  C  1513  1  0.82390500  0.80975500  0.16882400  1
  C  1514  1  0.80593400  0.79303800  0.17076700  1
  C  1515  1  0.80595900  0.77720200  0.15562400  1
  C  1516  1  0.82357500  0.77754500  0.13866800  1
  C  1517  1  0.84075100  0.79465500  0.13670100  1
  C  1518  1  0.84090700  0.81055200  0.15153800  1
  C  1529  1  0.83395000  0.14265700  0.75976800  1
  C  1530  1  0.83888300  0.16394000  0.75590300  1
  C  1531  1  0.83540400  0.17835600  0.77213800  1
  C  1532  1  0.82695400  0.17200900  0.79197900  1
  C  1533  1  0.82231300  0.15077600  0.79563700  1
  C  1534  1  0.82551100  0.13625800  0.77961100  1
  C  1537  1  0.82391300  0.18692600  0.80790900  1
  C  1538  1  0.80595200  0.20364800  0.80595800  1
  C  1539  1  0.80597100  0.21948100  0.82110400  1
  C  1540  1  0.82357700  0.21913100  0.83806800  1
  C  1541  1  0.84073900  0.20201500  0.84004200  1
  C  1542  1  0.84089900  0.18611900  0.82520300  1
  C  1553  1  0.83395600  0.22694100  0.13260200  1
  C  1554  1  0.83887200  0.23080700  0.15388800  1
  C  1555  1  0.83539400  0.21456900  0.16830200  1
  C  1556  1  0.82695800  0.19472600  0.16195000  1
  C  1557  1  0.82233300  0.19107000  0.14071400  1
  C  1558  1  0.82553100  0.20709700  0.12619900  1
  C  1561  1  0.82391900  0.17879300  0.17686400  1
  C  1562  1  0.80594800  0.18073300  0.19358000  1
  C  1563  1  0.80596500  0.16558300  0.20940700  1
  C  1564  1  0.82357300  0.14862200  0.20905700  1
  C  1565  1  0.84074900  0.14665800  0.19194600  1
  C  1566  1  0.84091200  0.16150400  0.17605700  1
  C  1577  1  0.83394400  0.76974700  0.84396800  1
  C  1578  1  0.83887200  0.76587400  0.82268700  1
  C  1579  1  0.83539000  0.78210300  0.80826500  1
  C  1580  1  0.82694600  0.80194700  0.81460500  1
  C  1581  1  0.82231100  0.80561400  0.83583800  1
  C  1582  1  0.82550900  0.78959300  0.85036200  1
  C  1585  1  0.82391100  0.81787400  0.79968300  1
  C  1586  1  0.80595000  0.81592400  0.78296200  1
  C  1587  1  0.80597700  0.83106600  0.76712400  1
  C  1588  1  0.82358800  0.84802500  0.76747100  1
  C  1589  1  0.84075100  0.85000000  0.78458800  1
  C  1590  1  0.84090500  0.83516500  0.80048700  1
  C  1601  1  0.56061000  0.65054400  0.71854300  1
  C  1602  1  0.55599900  0.67156600  0.72387000  1
  C  1603  1  0.55798800  0.68691300  0.70832800  1
  C  1604  1  0.56466800  0.68173600  0.68774800  1
  C  1605  1  0.56880000  0.66075200  0.68260400  1
  C  1606  1  0.56701700  0.64533800  0.69788900  1
  C  1609  1  0.56728700  0.69749900  0.67260800  1
  C  1610  1  0.58639600  0.71343000  0.67451300  1
  C  1611  1  0.58714000  0.72943300  0.65954300  1
  C  1612  1  0.56919600  0.72998700  0.64281900  1
  C  1613  1  0.55065800  0.71376600  0.64100600  1
  C  1614  1  0.54975200  0.69771600  0.65564400  1
  C  1625  1  0.56053900  0.34601100  0.25817100  1
  C  1626  1  0.55591600  0.32498800  0.25285300  1
  C  1627  1  0.55792300  0.30964400  0.26839700  1
  C  1628  1  0.56463600  0.31482500  0.28896900  1
  C  1629  1  0.56877900  0.33580900  0.29410600  1
  C  1630  1  0.56697600  0.35122000  0.27881700  1
  C  1633  1  0.56728500  0.29906400  0.30410800  1
  C  1634  1  0.58639800  0.28313800  0.30218400  1
  C  1635  1  0.58716300  0.26713200  0.31715100  1
  C  1636  1  0.56924100  0.26656800  0.33388600  1
  C  1637  1  0.55070300  0.28278800  0.33572100  1
  C  1638  1  0.54977400  0.29884300  0.32108700  1
  C  1649  1  0.56055800  0.26811700  0.64053900  1
  C  1650  1  0.55594700  0.26279300  0.66156200  1
  C  1651  1  0.55793100  0.27833900  0.67690700  1
  C  1652  1  0.56460700  0.29891900  0.67172700  1
  C  1653  1  0.56874100  0.30406000  0.65074100  1
  C  1654  1  0.56696200  0.28877100  0.63533000  1
  C  1657  1  0.56723200  0.31406000  0.68748800  1
  C  1658  1  0.58634100  0.31215500  0.70341600  1
  C  1659  1  0.58709200  0.32713000  0.71941500  1
  C  1660  1  0.56915600  0.34385800  0.71996700  1
  C  1661  1  0.55061600  0.34567200  0.70374700  1
  C  1662  1  0.54970300  0.33102900  0.68770000  1
  C  1673  1  0.56058400  0.72849700  0.33599700  1
  C  1674  1  0.55595900  0.73381800  0.31497500  1
  C  1675  1  0.55797100  0.71827600  0.29962800  1
  C  1676  1  0.56468300  0.69770300  0.30480600  1
  C  1677  1  0.56882800  0.69256400  0.32579000  1
  C  1678  1  0.56702300  0.70784900  0.34120300  1
  C  1681  1  0.56732800  0.68256600  0.28904400  1
  C  1682  1  0.58644100  0.68448700  0.27311700  1
  C  1683  1  0.58720100  0.66952500  0.25710800  1
  C  1684  1  0.56927100  0.65279300  0.25654300  1
  C  1685  1  0.55073200  0.65096100  0.27276200  1
  C  1686  1  0.54981100  0.66559100  0.28881900  1
  C  1697  1  0.34044000  0.34613600  0.71849700  1
  C  1698  1  0.34505700  0.32511500  0.72382400  1
  C  1699  1  0.34306500  0.30976800  0.70828100  1
  C  1700  1  0.33637800  0.31494300  0.68770300  1
  C  1701  1  0.33223900  0.33592700  0.68255900  1
  C  1702  1  0.33402400  0.35134100  0.69784400  1
  C  1705  1  0.33375300  0.29917900  0.67256600  1
  C  1706  1  0.31464400  0.28324900  0.67447700  1
  C  1707  1  0.31389800  0.26724200  0.65951000  1
  C  1708  1  0.33183800  0.26668100  0.64278600  1
  C  1709  1  0.35037600  0.28290200  0.64096700  1
  C  1710  1  0.35128300  0.29895900  0.65560000  1
  C  1721  1  0.34049900  0.65062500  0.25817800  1
  C  1722  1  0.34512600  0.67164800  0.25286400  1
  C  1723  1  0.34311800  0.68698900  0.26841100  1
  C  1724  1  0.33640400  0.68180500  0.28898300  1
  C  1725  1  0.33225900  0.66082000  0.29411500  1
  C  1726  1  0.33406200  0.64541300  0.27882500  1
  C  1729  1  0.33375300  0.69756400  0.30412300  1
  C  1730  1  0.31464200  0.71349100  0.30220100  1
  C  1731  1  0.31387400  0.72949500  0.31717000  1
  C  1732  1  0.33179500  0.73005500  0.33390600  1
  C  1733  1  0.35033300  0.71383400  0.33573900  1
  C  1734  1  0.35126200  0.69778200  0.32110300  1
  C  1745  1  0.34048100  0.72846500  0.64049400  1
  C  1746  1  0.34510000  0.73378700  0.66151600  1
  C  1747  1  0.34311200  0.71824000  0.67686000  1
  C  1748  1  0.33642500  0.69766300  0.67167900  1
  C  1749  1  0.33228500  0.69252300  0.65069500  1
  C  1750  1  0.33406800  0.70781400  0.63528400  1
  C  1753  1  0.33379600  0.68252200  0.68744100  1
  C  1754  1  0.31468700  0.68443200  0.70337100  1
  C  1755  1  0.31393300  0.66946300  0.71937200  1
  C  1756  1  0.33186500  0.65273100  0.71992600  1
  C  1757  1  0.35040400  0.65091100  0.70370500  1
  C  1758  1  0.35131900  0.66555100  0.68765500  1
  C  1769  1  0.34045200  0.26814800  0.33600300  1
  C  1770  1  0.34507600  0.26282900  0.31498100  1
  C  1771  1  0.34306300  0.27837000  0.29963400  1
  C  1772  1  0.33634800  0.29894300  0.30481400  1
  C  1773  1  0.33220600  0.30408100  0.32579800  1
  C  1774  1  0.33401200  0.28879600  0.34121000  1
  C  1777  1  0.33370200  0.31407900  0.28905000  1
  C  1778  1  0.31459100  0.31215700  0.27312500  1
  C  1779  1  0.31382900  0.32711900  0.25711500  1
  C  1780  1  0.33176100  0.34384900  0.25654800  1
  C  1781  1  0.35029700  0.34568400  0.27276700  1
  C  1782  1  0.35121800  0.33105400  0.28882700  1
  C  1793  1  0.87541900  0.10940900  0.25983100  1
  C  1794  1  0.88463900  0.11738000  0.27898900  1
  C  1795  1  0.91116100  0.11384300  0.28482700  1
  C  1796  1  0.92868800  0.10271400  0.27194200  1
  C  1797  1  0.91883600  0.09449800  0.25319100  1
  C  1798  1  0.89257700  0.09765700  0.24728100  1
  C  1801  1  0.95648300  0.10358700  0.27492600  1
  C  1802  1  0.97290000  0.08585800  0.27294800  1
  C  1803  1  0.00031900  0.08848200  0.26976400  1
  C  1804  1  0.01160800  0.10841700  0.26833700  1
  C  1805  1  0.99546600  0.12578600  0.27225600  1
  C  1806  1  0.96832400  0.12341600  0.27535500  1
  C  1817  1  0.87548200  0.88721800  0.71671000  1
  C  1818  1  0.88472700  0.87924300  0.69756100  1
  C  1819  1  0.91125900  0.88277300  0.69174800  1
  C  1820  1  0.92877200  0.89389600  0.70464700  1
  C  1821  1  0.91889700  0.90211200  0.72339200  1
  C  1822  1  0.89263000  0.89896100  0.72927600  1
  C  1825  1  0.95657400  0.89301000  0.70169100  1
  C  1826  1  0.97299800  0.91073100  0.70369000  1
  C  1827  1  0.00041200  0.90809600  0.70689800  1
  C  1828  1  0.01167600  0.88815400  0.70833900  1
  C  1829  1  0.99553500  0.87079200  0.70439800  1
  C  1830  1  0.96839900  0.87317500  0.70127300  1
  C  1841  1  0.87544400  0.72676600  0.09947900  1
  C  1842  1  0.88466800  0.70760800  0.10744800  1
  C  1843  1  0.91118800  0.70177300  0.10390500  1
  C  1844  1  0.92870900  0.71465700  0.09277000  1
  C  1845  1  0.91885400  0.73340900  0.08455800  1
  C  1846  1  0.89259700  0.73931500  0.08772300  1
  C  1849  1  0.95650900  0.71167400  0.09363500  1
  C  1850  1  0.97291400  0.71365300  0.07590100  1
  C  1851  1  0.00033400  0.71684000  0.07851500  1
  C  1852  1  0.01163100  0.71827600  0.09844700  1
  C  1853  1  0.99550000  0.71435500  0.11582100  1
  C  1854  1  0.96835800  0.71125100  0.11346100  1
  C  1865  1  0.87545400  0.26989100  0.87727200  1
  C  1866  1  0.88469800  0.28904100  0.86929400  1
  C  1867  1  0.91123000  0.29485400  0.87281900  1
  C  1868  1  0.92874700  0.28195400  0.88393900  1
  C  1869  1  0.91887300  0.26321100  0.89216000  1
  C  1870  1  0.89260500  0.25732700  0.88901300  1
  C  1873  1  0.95654800  0.28490900  0.88304800  1
  C  1874  1  0.97298000  0.28291100  0.90076500  1
  C  1875  1  0.00039400  0.27970600  0.89812300  1
  C  1876  1  0.01165200  0.27827200  0.87817800  1
  C  1877  1  0.99550400  0.28221300  0.86082100  1
  C  1878  1  0.96836800  0.28533200  0.86321000  1
  C  1889  1  0.02560900  0.88722300  0.25982100  1
  C  1890  1  0.01639000  0.87925000  0.27898000  1
  C  1891  1  0.98986800  0.88278600  0.28481600  1
  C  1892  1  0.97234100  0.89391700  0.27193200  1
  C  1893  1  0.98219200  0.90213400  0.25318100  1
  C  1894  1  0.00845100  0.89897500  0.24727400  1
  C  1897  1  0.94454300  0.89304400  0.27491600  1
  C  1898  1  0.92812700  0.91077300  0.27293700  1
  C  1899  1  0.90070900  0.90815000  0.26975700  1
  C  1900  1  0.88941900  0.88821600  0.26832700  1
  C  1901  1  0.90556000  0.87084600  0.27224700  1
  C  1902  1  0.93270200  0.87321500  0.27534400  1
  C  1913  1  0.02555200  0.10941300  0.71671100  1
  C  1914  1  0.01630400  0.11738900  0.69756200  1
  C  1915  1  0.98977100  0.11385900  0.69175100  1
  C  1916  1  0.97226000  0.10273400  0.70465200  1
  C  1917  1  0.98213700  0.09451600  0.72339300  1
  C  1918  1  0.00840600  0.09766900  0.72927600  1
  C  1921  1  0.94445900  0.10361900  0.70169700  1
  C  1922  1  0.92803400  0.08589700  0.70369500  1
  C  1923  1  0.90062200  0.08853100  0.70690600  1
  C  1924  1  0.88935600  0.10847300  0.70834900  1
  C  1925  1  0.90549700  0.12583600  0.70440800  1
  C  1926  1  0.93263100  0.12345400  0.70128200  1
  C  1937  1  0.02557500  0.26986800  0.09948100  1
  C  1938  1  0.01635800  0.28902700  0.10745100  1
  C  1939  1  0.98983600  0.29486600  0.10391200  1
  C  1940  1  0.97231100  0.28198400  0.09277900  1
  C  1941  1  0.98216300  0.26323000  0.08456500  1
  C  1942  1  0.00841900  0.25732000  0.08772700  1
  C  1945  1  0.94451400  0.28496900  0.09364700  1
  C  1946  1  0.92810300  0.28299000  0.07591600  1
  C  1947  1  0.90068500  0.27980500  0.07853500  1
  C  1948  1  0.88938500  0.27837600  0.09846700  1
  C  1949  1  0.90552500  0.28229400  0.11583600  1
  C  1950  1  0.93266700  0.28539500  0.11347300  1
  C  1961  1  0.02558400  0.72675200  0.87728800  1
  C  1962  1  0.01634100  0.70760300  0.86931000  1
  C  1963  1  0.98980800  0.70179000  0.87283300  1
  C  1964  1  0.97229000  0.71468900  0.88395300  1
  C  1965  1  0.98216300  0.73343300  0.89217400  1
  C  1966  1  0.00843100  0.73931500  0.88902900  1
  C  1969  1  0.94448800  0.71173500  0.88305900  1
  C  1970  1  0.92805400  0.71373100  0.90077400  1
  C  1971  1  0.90064200  0.71693400  0.89813100  1
  C  1972  1  0.88938500  0.71837200  0.87818600  1
  C  1973  1  0.90553600  0.71443200  0.86082800  1
  C  1974  1  0.93267300  0.71131300  0.86322100  1
  C  1985  1  0.37960600  0.61083400  0.77074400  1
  C  1986  1  0.38902100  0.61809200  0.79010600  1
  C  1987  1  0.41566100  0.61442200  0.79555800  1
  C  1988  1  0.43307600  0.60392300  0.78204100  1
  C  1989  1  0.42284600  0.59615900  0.76321200  1
  C  1990  1  0.39648500  0.59937600  0.75771700  1
  C  1993  1  0.46097200  0.60549500  0.78414500  1
  C  1994  1  0.47797700  0.58841700  0.78035900  1
  C  1995  1  0.50463700  0.59208400  0.77500600  1
  C  1996  1  0.51465800  0.61242600  0.77327800  1
  C  1997  1  0.49834100  0.62904500  0.77941100  1
  C  1998  1  0.47187200  0.62566000  0.78455300  1
  C  2009  1  0.37952800  0.38572800  0.20573900  1
  C  2010  1  0.38900700  0.37845600  0.18640300  1
  C  2011  1  0.41566300  0.38212600  0.18099500  1
  C  2012  1  0.43303400  0.39263600  0.19453500  1
  C  2013  1  0.42275000  0.40041500  0.21333900  1
  C  2014  1  0.39637300  0.39719600  0.21878800  1
  C  2017  1  0.46093800  0.39106200  0.19248500  1
  C  2018  1  0.47793400  0.40814200  0.19628700  1
  C  2019  1  0.50458200  0.40448200  0.20167900  1
  C  2020  1  0.51458700  0.38413900  0.20343600  1
  C  2021  1  0.49829400  0.36751100  0.19729000  1
  C  2022  1  0.47183900  0.37089400  0.19210900  1
  C  2033  1  0.37960200  0.21586300  0.60090900  1
  C  2034  1  0.38902100  0.19649900  0.60815800  1
  C  2035  1  0.41565900  0.19104700  0.60447900  1
  C  2036  1  0.43306800  0.20456700  0.59397700  1
  C  2037  1  0.42283600  0.22339800  0.58622200  1
  C  2038  1  0.39647800  0.22889400  0.58945000  1
  C  2041  1  0.46096600  0.20246100  0.59553600  1
  C  2042  1  0.47795700  0.20625000  0.57845300  1
  C  2043  1  0.50461700  0.21161100  0.58211000  1
  C  2044  1  0.51465000  0.21334400  0.60244700  1
  C  2045  1  0.49834500  0.20720400  0.61907200  1
  C  2046  1  0.47187800  0.20205500  0.61569800  1
  C  2057  1  0.37953700  0.78086200  0.37580500  1
  C  2058  1  0.38900900  0.80019900  0.36852500  1
  C  2059  1  0.41566500  0.80561100  0.37218600  1
  C  2060  1  0.43304800  0.79207400  0.38268900  1
  C  2061  1  0.42277000  0.77327000  0.39047500  1
  C  2062  1  0.39639300  0.76781800  0.38726700  1
  C  2065  1  0.46095000  0.79412700  0.38110400  1
  C  2066  1  0.47795700  0.79032900  0.39817600  1
  C  2067  1  0.50460700  0.78494600  0.39450100  1
  C  2068  1  0.51460100  0.78319400  0.37415500  1
  C  2069  1  0.49829200  0.78933700  0.35753500  1
  C  2070  1  0.47183500  0.79450800  0.36093100  1
  C  2081  1  0.52142400  0.38578300  0.77076400  1
  C  2082  1  0.51199500  0.37852400  0.79012100  1
  C  2083  1  0.48535500  0.38220500  0.79556600  1
  C  2084  1  0.46795400  0.39271600  0.78204700  1
  C  2085  1  0.47819700  0.40048300  0.76322300  1
  C  2086  1  0.50456000  0.39725300  0.75773500  1
  C  2089  1  0.44005600  0.39115400  0.78413900  1
  C  2090  1  0.42306500  0.40824200  0.78035800  1
  C  2091  1  0.39640500  0.40458700  0.77499000  1
  C  2092  1  0.38638000  0.38425000  0.77324200  1
  C  2093  1  0.40267700  0.36761900  0.77937400  1
  C  2094  1  0.42914400  0.37099200  0.78452900  1
  C  2105  1  0.52150400  0.61091000  0.20573700  1
  C  2106  1  0.51202500  0.61818300  0.18640100  1
  C  2107  1  0.48536800  0.61451300  0.18099400  1
  C  2108  1  0.46799500  0.60400300  0.19453400  1
  C  2109  1  0.47828200  0.59622400  0.21333800  1
  C  2110  1  0.50465800  0.59944100  0.21878700  1
  C  2113  1  0.44009400  0.60557700  0.19248500  1
  C  2114  1  0.42309800  0.58849600  0.19628700  1
  C  2115  1  0.39645000  0.59215900  0.20167900  1
  C  2116  1  0.38644500  0.61250000  0.20343800  1
  C  2117  1  0.40273800  0.62912800  0.19729200  1
  C  2118  1  0.42919300  0.62574500  0.19211000  1
  C  2129  1  0.52143300  0.78078300  0.60091400  1
  C  2130  1  0.51199900  0.80014000  0.60816900  1
  C  2131  1  0.48535900  0.80558300  0.60448200  1
  C  2132  1  0.46796600  0.79206100  0.59396700  1
  C  2133  1  0.47821500  0.77323700  0.58620600  1
  C  2134  1  0.50457600  0.76775100  0.58944300  1
  C  2137  1  0.44006600  0.79415300  0.59551900  1
  C  2138  1  0.42308600  0.79036600  0.57842600  1
  C  2139  1  0.39642600  0.78499400  0.58207000  1
  C  2140  1  0.38639200  0.78324200  0.60240400  1
  C  2141  1  0.40267700  0.78937900  0.61904300  1
  C  2142  1  0.42914200  0.79454100  0.61567800  1
  C  2153  1  0.52149600  0.21576100  0.37578300  1
  C  2154  1  0.51202100  0.19642600  0.36850500  1
  C  2155  1  0.48536700  0.19101600  0.37216700  1
  C  2156  1  0.46798700  0.20455400  0.38267500  1
  C  2157  1  0.47827000  0.22335700  0.39046100  1
  C  2158  1  0.50464900  0.22880700  0.38725000  1
  C  2161  1  0.44008600  0.20250400  0.38109100  1
  C  2162  1  0.42308000  0.20630400  0.39816700  1
  C  2163  1  0.39643200  0.21169000  0.39449700  1
  C  2164  1  0.38643500  0.21344400  0.37415200  1
  C  2165  1  0.40274000  0.20730100  0.35752900  1
  C  2166  1  0.42919500  0.20212800  0.36092200  1
  N  659  1  0.20678400  0.98473500  0.26508200  1
  N  660  1  0.17219000  0.05522900  0.23953600  1
  N  683  1  0.20673100  0.01187500  0.71157800  1
  N  684  1  0.17214100  0.94142800  0.73719700  1
  N  707  1  0.20682100  0.72155200  0.97476900  1
  N  708  1  0.17220900  0.74710400  0.04525600  1
  N  731  1  0.20669300  0.27505600  0.00190700  1
  N  732  1  0.17212700  0.24944800  0.93144900  1
  N  755  1  0.69424200  0.01189800  0.26509300  1
  N  756  1  0.72882900  0.94140300  0.23954300  1
  N  779  1  0.69429500  0.98475600  0.71157000  1
  N  780  1  0.72887200  0.05521000  0.73718900  1
  N  803  1  0.69422200  0.27508200  0.97476000  1
  N  804  1  0.72882900  0.24951700  0.04524400  1
  N  827  1  0.69433300  0.72156500  0.00190500  1
  N  828  1  0.72889400  0.74717400  0.93144600  1
  N  851  1  0.70054200  0.48547900  0.75132300  1
  N  852  1  0.66730500  0.55619900  0.72550200  1
  N  875  1  0.70043300  0.51106700  0.22534600  1
  N  876  1  0.66716500  0.44040300  0.25119100  1
  N  899  1  0.70057100  0.23535300  0.47551100  1
  N  900  1  0.66727900  0.26118400  0.54621100  1
  N  923  1  0.70039400  0.76133500  0.50109600  1
  N  924  1  0.66717700  0.73549700  0.43042400  1
  N  947  1  0.20044900  0.51115400  0.75135400  1
  N  948  1  0.23369200  0.44044000  0.72551600  1
  N  971  1  0.20060400  0.48557000  0.22533900  1
  N  972  1  0.23387900  0.55622500  0.25119000  1
  N  995  1  0.20042700  0.76130000  0.47550800  1
  N  996  1  0.23372100  0.73545800  0.54620800  1
  N  1019  1  0.20062600  0.23528500  0.50109100  1
  N  1020  1  0.23384700  0.26113000  0.43042000  1
  N  1043  1  0.18717500  0.12539500  0.35745900  1
  N  1044  1  0.26919800  0.16664200  0.36757300  1
  N  1067  1  0.18721200  0.87121600  0.61927200  1
  N  1068  1  0.26920700  0.82998800  0.60901900  1
  N  1091  1  0.18717200  0.62917600  0.11545100  1
  N  1092  1  0.26920000  0.61906600  0.15668600  1
  N  1115  1  0.18721000  0.36736800  0.86127000  1
  N  1116  1  0.26920400  0.37761900  0.82003100  1
  N  1139  1  0.71387700  0.87124400  0.35747500  1
  N  1140  1  0.63184800  0.82999900  0.36759100  1
  N  1163  1  0.71387500  0.12540200  0.61924100  1
  N  1164  1  0.63185800  0.16662000  0.60898800  1
  N  1187  1  0.71384300  0.36745200  0.11543100  1
  N  1188  1  0.63182400  0.37758400  0.15667500  1
  N  1211  1  0.71388000  0.62922900  0.86128700  1
  N  1212  1  0.63186600  0.61897500  0.82005900  1
  N  1235  1  0.71710200  0.88311200  0.61726500  1
  N  1236  1  0.63396700  0.83768300  0.59826800  1
  N  1259  1  0.71734800  0.11352600  0.35934200  1
  N  1260  1  0.63417800  0.15885700  0.37843900  1
  N  1283  1  0.71707100  0.36932900  0.87308000  1
  N  1284  1  0.63396900  0.38834600  0.82765300  1
  N  1307  1  0.71738100  0.62724100  0.10349900  1
  N  1308  1  0.63417200  0.60816100  0.14883100  1
  N  1331  1  0.18394700  0.11353200  0.61727100  1
  N  1332  1  0.26707800  0.15896400  0.59827700  1
  N  1355  1  0.18369400  0.88309900  0.35932700  1
  N  1356  1  0.26686000  0.83777100  0.37842600  1
  N  1379  1  0.18398300  0.62732900  0.87307600  1
  N  1380  1  0.26707200  0.60831000  0.82764300  1
  N  1403  1  0.18364900  0.36938100  0.10350200  1
  N  1404  1  0.26685800  0.38845900  0.14883000  1
  N  1427  1  0.11280500  0.20413300  0.18770200  1
  N  1428  1  0.05454700  0.17045000  0.24088900  1
  N  1451  1  0.11277900  0.79243100  0.78901500  1
  N  1452  1  0.05450300  0.82610600  0.73584700  1
  N  1475  1  0.11279700  0.79896300  0.19411600  1
  N  1476  1  0.05453300  0.74577600  0.16045400  1
  N  1499  1  0.11279200  0.19765300  0.78240900  1
  N  1500  1  0.05452200  0.25081800  0.81611000  1
  N  1523  1  0.78821400  0.79249300  0.18770300  1
  N  1524  1  0.84647400  0.82618300  0.24088700  1
  N  1547  1  0.78824400  0.20420000  0.78901400  1
  N  1548  1  0.84651900  0.17051900  0.73584700  1
  N  1571  1  0.78823400  0.19767400  0.19413100  1
  N  1572  1  0.84649400  0.25086500  0.16047200  1
  N  1595  1  0.78823800  0.79898300  0.78241200  1
  N  1596  1  0.84650500  0.74581500  0.81611500  1
  N  1619  1  0.60468200  0.71288800  0.69106900  1
  N  1620  1  0.55051800  0.67700600  0.74468700  1
  N  1643  1  0.60466000  0.28368400  0.28561400  1
  N  1644  1  0.55040600  0.31954300  0.23204200  1
  N  1667  1  0.60462300  0.29559500  0.70287800  1
  N  1668  1  0.55047300  0.24197600  0.66700700  1
  N  1691  1  0.60471000  0.70105600  0.27366700  1
  N  1692  1  0.55044500  0.75462900  0.30953400  1
  N  1715  1  0.29635900  0.28379400  0.69103500  1
  N  1716  1  0.35054500  0.31967500  0.74463900  1
  N  1739  1  0.29637900  0.71294700  0.28562800  1
  N  1740  1  0.35063800  0.67709500  0.23205500  1
  N  1763  1  0.29641100  0.70099700  0.70283000  1
  N  1764  1  0.35058500  0.75460100  0.66696200  1
  N  1787  1  0.29632200  0.29558800  0.27367400  1
  N  1788  1  0.35059300  0.24201800  0.30954000  1
  N  1811  1  0.96144000  0.06587000  0.27354000  1
  N  1812  1  0.86781400  0.12991800  0.29118400  1
  N  1835  1  0.96155400  0.93072400  0.70308400  1
  N  1836  1  0.86791700  0.86670800  0.68535200  1
  N  1859  1  0.96144400  0.71305400  0.05591600  1
  N  1860  1  0.86785000  0.69541300  0.11998900  1
  N  1883  1  0.96154500  0.28351200  0.92076100  1
  N  1884  1  0.86788500  0.30124800  0.85676000  1
  N  1907  1  0.93958600  0.93076100  0.27353200  1
  N  1908  1  0.03321200  0.86671100  0.29117400  1
  N  1931  1  0.93947800  0.06590400  0.70308800  1
  N  1932  1  0.03311300  0.12992400  0.68535400  1
  N  1955  1  0.93956800  0.28358700  0.05592900  1
  N  1956  1  0.03318100  0.30122100  0.11999000  1
  N  1979  1  0.93948800  0.71312800  0.92077200  1
  N  1980  1  0.03315500  0.69539800  0.85677600  1
  N  2003  1  0.46766500  0.56804700  0.78112600  1
  N  2004  1  0.37221500  0.63008100  0.80284200  1
  N  2027  1  0.46762100  0.42851300  0.19549100  1
  N  2028  1  0.37224200  0.36645500  0.17364600  1
  N  2051  1  0.46763100  0.20548500  0.55808500  1
  N  2052  1  0.37221800  0.18375800  0.62014700  1
  N  2075  1  0.46766100  0.79112000  0.41855000  1
  N  2076  1  0.37223400  0.81295300  0.35652700  1
  N  2099  1  0.43339100  0.42860600  0.78114000  1
  N  2100  1  0.52878600  0.36652400  0.80285900  1
  N  2123  1  0.43340800  0.56812600  0.19548800  1
  N  2124  1  0.52879000  0.63018400  0.17364400  1
  N  2147  1  0.43342200  0.79115200  0.55806300  1
  N  2148  1  0.52878400  0.81288300  0.62016900  1
  N  2171  1  0.43338100  0.20550800  0.41854100  1
  N  2172  1  0.52879200  0.18367200  0.35650200  1
  O  17  1  0.10334900  0.06475300  0.25671700  1
  O  18  1  0.05843500  0.09092000  0.28634800  1
  O  37  1  0.10333300  0.93179900  0.71997900  1
  O  38  1  0.05853000  0.90563800  0.69035400  1
  O  57  1  0.10338800  0.72991100  0.05477800  1
  O  58  1  0.05846600  0.70026800  0.08095800  1
  O  77  1  0.10329500  0.26664900  0.92182500  1
  O  78  1  0.05849600  0.29626300  0.89567300  1
  O  97  1  0.79767400  0.93187900  0.25671500  1
  O  98  1  0.84259500  0.90571400  0.28634300  1
  O  117  1  0.79768600  0.06483000  0.71999100  1
  O  118  1  0.84250500  0.09098800  0.69036000  1
  O  137  1  0.79764700  0.26671700  0.05478400  1
  O  138  1  0.84255000  0.29637100  0.08096800  1
  O  157  1  0.79772900  0.72999000  0.92182500  1
  O  158  1  0.84254400  0.70037500  0.89568000  1
  O  177  1  0.78531200  0.92428400  0.73493800  1
  O  178  1  0.82825300  0.90373500  0.70037100  1
  O  197  1  0.78522300  0.07234100  0.24157000  1
  O  198  1  0.82817400  0.09288800  0.27613800  1
  O  217  1  0.78526400  0.25168100  0.91432400  1
  O  218  1  0.82821700  0.28622800  0.89377900  1
  O  237  1  0.78527400  0.74503900  0.06239300  1
  O  238  1  0.82820900  0.71045100  0.08295200  1
  O  257  1  0.11571700  0.07234700  0.73493100  1
  O  258  1  0.07278100  0.09289900  0.70037000  1
  O  277  1  0.11580100  0.92429300  0.24156600  1
  O  278  1  0.07285400  0.90374300  0.27613200  1
  O  297  1  0.11577300  0.74496300  0.91433900  1
  O  298  1  0.07282300  0.71042000  0.89379700  1
  O  317  1  0.11574500  0.25159100  0.06239000  1
  O  318  1  0.07281100  0.28617900  0.08295200  1
  O  337  1  0.60154500  0.56957500  0.74779200  1
  O  338  1  0.56435100  0.59392100  0.78434800  1
  O  357  1  0.60139200  0.42696900  0.22889300  1
  O  358  1  0.56428400  0.40263100  0.19236100  1
  O  377  1  0.60152700  0.23887400  0.55958100  1
  O  378  1  0.56434500  0.20229500  0.58393600  1
  O  397  1  0.60140200  0.75778200  0.41696900  1
  O  398  1  0.56429400  0.79428700  0.39264200  1
  O  417  1  0.29945700  0.42708100  0.74779200  1
  O  418  1  0.33668300  0.40273300  0.78432300  1
  O  437  1  0.29964800  0.56966800  0.22888800  1
  O  438  1  0.33674600  0.59401100  0.19236300  1
  O  457  1  0.29947700  0.75775200  0.55955900  1
  O  458  1  0.33669100  0.79430700  0.58391600  1
  O  477  1  0.29962600  0.23884800  0.41697100  1
  O  478  1  0.33674000  0.20234900  0.39263700  1
  O  497  1  0.29368300  0.42095000  0.23501400  1
  O  498  1  0.33119800  0.40350000  0.19290500  1
  O  517  1  0.29368300  0.57558900  0.74154800  1
  O  518  1  0.33126100  0.59307500  0.78356600  1
  O  537  1  0.29363000  0.75161200  0.41100300  1
  O  538  1  0.33119400  0.79369500  0.39356000  1
  O  557  1  0.29374000  0.24508400  0.56563900  1
  O  558  1  0.33127300  0.20304000  0.58313200  1
  O  577  1  0.60735100  0.57569500  0.23502900  1
  O  578  1  0.56983300  0.59313600  0.19290800  1
  O  597  1  0.60732900  0.42101100  0.74153600  1
  O  598  1  0.56976800  0.40354600  0.78357500  1
  O  617  1  0.60739200  0.24503000  0.41097800  1
  O  618  1  0.56983900  0.20293000  0.39354100  1
  O  637  1  0.60728800  0.75155000  0.56565900  1
  O  638  1  0.56976300  0.79360200  0.58313500  1
  O  661  1  0.21677700  0.98144000  0.24759000  1
  O  662  1  0.15348100  0.06341700  0.22987400  1
  O  663  1  0.22232100  0.97816000  0.27872000  1
  O  664  1  0.18860200  0.06898800  0.24425700  1
  O  685  1  0.21670000  0.01519400  0.72907300  1
  O  686  1  0.15343000  0.93324200  0.74685700  1
  O  687  1  0.22228500  0.01842900  0.69794300  1
  O  688  1  0.18856900  0.92767100  0.73250500  1
  O  709  1  0.21679100  0.73905200  0.97146600  1
  O  710  1  0.15349100  0.75676300  0.05343500  1
  O  711  1  0.22237400  0.70792500  0.96819600  1
  O  712  1  0.18862000  0.74240000  0.05902000  1
  O  733  1  0.21668800  0.25756800  0.00521800  1
  O  734  1  0.15342400  0.23978300  0.92325600  1
  O  735  1  0.22223200  0.28870300  0.00846300  1
  O  736  1  0.18855400  0.25415800  0.91769800  1
  O  757  1  0.68424700  0.01519400  0.24760300  1
  O  758  1  0.74753700  0.93321400  0.22988100  1
  O  759  1  0.67870900  0.01847300  0.27873400  1
  O  760  1  0.71242000  0.92764400  0.24426800  1
  O  781  1  0.68431600  0.98143500  0.72906100  1
  O  782  1  0.74758000  0.06339500  0.74685400  1
  O  783  1  0.67874800  0.97819900  0.69792900  1
  O  784  1  0.71244800  0.06896600  0.73249100  1
  O  805  1  0.68425100  0.25758400  0.97145400  1
  O  806  1  0.74754600  0.23986100  0.05342500  1
  O  807  1  0.67867000  0.28871100  0.96819100  1
  O  808  1  0.71241400  0.25422000  0.05900500  1
  O  829  1  0.68433100  0.73905100  0.00521500  1
  O  830  1  0.74759400  0.75684200  0.92325300  1
  O  831  1  0.67879800  0.70791600  0.00846000  1
  O  832  1  0.71247100  0.74245900  0.91769300  1
  O  853  1  0.70981700  0.48022300  0.73406900  1
  O  854  1  0.64837900  0.56559100  0.71729800  1
  O  855  1  0.71665300  0.48050400  0.76522200  1
  O  856  1  0.68541400  0.56892300  0.72916900  1
  O  877  1  0.70973200  0.51632900  0.24258900  1
  O  878  1  0.64824500  0.43100600  0.25940200  1
  O  879  1  0.71654500  0.51600500  0.21143400  1
  O  880  1  0.68527400  0.42768200  0.24751500  1
  O  901  1  0.70984200  0.25260400  0.47024600  1
  O  902  1  0.64834300  0.26938400  0.55559800  1
  O  903  1  0.71669300  0.22145300  0.47055400  1
  O  904  1  0.68538200  0.25752500  0.55894300  1
  O  925  1  0.70968500  0.74408600  0.50635000  1
  O  926  1  0.64826700  0.72728000  0.42102000  1
  O  927  1  0.71650800  0.77524100  0.50605100  1
  O  928  1  0.68529200  0.73917600  0.41770800  1
  O  949  1  0.19118400  0.51640800  0.73409700  1
  O  950  1  0.25262300  0.43105600  0.71730600  1
  O  951  1  0.18433300  0.51613800  0.76524700  1
  O  952  1  0.21558800  0.42770800  0.72917700  1
  O  973  1  0.19131600  0.48030900  0.24258500  1
  O  974  1  0.25279900  0.56562000  0.25940200  1
  O  975  1  0.18448100  0.48063400  0.21143300  1
  O  976  1  0.21576700  0.56894800  0.24751800  1
  O  997  1  0.19116200  0.74404600  0.47024500  1
  O  998  1  0.25265900  0.72725200  0.55558700  1
  O  999  1  0.18430500  0.77519600  0.47054500  1
  O  1000  1  0.21562000  0.73911300  0.55894400  1
  O  1021  1  0.19133900  0.25253600  0.50634200  1
  O  1022  1  0.25276100  0.26934600  0.42102200  1
  O  1023  1  0.18451200  0.22138200  0.50605000  1
  O  1024  1  0.21573400  0.25745200  0.41770200  1
  O  1045  1  0.20170400  0.10966500  0.35826100  1
  O  1046  1  0.26759000  0.15114200  0.37926700  1
  O  1047  1  0.16661900  0.12187000  0.36768700  1
  O  1048  1  0.28472300  0.16252900  0.35299300  1
  O  1069  1  0.20172400  0.88695400  0.61845300  1
  O  1070  1  0.26756200  0.84548900  0.59732900  1
  O  1071  1  0.16663400  0.87472600  0.60906700  1
  O  1072  1  0.28477400  0.83410200  0.62356900  1
  O  1093  1  0.20170200  0.62837300  0.09972300  1
  O  1094  1  0.26758600  0.60737000  0.14118800  1
  O  1095  1  0.16661500  0.61895000  0.11192600  1
  O  1096  1  0.28472500  0.63364200  0.15256900  1
  O  1117  1  0.20172200  0.36818400  0.87700900  1
  O  1118  1  0.26756200  0.38930900  0.83553300  1
  O  1119  1  0.16663300  0.37757500  0.86478000  1
  O  1120  1  0.28476800  0.36306800  0.82414200  1
  O  1141  1  0.69934700  0.88697400  0.35827700  1
  O  1142  1  0.63345600  0.84549600  0.37928700  1
  O  1143  1  0.73443200  0.87477000  0.36770100  1
  O  1144  1  0.61632300  0.83411500  0.35301300  1
  O  1165  1  0.69936300  0.10966400  0.61842200  1
  O  1166  1  0.63350700  0.15112200  0.59729400  1
  O  1167  1  0.73445700  0.12188900  0.60904200  1
  O  1168  1  0.61629700  0.16249800  0.62354000  1
  O  1189  1  0.69931400  0.36825500  0.09970300  1
  O  1190  1  0.63343800  0.38928000  0.14117600  1
  O  1191  1  0.73440200  0.37767700  0.11190500  1
  O  1192  1  0.61629500  0.36300900  0.15255900  1
  O  1213  1  0.69936900  0.62841100  0.87702600  1
  O  1214  1  0.63350900  0.60728200  0.83555800  1
  O  1215  1  0.73446100  0.61902700  0.86480000  1
  O  1216  1  0.61630500  0.63352900  0.82417800  1
  O  1237  1  0.70267300  0.89891100  0.61691200  1
  O  1238  1  0.63430200  0.85330300  0.58667400  1
  O  1239  1  0.73936200  0.88789700  0.61026300  1
  O  1240  1  0.61829300  0.84102000  0.61294900  1
  O  1261  1  0.70292700  0.09772300  0.35971400  1
  O  1262  1  0.63456600  0.14324000  0.39003700  1
  O  1263  1  0.73962700  0.10874400  0.36630700  1
  O  1264  1  0.61848700  0.15549200  0.36377400  1
  O  1285  1  0.70263900  0.36968900  0.88887800  1
  O  1286  1  0.63431800  0.39994100  0.84327300  1
  O  1287  1  0.73933000  0.37633100  0.87786500  1
  O  1288  1  0.61828100  0.37367500  0.83099300  1
  O  1309  1  0.70296600  0.62687400  0.08769100  1
  O  1310  1  0.63454800  0.59656100  0.13321500  1
  O  1311  1  0.73966500  0.62027800  0.09872100  1
  O  1312  1  0.61849500  0.62283500  0.14546600  1
  O  1333  1  0.19837700  0.09773200  0.61691700  1
  O  1334  1  0.26674600  0.14334300  0.58668300  1
  O  1335  1  0.16168800  0.10874900  0.61026600  1
  O  1336  1  0.28275500  0.15562900  0.61295700  1
  O  1357  1  0.19811500  0.89890400  0.35969800  1
  O  1358  1  0.26647000  0.85338900  0.39002200  1
  O  1359  1  0.16141400  0.88788000  0.36629400  1
  O  1360  1  0.28255200  0.84113300  0.36376200  1
  O  1381  1  0.19841800  0.62696800  0.88887200  1
  O  1382  1  0.26672600  0.59671900  0.84326700  1
  O  1383  1  0.16172600  0.62032200  0.87786100  1
  O  1384  1  0.28276500  0.62298100  0.83097700  1
  O  1405  1  0.19806600  0.36974700  0.08769600  1
  O  1406  1  0.26648000  0.40005600  0.13321300  1
  O  1407  1  0.16136800  0.37634500  0.09872400  1
  O  1408  1  0.28253500  0.37378500  0.14546700  1
  O  1429  1  0.10951400  0.22003700  0.19861400  1
  O  1430  1  0.07116200  0.18262300  0.24860200  1
  O  1431  1  0.13630400  0.20365900  0.18165900  1
  O  1432  1  0.03246600  0.17920500  0.24064100  1
  O  1453  1  0.10946800  0.77652500  0.77811100  1
  O  1454  1  0.07109900  0.81391600  0.72813500  1
  O  1455  1  0.13628400  0.79289900  0.79504200  1
  O  1456  1  0.03241200  0.81736600  0.73610700  1
  O  1477  1  0.10950100  0.78805800  0.21002200  1
  O  1478  1  0.07114400  0.73806700  0.17263300  1
  O  1479  1  0.13629900  0.80499900  0.19363900  1
  O  1480  1  0.03245000  0.74603000  0.16920600  1
  O  1501  1  0.10948500  0.20856500  0.76650900  1
  O  1502  1  0.07112200  0.25853800  0.80392800  1
  O  1503  1  0.13629500  0.19162000  0.78287400  1
  O  1504  1  0.03243400  0.25056300  0.80736700  1
  O  1525  1  0.79150700  0.77659200  0.19861600  1
  O  1526  1  0.82986000  0.81401000  0.24860400  1
  O  1527  1  0.76471300  0.79296600  0.18166200  1
  O  1528  1  0.86855400  0.81742800  0.24063800  1
  O  1549  1  0.79155400  0.22010300  0.77810600  1
  O  1550  1  0.82991900  0.18270600  0.72813300  1
  O  1551  1  0.76474000  0.20373400  0.79504200  1
  O  1552  1  0.86860800  0.17926100  0.73610700  1
  O  1573  1  0.79153000  0.20857700  0.21003900  1
  O  1574  1  0.82988200  0.25857200  0.17265300  1
  O  1575  1  0.76473100  0.19164000  0.19365600  1
  O  1576  1  0.86857600  0.25061200  0.16922300  1
  O  1597  1  0.79154400  0.78806900  0.76651200  1
  O  1598  1  0.82990600  0.73809700  0.80393200  1
  O  1599  1  0.76473500  0.80501800  0.78287700  1
  O  1600  1  0.86859400  0.74607000  0.80737000  1
  O  1621  1  0.60288300  0.72872000  0.70229500  1
  O  1622  1  0.56792600  0.68873700  0.75199300  1
  O  1623  1  0.62791400  0.71146700  0.68455000  1
  O  1624  1  0.52853000  0.68575300  0.74633300  1
  O  1645  1  0.60285000  0.26785700  0.27438500  1
  O  1646  1  0.56780300  0.30780900  0.22472400  1
  O  1647  1  0.62790000  0.28511000  0.29211300  1
  O  1648  1  0.52841200  0.31079700  0.23041600  1
  O  1669  1  0.60282200  0.28437500  0.71871200  1
  O  1670  1  0.56788300  0.23467500  0.67874000  1
  O  1671  1  0.62785500  0.30210900  0.70145200  1
  O  1672  1  0.52848500  0.24032700  0.67575400  1
  O  1693  1  0.60290100  0.71228600  0.25783900  1
  O  1694  1  0.56783800  0.76195200  0.29779900  1
  O  1695  1  0.62794700  0.69455100  0.27508800  1
  O  1696  1  0.52845100  0.75625200  0.30078900  1
  O  1717  1  0.29816000  0.26796700  0.70226400  1
  O  1718  1  0.33314100  0.30794300  0.75195000  1
  O  1719  1  0.27312800  0.28521600  0.68451900  1
  O  1720  1  0.37253500  0.31093100  0.74628100  1
  O  1741  1  0.29819400  0.72877800  0.27440400  1
  O  1742  1  0.33324100  0.68883200  0.22473800  1
  O  1743  1  0.27313900  0.71152100  0.29212500  1
  O  1744  1  0.37263200  0.68584000  0.23043200  1
  O  1765  1  0.29821700  0.71221900  0.71866300  1
  O  1766  1  0.33318000  0.76190500  0.67869700  1
  O  1767  1  0.27317500  0.69448700  0.70140700  1
  O  1768  1  0.37257700  0.75624400  0.67570600  1
  O  1789  1  0.29813100  0.28435600  0.25784900  1
  O  1790  1  0.33319800  0.23469500  0.29780700  1
  O  1791  1  0.27308400  0.30209200  0.27509600  1
  O  1792  1  0.37258500  0.24039500  0.30079500  1
  O  1813  1  0.97032800  0.05552400  0.28846100  1
  O  1814  1  0.86490600  0.12253800  0.30904000  1
  O  1815  1  0.96558700  0.05595400  0.25711100  1
  O  1816  1  0.87652900  0.14805900  0.29279100  1
  O  1837  1  0.97047300  0.94106800  0.68817400  1
  O  1838  1  0.86503600  0.87409000  0.66749300  1
  O  1839  1  0.96568100  0.94063800  0.71951900  1
  O  1840  1  0.87662500  0.84856600  0.68375300  1
  O  1861  1  0.97033200  0.69813200  0.04557000  1
  O  1862  1  0.86494100  0.67755700  0.11260800  1
  O  1863  1  0.96558100  0.72948200  0.04599600  1
  O  1864  1  0.87656800  0.69380400  0.13812800  1
  O  1885  1  0.97046300  0.29842500  0.93110400  1
  O  1886  1  0.86500600  0.31910800  0.86414100  1
  O  1887  1  0.96567900  0.26707800  0.93067300  1
  O  1888  1  0.87659000  0.30284600  0.83861600  1
  O  1909  1  0.93070100  0.94110600  0.28845500  1
  O  1910  1  0.03612000  0.87409200  0.30903000  1
  O  1911  1  0.93544000  0.94067800  0.25710400  1
  O  1912  1  0.02449900  0.84857000  0.29278000  1
  O  1933  1  0.93055900  0.05556300  0.68817500  1
  O  1934  1  0.03599200  0.12254400  0.66749500  1
  O  1935  1  0.93535500  0.05598900  0.71952100  1
  O  1936  1  0.02440300  0.14806700  0.68375600  1
  O  1957  1  0.93068300  0.29850800  0.04558300  1
  O  1958  1  0.03609200  0.31907700  0.11260900  1
  O  1959  1  0.93542800  0.26715800  0.04601100  1
  O  1960  1  0.02446500  0.30283000  0.13813100  1
  O  1981  1  0.93056700  0.69821400  0.93111100  1
  O  1982  1  0.03603400  0.67753700  0.86415600  1
  O  1983  1  0.93535300  0.72956100  0.93068400  1
  O  1984  1  0.02445200  0.69379900  0.83863200  1
  O  2005  1  0.47888000  0.55760200  0.79496600  1
  O  2006  1  0.36932800  0.62187700  0.82033400  1
  O  2007  1  0.47028000  0.55872400  0.76416000  1
  O  2008  1  0.38092700  0.64813200  0.80526900  1
  O  2029  1  0.47886800  0.43894900  0.18165900  1
  O  2030  1  0.36940000  0.37464600  0.15614300  1
  O  2031  1  0.47019500  0.43784600  0.21245300  1
  O  2032  1  0.38096400  0.34840300  0.17124600  1
  O  2053  1  0.47884500  0.19164900  0.54763400  1
  O  2054  1  0.36933000  0.16626900  0.61193500  1
  O  2055  1  0.47023300  0.22245200  0.54876600  1
  O  2056  1  0.38093700  0.18132300  0.63819300  1
  O  2077  1  0.47891000  0.80495300  0.42898400  1
  O  2078  1  0.36939400  0.83045700  0.36471700  1
  O  2079  1  0.47025100  0.77415600  0.42788200  1
  O  2080  1  0.38094800  0.81535000  0.33847300  1
  O  2101  1  0.42217300  0.43905000  0.79498000  1
  O  2102  1  0.53167100  0.37472400  0.82035400  1
  O  2103  1  0.43079300  0.43793900  0.76417700  1
  O  2104  1  0.52006200  0.34847800  0.80528000  1
  O  2125  1  0.42215900  0.55769200  0.18165800  1
  O  2126  1  0.53163100  0.62199100  0.15614100  1
  O  2127  1  0.43083400  0.55879300  0.21245000  1
  O  2128  1  0.52006800  0.64823600  0.17124400  1
  O  2149  1  0.42220500  0.80499200  0.54761800  1
  O  2150  1  0.53166900  0.83037700  0.61196400  1
  O  2151  1  0.43083600  0.77419000  0.54873000  1
  O  2152  1  0.52005400  0.81530600  0.63821400  1
  O  2173  1  0.42213200  0.19167400  0.42897200  1
  O  2174  1  0.53163100  0.16616800  0.36469100  1
  O  2175  1  0.43079500  0.22246900  0.42787400  1
  O  2176  1  0.52007400  0.18127700  0.33844900  1
