# generated using pymatgen
data_H32C49(N3O)4
_symmetry_space_group_name_H-M   'P 1'
_cell_length_a   37.55470000
_cell_length_b   55.57850000
_cell_length_c   55.57860000
_cell_angle_alpha   90.00000000
_cell_angle_beta   89.99470000
_cell_angle_gamma   90.00000000
_symmetry_Int_Tables_number   1
_chemical_formula_structural   H32C49(N3O)4
_chemical_formula_sum   'H512 C784 N192 O64'
_cell_volume   116005.53720198
_cell_formula_units_Z   16
loop_
 _symmetry_equiv_pos_site_id
 _symmetry_equiv_pos_as_xyz
  1  'x, y, z'
loop_
 _atom_site_type_symbol
 _atom_site_label
 _atom_site_symmetry_multiplicity
 _atom_site_fract_x
 _atom_site_fract_y
 _atom_site_fract_z
 _atom_site_occupancy
  H  25  1  0.02456700  0.20517800  0.03846600  1
  H  26  1  0.01634400  0.16478000  0.05100200  1
  H  27  1  0.00541900  0.12542800  0.07123200  1
  H  28  1  0.00056700  0.09163100  0.09769500  1
  H  29  1  0.99323400  0.13861500  0.15750700  1
  H  30  1  0.00334900  0.22929200  0.10937900  1
  H  31  1  0.07646200  0.18363200  0.12505400  1
  H  32  1  0.09172800  0.20931100  0.19609100  1
  H  33  1  0.02892100  0.20916300  0.20253500  1
  H  34  1  0.92421200  0.19014000  0.11971800  1
  H  35  1  0.96461100  0.21230300  0.20016100  1
  H  36  1  0.90374000  0.21838100  0.18923100  1
  H  70  1  0.02464500  0.79820600  0.85753100  1
  H  71  1  0.01658600  0.83860300  0.84492000  1
  H  72  1  0.00584300  0.87795200  0.82459800  1
  H  73  1  0.00083000  0.91169400  0.79807800  1
  H  74  1  0.99293300  0.86458200  0.73840300  1
  H  75  1  0.00302100  0.77400000  0.78669900  1
  H  76  1  0.07626900  0.81952700  0.77055000  1
  H  77  1  0.09067100  0.79373800  0.69945300  1
  H  78  1  0.02779500  0.79393100  0.69335000  1
  H  79  1  0.92412400  0.81320400  0.77672900  1
  H  80  1  0.96355200  0.79048500  0.69622600  1
  H  81  1  0.90281100  0.78448800  0.70752800  1
  H  115  1  0.02560900  0.91091300  0.15134300  1
  H  116  1  0.01759500  0.89824200  0.11093100  1
  H  117  1  0.00663200  0.87784200  0.07159800  1
  H  118  1  0.00114200  0.85123500  0.03795200  1
  H  119  1  0.99145000  0.79185200  0.08529400  1
  H  120  1  0.00221500  0.84038700  0.17567700  1
  H  121  1  0.07541800  0.82251700  0.12865700  1
  H  122  1  0.08732000  0.75261200  0.15813600  1
  H  123  1  0.02440600  0.74769900  0.15870200  1
  H  124  1  0.92309300  0.83126200  0.13552200  1
  H  125  1  0.96029800  0.75107600  0.16093700  1
  H  126  1  0.89965500  0.76308400  0.16590800  1
  H  160  1  0.02421000  0.09213800  0.74449800  1
  H  161  1  0.01603700  0.10472400  0.78488100  1
  H  162  1  0.00530000  0.12502100  0.82421900  1
  H  163  1  0.00050600  0.15151600  0.85799500  1
  H  164  1  0.99335100  0.21129900  0.81096300  1
  H  165  1  0.00333600  0.16307900  0.72032400  1
  H  166  1  0.07650900  0.17875400  0.76608900  1
  H  167  1  0.09194200  0.24976700  0.74035500  1
  H  168  1  0.02914500  0.25623400  0.74039000  1
  H  169  1  0.92422500  0.17353100  0.75947400  1
  H  170  1  0.96485400  0.25385900  0.73707600  1
  H  171  1  0.90395300  0.24298600  0.73102900  1
  H  205  1  0.51725900  0.70518400  0.53824000  1
  H  206  1  0.51125100  0.66503900  0.55192700  1
  H  207  1  0.50334000  0.62606500  0.57340500  1
  H  208  1  0.50018500  0.59279200  0.60063400  1
  H  209  1  0.49520300  0.64092900  0.65966800  1
  H  210  1  0.50089300  0.73059500  0.60931700  1
  H  211  1  0.57602400  0.68227200  0.62602000  1
  H  212  1  0.59363000  0.71885800  0.69188800  1
  H  213  1  0.53070000  0.72065800  0.69879700  1
  H  214  1  0.42242900  0.68629600  0.62325500  1
  H  215  1  0.46591800  0.72058900  0.69848300  1
  H  216  1  0.40363000  0.72099600  0.69002500  1
  H  250  1  0.51655300  0.29802000  0.35792000  1
  H  251  1  0.51025000  0.33810200  0.34413100  1
  H  252  1  0.50223300  0.37698000  0.32258400  1
  H  253  1  0.49931700  0.41020500  0.29529800  1
  H  254  1  0.49511800  0.36198000  0.23630300  1
  H  255  1  0.50101300  0.27239700  0.28684000  1
  H  256  1  0.57576000  0.32094000  0.27030400  1
  H  257  1  0.59417000  0.28447100  0.20447000  1
  H  258  1  0.53130500  0.28238200  0.19738100  1
  H  259  1  0.42209100  0.31665100  0.27239200  1
  H  260  1  0.46654300  0.28219900  0.19748400  1
  H  261  1  0.40418100  0.28173500  0.20561700  1
  H  295  1  0.51618000  0.41142300  0.65163800  1
  H  296  1  0.51001300  0.39766800  0.61154400  1
  H  297  1  0.50213400  0.37614300  0.57264300  1
  H  298  1  0.49922900  0.34889500  0.53939300  1
  H  299  1  0.49500000  0.28984800  0.58755400  1
  H  300  1  0.50069600  0.34030900  0.67718800  1
  H  301  1  0.57559000  0.32379000  0.62863800  1
  H  302  1  0.59391000  0.25804400  0.66528800  1
  H  303  1  0.53104700  0.25095800  0.66733000  1
  H  304  1  0.42188600  0.32586700  0.63279100  1
  H  305  1  0.46631200  0.25109200  0.66753400  1
  H  306  1  0.40395200  0.25920100  0.66791600  1
  H  340  1  0.51658500  0.59151300  0.24455500  1
  H  341  1  0.51084100  0.60521900  0.28469800  1
  H  342  1  0.50324700  0.62669700  0.32368300  1
  H  343  1  0.50027000  0.65390200  0.35698000  1
  H  344  1  0.49592200  0.71300700  0.30890300  1
  H  345  1  0.50124500  0.66271600  0.21918600  1
  H  346  1  0.57648700  0.67916500  0.26722700  1
  H  347  1  0.59422400  0.74512900  0.23083600  1
  H  348  1  0.53132600  0.75225800  0.22935700  1
  H  349  1  0.42298800  0.67670700  0.26354300  1
  H  350  1  0.46645800  0.75223500  0.22989600  1
  H  351  1  0.40411400  0.74383800  0.22957400  1
  H  367  1  0.97619200  0.03088600  0.11436000  1
  H  374  1  0.06252800  0.94301500  0.20427500  1
  H  375  1  0.96062200  0.92481400  0.17912100  1
  H  376  1  0.99060800  0.05524900  0.18527800  1
  H  378  1  0.06221500  0.00286100  0.18133400  1
  H  379  1  0.08508600  0.98234100  0.19639200  1
  H  381  1  0.98229800  0.98914100  0.10609600  1
  H  382  1  0.99299400  0.96926600  0.12706200  1
  H  384  1  0.02402200  0.90813300  0.21982600  1
  H  386  1  0.96242800  0.07127900  0.12493800  1
  H  393  1  0.97583800  0.97244700  0.78130300  1
  H  400  1  0.06242200  0.06044800  0.69176300  1
  H  401  1  0.96000200  0.07829900  0.71620400  1
  H  402  1  0.99074700  0.94794200  0.71048000  1
  H  404  1  0.06213100  0.00056100  0.71461900  1
  H  405  1  0.08510300  0.02116300  0.69973800  1
  H  407  1  0.98178900  0.01421300  0.78948400  1
  H  408  1  0.99249600  0.03405500  0.76848400  1
  H  410  1  0.02356500  0.09522400  0.67593700  1
  H  412  1  0.96246000  0.93201600  0.77088800  1
  H  419  1  0.97555000  0.83482900  0.97739900  1
  H  426  1  0.06249200  0.74540600  0.88940600  1
  H  427  1  0.96026600  0.77003100  0.87131000  1
  H  428  1  0.99019000  0.76392100  0.00172800  1
  H  430  1  0.06191300  0.76817200  0.94932400  1
  H  431  1  0.08496200  0.75329300  0.92875900  1
  H  433  1  0.98166100  0.84312200  0.93566100  1
  H  434  1  0.99244300  0.82218100  0.91578000  1
  H  436  1  0.02400400  0.72970800  0.85450800  1
  H  438  1  0.96196700  0.82433100  0.01775900  1
  H  445  1  0.97592500  0.16833400  0.91877700  1
  H  452  1  0.06257900  0.25790700  0.00676900  1
  H  453  1  0.96020400  0.23340500  0.02466400  1
  H  454  1  0.99098100  0.23915300  0.89430600  1
  H  456  1  0.06236800  0.23487100  0.94695500  1
  H  457  1  0.08532500  0.24979400  0.96753300  1
  H  459  1  0.98173600  0.16013900  0.96055500  1
  H  460  1  0.99246900  0.18111500  0.98041100  1
  H  462  1  0.02379100  0.27371000  0.04156800  1
  H  464  1  0.96246800  0.17883100  0.87835600  1
  H  471  1  0.47068900  0.53352100  0.61766000  1
  H  478  1  0.56081400  0.44160800  0.70243000  1
  H  479  1  0.45513600  0.42768500  0.68214500  1
  H  480  1  0.49648100  0.55652600  0.68755100  1
  H  482  1  0.56344200  0.50147100  0.67946200  1
  H  483  1  0.58600100  0.47999800  0.69337300  1
  H  485  1  0.47295800  0.49178200  0.60864800  1
  H  486  1  0.48524700  0.47134000  0.62864700  1
  H  488  1  0.51783600  0.40904100  0.72065700  1
  H  490  1  0.46124700  0.57397700  0.62911100  1
  H  497  1  0.47032700  0.46936800  0.27823100  1
  H  504  1  0.56083500  0.56137900  0.19362800  1
  H  505  1  0.45527200  0.57536100  0.21412600  1
  H  506  1  0.49641200  0.44646400  0.20835300  1
  H  508  1  0.56341800  0.50146200  0.21645100  1
  H  509  1  0.58597200  0.52294300  0.20254700  1
  H  511  1  0.47288100  0.51106200  0.28736900  1
  H  512  1  0.48538800  0.53152000  0.26744900  1
  H  514  1  0.51778300  0.59401700  0.17554100  1
  H  516  1  0.46073300  0.42895700  0.26665100  1
  H  523  1  0.47058500  0.33182200  0.48011400  1
  H  530  1  0.56108000  0.24711700  0.38829500  1
  H  531  1  0.45554900  0.26756900  0.37413400  1
  H  532  1  0.49613000  0.26188300  0.50309500  1
  H  534  1  0.56341500  0.26993900  0.44821300  1
  H  535  1  0.58606000  0.25604100  0.42677200  1
  H  537  1  0.47315200  0.34090100  0.43840000  1
  H  538  1  0.48555000  0.32092600  0.41796400  1
  H  540  1  0.51845700  0.22902700  0.35559900  1
  H  542  1  0.46078600  0.32029500  0.52050500  1
  H  549  1  0.47146400  0.67099300  0.41626800  1
  H  556  1  0.56100800  0.75634100  0.50788200  1
  H  557  1  0.45576700  0.73529600  0.52220300  1
  H  558  1  0.49623600  0.74102700  0.39318000  1
  H  560  1  0.56354300  0.73331000  0.44805300  1
  H  561  1  0.58606000  0.74738000  0.46944100  1
  H  563  1  0.47409800  0.66199800  0.45799800  1
  H  564  1  0.48623700  0.68207600  0.47840200  1
  H  566  1  0.51840400  0.77415700  0.54069000  1
  H  568  1  0.46163300  0.68242200  0.37582500  1
  H  575  1  0.69906000  0.25642300  0.25682900  1
  H  582  1  0.83764500  0.27820500  0.15460000  1
  H  583  1  0.80986900  0.20789900  0.17513100  1
  H  584  1  0.66721300  0.29676400  0.19672300  1
  H  586  1  0.76993000  0.30716900  0.18830900  1
  H  587  1  0.80362500  0.31082500  0.16952000  1
  H  589  1  0.75612900  0.23766500  0.25628700  1
  H  590  1  0.78348400  0.23948600  0.23304300  1
  H  592  1  0.88019100  0.24651400  0.15434800  1
  H  594  1  0.63337700  0.26720400  0.24434400  1
  H  601  1  0.69897800  0.74704000  0.63986100  1
  H  608  1  0.83694400  0.72502800  0.74259400  1
  H  609  1  0.80972000  0.79525300  0.72150600  1
  H  610  1  0.66701400  0.70643300  0.69976600  1
  H  612  1  0.76961100  0.69600100  0.70862400  1
  H  613  1  0.80300400  0.69239000  0.72766000  1
  H  615  1  0.75624100  0.76551500  0.64042300  1
  H  616  1  0.78358500  0.76351200  0.66366000  1
  H  618  1  0.87962900  0.75664100  0.74284800  1
  H  620  1  0.63304400  0.73630900  0.65265300  1
  H  627  1  0.69981900  0.69331400  0.20250400  1
  H  634  1  0.83453200  0.79851500  0.22392800  1
  H  635  1  0.80858800  0.77601900  0.15390300  1
  H  636  1  0.66678500  0.75308900  0.24291400  1
  H  638  1  0.76916600  0.76310600  0.25324900  1
  H  639  1  0.80152100  0.78297300  0.25669100  1
  H  641  1  0.75696500  0.69436000  0.18383700  1
  H  642  1  0.78389400  0.71782200  0.18575600  1
  H  644  1  0.87696600  0.80025500  0.19258200  1
  H  646  1  0.63357200  0.70582800  0.21317600  1
  H  653  1  0.69867400  0.31041800  0.69342000  1
  H  660  1  0.83784200  0.20853200  0.67129300  1
  H  661  1  0.80987200  0.22885600  0.74163100  1
  H  662  1  0.66740800  0.25046400  0.65263600  1
  H  664  1  0.77030800  0.24241400  0.64236900  1
  H  665  1  0.80400300  0.22362800  0.63868300  1
  H  667  1  0.75578300  0.31000500  0.71211900  1
  H  668  1  0.78332900  0.28687300  0.71016600  1
  H  670  1  0.88027800  0.20815900  0.70302700  1
  H  672  1  0.63302300  0.29752700  0.68258900  1
  H  679  1  0.28426300  0.73813700  0.26152000  1
  H  686  1  0.18089800  0.73044600  0.13958300  1
  H  687  1  0.18391800  0.79527300  0.17862900  1
  H  688  1  0.33851400  0.71668000  0.19905700  1
  H  690  1  0.24292600  0.69965100  0.17618900  1
  H  691  1  0.21697000  0.69811100  0.15222600  1
  H  693  1  0.22433600  0.75176100  0.25797800  1
  H  694  1  0.20325500  0.75331600  0.23189900  1
  H  696  1  0.13791700  0.75845600  0.13212500  1
  H  698  1  0.35199300  0.73583400  0.25702500  1
  H  705  1  0.28840900  0.25711900  0.63581000  1
  H  712  1  0.16714700  0.27228300  0.74810900  1
  H  713  1  0.19922300  0.20274000  0.72774800  1
  H  714  1  0.33149000  0.29204600  0.69619400  1
  H  716  1  0.22627100  0.30320900  0.70891900  1
  H  717  1  0.19550100  0.30601900  0.73006600  1
  H  719  1  0.23135700  0.23847200  0.63945900  1
  H  720  1  0.20849900  0.23845000  0.66494500  1
  H  722  1  0.14371600  0.23848200  0.76817800  1
  H  724  1  0.35261100  0.26578800  0.64057600  1
  H  731  1  0.28812600  0.31379400  0.20431300  1
  H  738  1  0.16795700  0.20091200  0.21861700  1
  H  739  1  0.19867800  0.22245600  0.14914500  1
  H  740  1  0.33235200  0.25303300  0.23789800  1
  H  742  1  0.22754700  0.23965000  0.24966700  1
  H  743  1  0.19691300  0.21840400  0.25238900  1
  H  745  1  0.23087500  0.31018100  0.18592600  1
  H  746  1  0.20824400  0.28460800  0.18565600  1
  H  748  1  0.14366800  0.18155900  0.18482500  1
  H  750  1  0.35266100  0.30899300  0.21239300  1
  H  757  1  0.28648300  0.68895300  0.68896200  1
  H  764  1  0.17057100  0.80399900  0.67696600  1
  H  765  1  0.19656900  0.77875000  0.74609000  1
  H  766  1  0.33439200  0.75042800  0.65920800  1
  H  768  1  0.23124400  0.76626700  0.64575100  1
  H  769  1  0.20129700  0.78797900  0.64325300  1
  H  771  1  0.22837600  0.69263100  0.70607800  1
  H  772  1  0.20659900  0.71852400  0.70702400  1
  H  774  1  0.14272800  0.82098800  0.71029900  1
  H  776  1  0.35200100  0.69347100  0.68261400  1
  H  801  1  0.21096200  0.42108900  0.23638400  1
  H  802  1  0.20273900  0.38069100  0.24892000  1
  H  803  1  0.19181400  0.34133900  0.26915000  1
  H  804  1  0.18696200  0.30754200  0.29561300  1
  H  805  1  0.17962900  0.35452600  0.35542500  1
  H  806  1  0.18974400  0.44520300  0.30729700  1
  H  807  1  0.26285700  0.39954300  0.32297200  1
  H  808  1  0.27812300  0.42522200  0.39400900  1
  H  809  1  0.21531600  0.42507400  0.40045300  1
  H  810  1  0.11060700  0.40605100  0.31763600  1
  H  811  1  0.15100600  0.42821400  0.39807900  1
  H  812  1  0.09013480  0.43429200  0.38714900  1
  H  846  1  0.21104000  0.01411680  0.05544890  1
  H  847  1  0.20298100  0.05451380  0.04283790  1
  H  848  1  0.19223800  0.09386280  0.02251590  1
  H  849  1  0.18722500  0.12760500  0.99599600  1
  H  850  1  0.17932800  0.08049280  0.93632100  1
  H  851  1  0.18941600  0.98991100  0.98461700  1
  H  852  1  0.26266400  0.03543780  0.96846800  1
  H  853  1  0.27706600  0.00964883  0.89737100  1
  H  854  1  0.21419000  0.00984183  0.89126800  1
  H  855  1  0.11051900  0.02911480  0.97464700  1
  H  856  1  0.14994700  0.00639583  0.89414400  1
  H  857  1  0.08920580  0.00039883  0.90544600  1
  H  891  1  0.21200400  0.12682400  0.34926100  1
  H  892  1  0.20399000  0.11415300  0.30884900  1
  H  893  1  0.19302700  0.09375280  0.26951600  1
  H  894  1  0.18753700  0.06714580  0.23587000  1
  H  895  1  0.17784500  0.00776283  0.28321200  1
  H  896  1  0.18861000  0.05629780  0.37359500  1
  H  897  1  0.26181300  0.03842780  0.32657500  1
  H  898  1  0.27371500  0.96852300  0.35605400  1
  H  899  1  0.21080100  0.96361000  0.35662000  1
  H  900  1  0.10948800  0.04717280  0.33344000  1
  H  901  1  0.14669300  0.96698700  0.35885500  1
  H  902  1  0.08604980  0.97899500  0.36382600  1
  H  936  1  0.21060500  0.30804900  0.94241600  1
  H  937  1  0.20243200  0.32063500  0.98279900  1
  H  938  1  0.19169500  0.34093200  0.02213690  1
  H  939  1  0.18690100  0.36742700  0.05591290  1
  H  940  1  0.17974600  0.42721000  0.00888090  1
  H  941  1  0.18973100  0.37899000  0.91824200  1
  H  942  1  0.26290400  0.39466500  0.96400700  1
  H  943  1  0.27833700  0.46567800  0.93827300  1
  H  944  1  0.21554000  0.47214500  0.93830800  1
  H  945  1  0.11062000  0.38944200  0.95739200  1
  H  946  1  0.15124900  0.46977000  0.93499400  1
  H  947  1  0.09034780  0.45889700  0.92894700  1
  H  981  1  0.70365400  0.92109500  0.73615800  1
  H  982  1  0.69764600  0.88095000  0.74984500  1
  H  983  1  0.68973500  0.84197600  0.77132300  1
  H  984  1  0.68658000  0.80870300  0.79855200  1
  H  985  1  0.68159800  0.85684000  0.85758600  1
  H  986  1  0.68728800  0.94650600  0.80723500  1
  H  987  1  0.76241900  0.89818300  0.82393800  1
  H  988  1  0.78002500  0.93476900  0.88980600  1
  H  989  1  0.71709500  0.93656900  0.89671500  1
  H  990  1  0.60882400  0.90220700  0.82117300  1
  H  991  1  0.65231300  0.93650000  0.89640100  1
  H  992  1  0.59002500  0.93690700  0.88794300  1
  H  1026  1  0.70294800  0.51393100  0.55583800  1
  H  1027  1  0.69664500  0.55401300  0.54204900  1
  H  1028  1  0.68862800  0.59289100  0.52050200  1
  H  1029  1  0.68571200  0.62611600  0.49321600  1
  H  1030  1  0.68151300  0.57789100  0.43422100  1
  H  1031  1  0.68740800  0.48830800  0.48475800  1
  H  1032  1  0.76215500  0.53685100  0.46822200  1
  H  1033  1  0.78056500  0.50038200  0.40238800  1
  H  1034  1  0.71770000  0.49829300  0.39529900  1
  H  1035  1  0.60848600  0.53256200  0.47031000  1
  H  1036  1  0.65293800  0.49811000  0.39540200  1
  H  1037  1  0.59057600  0.49764600  0.40353500  1
  H  1071  1  0.70257500  0.62733400  0.84955600  1
  H  1072  1  0.69640800  0.61357900  0.80946200  1
  H  1073  1  0.68852900  0.59205400  0.77056100  1
  H  1074  1  0.68562400  0.56480600  0.73731100  1
  H  1075  1  0.68139500  0.50575900  0.78547200  1
  H  1076  1  0.68709100  0.55622000  0.87510600  1
  H  1077  1  0.76198500  0.53970100  0.82655600  1
  H  1078  1  0.78030500  0.47395500  0.86320600  1
  H  1079  1  0.71744200  0.46686900  0.86524800  1
  H  1080  1  0.60828100  0.54177800  0.83070900  1
  H  1081  1  0.65270700  0.46700300  0.86545200  1
  H  1082  1  0.59034700  0.47511200  0.86583400  1
  H  1116  1  0.70298000  0.80742400  0.44247300  1
  H  1117  1  0.69723600  0.82113000  0.48261600  1
  H  1118  1  0.68964200  0.84260800  0.52160100  1
  H  1119  1  0.68666500  0.86981300  0.55489800  1
  H  1120  1  0.68231700  0.92891800  0.50682100  1
  H  1121  1  0.68764000  0.87862700  0.41710400  1
  H  1122  1  0.76288200  0.89507600  0.46514500  1
  H  1123  1  0.78061900  0.96104000  0.42875400  1
  H  1124  1  0.71772100  0.96816900  0.42727500  1
  H  1125  1  0.60938300  0.89261800  0.46146100  1
  H  1126  1  0.65285300  0.96814600  0.42781400  1
  H  1127  1  0.59050900  0.95974900  0.42749200  1
  H  1143  1  0.16258700  0.24679700  0.31227800  1
  H  1150  1  0.24892300  0.15892600  0.40219300  1
  H  1151  1  0.14701700  0.14072500  0.37703900  1
  H  1152  1  0.17700300  0.27116000  0.38319600  1
  H  1154  1  0.24861000  0.21877200  0.37925200  1
  H  1155  1  0.27148100  0.19825200  0.39431000  1
  H  1157  1  0.16869300  0.20505200  0.30401400  1
  H  1158  1  0.17938900  0.18517700  0.32498000  1
  H  1160  1  0.21041700  0.12404400  0.41774400  1
  H  1162  1  0.14882300  0.28719000  0.32285600  1
  H  1169  1  0.16223300  0.18835800  0.97922100  1
  H  1176  1  0.24881700  0.27635900  0.88968100  1
  H  1177  1  0.14639700  0.29421000  0.91412200  1
  H  1178  1  0.17714200  0.16385300  0.90839800  1
  H  1180  1  0.24852600  0.21647200  0.91253700  1
  H  1181  1  0.27149800  0.23707400  0.89765600  1
  H  1183  1  0.16818400  0.23012400  0.98740200  1
  H  1184  1  0.17889100  0.24996600  0.96640200  1
  H  1186  1  0.20996000  0.31113500  0.87385500  1
  H  1188  1  0.14885500  0.14792700  0.96880600  1
  H  1195  1  0.16194500  0.05073980  0.17531700  1
  H  1202  1  0.24888700  0.96131700  0.08732390  1
  H  1203  1  0.14666100  0.98594200  0.06922790  1
  H  1204  1  0.17658500  0.97983200  0.19964600  1
  H  1206  1  0.24830800  0.98408300  0.14724200  1
  H  1207  1  0.27135700  0.96920400  0.12667700  1
  H  1209  1  0.16805600  0.05903280  0.13357900  1
  H  1210  1  0.17883800  0.03809180  0.11369800  1
  H  1212  1  0.21039900  0.94561900  0.05242590  1
  H  1214  1  0.14836200  0.04024180  0.21567700  1
  H  1221  1  0.16232000  0.38424500  0.11669500  1
  H  1228  1  0.24897400  0.47381800  0.20468700  1
  H  1229  1  0.14659900  0.44931600  0.22258200  1
  H  1230  1  0.17737600  0.45506400  0.09222390  1
  H  1232  1  0.24876300  0.45078200  0.14487300  1
  H  1233  1  0.27172000  0.46570500  0.16545100  1
  H  1235  1  0.16813100  0.37605000  0.15847300  1
  H  1236  1  0.17886400  0.39702600  0.17832900  1
  H  1238  1  0.21018600  0.48962100  0.23948600  1
  H  1240  1  0.14886300  0.39474200  0.07627390  1
  H  1247  1  0.65708400  0.74943200  0.81557800  1
  H  1254  1  0.74720900  0.65751900  0.90034800  1
  H  1255  1  0.64153100  0.64359600  0.88006300  1
  H  1256  1  0.68287600  0.77243700  0.88546900  1
  H  1258  1  0.74983700  0.71738200  0.87738000  1
  H  1259  1  0.77239600  0.69590900  0.89129100  1
  H  1261  1  0.65935300  0.70769300  0.80656600  1
  H  1262  1  0.67164200  0.68725100  0.82656500  1
  H  1264  1  0.70423100  0.62495200  0.91857500  1
  H  1266  1  0.64764200  0.78988800  0.82702900  1
  H  1273  1  0.65672200  0.68527900  0.47614900  1
  H  1280  1  0.74723000  0.77729000  0.39154600  1
  H  1281  1  0.64166700  0.79127200  0.41204400  1
  H  1282  1  0.68280700  0.66237500  0.40627100  1
  H  1284  1  0.74981300  0.71737300  0.41436900  1
  H  1285  1  0.77236700  0.73885400  0.40046500  1
  H  1287  1  0.65927600  0.72697300  0.48528700  1
  H  1288  1  0.67178300  0.74743100  0.46536700  1
  H  1290  1  0.70417800  0.80992800  0.37345900  1
  H  1292  1  0.64712800  0.64486800  0.46456900  1
  H  1299  1  0.65698000  0.54773300  0.67803200  1
  H  1306  1  0.74747500  0.46302800  0.58621300  1
  H  1307  1  0.64194400  0.48348000  0.57205200  1
  H  1308  1  0.68252500  0.47779400  0.70101300  1
  H  1310  1  0.74981000  0.48585000  0.64613100  1
  H  1311  1  0.77245500  0.47195200  0.62469000  1
  H  1313  1  0.65954700  0.55681200  0.63631800  1
  H  1314  1  0.67194500  0.53683700  0.61588200  1
  H  1316  1  0.70485200  0.44493800  0.55351700  1
  H  1318  1  0.64718100  0.53620600  0.71842300  1
  H  1325  1  0.65785900  0.88690400  0.61418600  1
  H  1332  1  0.74740300  0.97225200  0.70580000  1
  H  1333  1  0.64216200  0.95120700  0.72012100  1
  H  1334  1  0.68263100  0.95693800  0.59109800  1
  H  1336  1  0.74993800  0.94922100  0.64597100  1
  H  1337  1  0.77245500  0.96329100  0.66735900  1
  H  1339  1  0.66049300  0.87790900  0.65591600  1
  H  1340  1  0.67263200  0.89798700  0.67632000  1
  H  1342  1  0.70479900  0.99006800  0.73860800  1
  H  1344  1  0.64802800  0.89833300  0.57374300  1
  H  1351  1  0.88545500  0.47233400  0.45474700  1
  H  1358  1  0.02403980  0.49411600  0.35251800  1
  H  1359  1  0.99626400  0.42381000  0.37304900  1
  H  1360  1  0.85360800  0.51267500  0.39464100  1
  H  1362  1  0.95632500  0.52308000  0.38622700  1
  H  1363  1  0.99002000  0.52673600  0.36743800  1
  H  1365  1  0.94252400  0.45357600  0.45420500  1
  H  1366  1  0.96987900  0.45539700  0.43096100  1
  H  1368  1  0.06658580  0.46242500  0.35226600  1
  H  1370  1  0.81977200  0.48311500  0.44226200  1
  H  1377  1  0.88537300  0.96295100  0.83777900  1
  H  1384  1  0.02333880  0.94093900  0.94051200  1
  H  1385  1  0.99611500  0.01116380  0.91942400  1
  H  1386  1  0.85340900  0.92234400  0.89768400  1
  H  1388  1  0.95600600  0.91191200  0.90654200  1
  H  1389  1  0.98939900  0.90830100  0.92557800  1
  H  1391  1  0.94263600  0.98142600  0.83834100  1
  H  1392  1  0.96998000  0.97942300  0.86157800  1
  H  1394  1  0.06602380  0.97255200  0.94076600  1
  H  1396  1  0.81943900  0.95222000  0.85057100  1
  H  1403  1  0.88621400  0.90922500  0.40042200  1
  H  1410  1  0.02092680  0.01442580  0.42184600  1
  H  1411  1  0.99498300  0.99193000  0.35182100  1
  H  1412  1  0.85318000  0.96900000  0.44083200  1
  H  1414  1  0.95556100  0.97901700  0.45116700  1
  H  1415  1  0.98791600  0.99888400  0.45460900  1
  H  1417  1  0.94336000  0.91027100  0.38175500  1
  H  1418  1  0.97028900  0.93373300  0.38367400  1
  H  1420  1  0.06336080  0.01616580  0.39050000  1
  H  1422  1  0.81996700  0.92173900  0.41109400  1
  H  1429  1  0.88506900  0.52632900  0.89133800  1
  H  1436  1  0.02423680  0.42444300  0.86921100  1
  H  1437  1  0.99626700  0.44476700  0.93954900  1
  H  1438  1  0.85380300  0.46637500  0.85055400  1
  H  1440  1  0.95670300  0.45832500  0.84028700  1
  H  1441  1  0.99039800  0.43953900  0.83660100  1
  H  1443  1  0.94217800  0.52591600  0.91003700  1
  H  1444  1  0.96972400  0.50278400  0.90808400  1
  H  1446  1  0.06667280  0.42407000  0.90094500  1
  H  1448  1  0.81941800  0.51343800  0.88050700  1
  H  1455  1  0.47065800  0.95404800  0.45943800  1
  H  1462  1  0.36729300  0.94635700  0.33750100  1
  H  1463  1  0.37031300  0.01118380  0.37654700  1
  H  1464  1  0.52490900  0.93259100  0.39697500  1
  H  1466  1  0.42932100  0.91556200  0.37410700  1
  H  1467  1  0.40336500  0.91402200  0.35014400  1
  H  1469  1  0.41073100  0.96767200  0.45589600  1
  H  1470  1  0.38965000  0.96922700  0.42981700  1
  H  1472  1  0.32431200  0.97436700  0.33004300  1
  H  1474  1  0.53838800  0.95174500  0.45494300  1
  H  1481  1  0.47480400  0.47303000  0.83372800  1
  H  1488  1  0.35354200  0.48819400  0.94602700  1
  H  1489  1  0.38561800  0.41865100  0.92566600  1
  H  1490  1  0.51788500  0.50795700  0.89411200  1
  H  1492  1  0.41266600  0.51912000  0.90683700  1
  H  1493  1  0.38189600  0.52193000  0.92798400  1
  H  1495  1  0.41775200  0.45438300  0.83737700  1
  H  1496  1  0.39489400  0.45436100  0.86286300  1
  H  1498  1  0.33011100  0.45439300  0.96609600  1
  H  1500  1  0.53900600  0.48169900  0.83849400  1
  H  1507  1  0.47452100  0.52970500  0.40223100  1
  H  1514  1  0.35435200  0.41682300  0.41653500  1
  H  1515  1  0.38507300  0.43836700  0.34706300  1
  H  1516  1  0.51874700  0.46894400  0.43581600  1
  H  1518  1  0.41394200  0.45556100  0.44758500  1
  H  1519  1  0.38330800  0.43431500  0.45030700  1
  H  1521  1  0.41727000  0.52609200  0.38384400  1
  H  1522  1  0.39463900  0.50051900  0.38357400  1
  H  1524  1  0.33006300  0.39747000  0.38274300  1
  H  1526  1  0.53905600  0.52490400  0.41031100  1
  H  1533  1  0.47287800  0.90486400  0.88688000  1
  H  1540  1  0.35696600  0.01990980  0.87488400  1
  H  1541  1  0.38296400  0.99466100  0.94400800  1
  H  1542  1  0.52078700  0.96633900  0.85712600  1
  H  1544  1  0.41763900  0.98217800  0.84366900  1
  H  1545  1  0.38769200  0.00388983  0.84117100  1
  H  1547  1  0.41477100  0.90854200  0.90399600  1
  H  1548  1  0.39299400  0.93443500  0.90494200  1
  H  1550  1  0.32912300  0.03689880  0.90821700  1
  H  1552  1  0.53839600  0.90938200  0.88053200  1
  C  1  1  0.96836100  0.19055600  0.14341800  1
  C  2  1  0.97960300  0.19740500  0.16646200  1
  C  3  1  0.01625800  0.19553400  0.16789600  1
  C  4  1  0.02946400  0.18790700  0.14562400  1
  C  5  1  0.06673100  0.18811200  0.14164900  1
  C  6  1  0.09024900  0.19556800  0.16025700  1
  C  7  1  0.07573400  0.20264100  0.18274400  1
  C  8  1  0.03887300  0.20271100  0.18668300  1
  C  9  1  0.95600800  0.20694900  0.18355600  1
  C  10  1  0.92048100  0.21068200  0.17687800  1
  C  11  1  0.90838700  0.20504100  0.15337400  1
  C  12  1  0.93224500  0.19399900  0.13686900  1
  C  13  1  0.00290600  0.19198200  0.10435800  1
  C  14  1  0.00534300  0.17353100  0.08735100  1
  C  15  1  0.00181300  0.15156900  0.09892000  1
  C  16  1  0.99806100  0.15557500  0.12363800  1
  C  17  1  0.00223400  0.12821500  0.08928400  1
  C  18  1  0.99891600  0.10851100  0.10495700  1
  C  19  1  0.99515300  0.11177200  0.13017000  1
  C  20  1  0.99528400  0.13563700  0.13939700  1
  C  21  1  0.00557000  0.21612100  0.09662600  1
  C  22  1  0.01194200  0.22198500  0.07195500  1
  C  23  1  0.01675200  0.20247000  0.05577000  1
  C  24  1  0.01260900  0.17842800  0.06307600  1
  C  37  1  0.99941400  0.18182900  0.12909400  1
  C  38  1  0.99421100  0.09129300  0.14569800  1
  C  39  1  0.01581100  0.24668300  0.06461000  1
  C  40  1  0.12712400  0.19977500  0.15606800  1
  C  41  1  0.87306000  0.21178700  0.14721800  1
  C  46  1  0.96792900  0.81274700  0.75274200  1
  C  47  1  0.97889200  0.80578200  0.72966800  1
  C  48  1  0.01555600  0.80747400  0.72809600  1
  C  49  1  0.02903100  0.81522100  0.75024800  1
  C  50  1  0.06634200  0.81499400  0.75402400  1
  C  51  1  0.08963500  0.80748400  0.73530300  1
  C  52  1  0.07485200  0.80040400  0.71290000  1
  C  53  1  0.03794000  0.80029600  0.70918100  1
  C  54  1  0.95511100  0.79603900  0.71280300  1
  C  55  1  0.91966900  0.79233600  0.71970900  1
  C  56  1  0.90786200  0.79813400  0.74324200  1
  C  57  1  0.93192800  0.80924900  0.75954900  1
  C  58  1  0.00285600  0.81132200  0.79163800  1
  C  59  1  0.00554900  0.82980800  0.80858800  1
  C  60  1  0.00194300  0.85175100  0.79698700  1
  C  61  1  0.99798400  0.84769400  0.77229300  1
  C  62  1  0.00247500  0.87512700  0.80656800  1
  C  63  1  0.99905200  0.89479900  0.79086300  1
  C  64  1  0.99510800  0.89148600  0.76566800  1
  C  65  1  0.99512900  0.86759900  0.75649800  1
  C  66  1  0.00542000  0.78719200  0.79941200  1
  C  67  1  0.01189700  0.78136600  0.82407800  1
  C  68  1  0.01684200  0.80090100  0.84022200  1
  C  69  1  0.01285300  0.82493900  0.83286400  1
  C  82  1  0.99918000  0.82142500  0.76689500  1
  C  83  1  0.99412300  0.91194000  0.75011000  1
  C  84  1  0.01569500  0.75667200  0.83144700  1
  C  85  1  0.12654600  0.80320000  0.73929900  1
  C  86  1  0.87262800  0.79142100  0.74966400  1
  C  91  1  0.96643000  0.80693600  0.13721300  1
  C  92  1  0.97671600  0.78400100  0.14501800  1
  C  93  1  0.01331300  0.78192400  0.14351200  1
  C  94  1  0.02750100  0.80352400  0.13486000  1
  C  95  1  0.06497500  0.80651100  0.13436600  1
  C  96  1  0.08776800  0.78770900  0.14243700  1
  C  97  1  0.07205500  0.76608900  0.15097900  1
  C  98  1  0.03504800  0.76304300  0.15155700  1
  C  99  1  0.95238400  0.76762500  0.15496400  1
  C  100  1  0.91698200  0.77491200  0.15798100  1
  C  101  1  0.90581400  0.79837300  0.15137400  1
  C  102  1  0.93047400  0.81414500  0.14006800  1
  C  103  1  0.00252800  0.84520000  0.13833500  1
  C  104  1  0.00564300  0.86205900  0.11980000  1
  C  105  1  0.00192100  0.85038600  0.09790000  1
  C  106  1  0.99731600  0.82575200  0.10204600  1
  C  107  1  0.00284600  0.85986100  0.07448800  1
  C  108  1  0.99914800  0.84411200  0.05487500  1
  C  109  1  0.99451700  0.81898500  0.05828400  1
  C  110  1  0.99413900  0.80990600  0.08220700  1
  C  111  1  0.00503800  0.85302500  0.16244900  1
  C  112  1  0.01198100  0.87764100  0.16821600  1
  C  113  1  0.01745800  0.89367100  0.14865400  1
  C  114  1  0.01350900  0.88626800  0.12462100  1
  C  127  1  0.99817000  0.82047700  0.12833800  1
  C  128  1  0.99322600  0.80335900  0.03789300  1
  C  129  1  0.01576600  0.88502700  0.19289900  1
  C  130  1  0.12540700  0.79057300  0.14479500  1
  C  131  1  0.87055100  0.80529100  0.15749600  1
  C  136  1  0.96843000  0.19718400  0.75901600  1
  C  137  1  0.97972500  0.22020200  0.75212300  1
  C  138  1  0.01639300  0.22156600  0.75391400  1
  C  139  1  0.02954400  0.19932700  0.76167300  1
  C  140  1  0.06680700  0.19534000  0.76155000  1
  C  141  1  0.09035900  0.21393200  0.75410300  1
  C  142  1  0.07591700  0.23643700  0.74702600  1
  C  143  1  0.03905500  0.24037300  0.74685000  1
  C  144  1  0.95619400  0.23728900  0.74249800  1
  C  145  1  0.92065400  0.23063900  0.73877800  1
  C  146  1  0.90849300  0.20716500  0.74448000  1
  C  147  1  0.93230100  0.19066500  0.75557700  1
  C  148  1  0.00288900  0.15809200  0.75763500  1
  C  149  1  0.00531500  0.14110300  0.77610300  1
  C  150  1  0.00173100  0.15268800  0.79805400  1
  C  151  1  0.99806700  0.17740900  0.79402800  1
  C  152  1  0.00214400  0.14307300  0.82141700  1
  C  153  1  0.99886800  0.15876600  0.84110900  1
  C  154  1  0.99518300  0.18398100  0.83782900  1
  C  155  1  0.99534000  0.19318800  0.81395500  1
  C  156  1  0.00553400  0.15033500  0.73350400  1
  C  157  1  0.01180200  0.12564700  0.72765800  1
  C  158  1  0.01647000  0.10945900  0.74718600  1
  C  159  1  0.01238900  0.11679900  0.77122300  1
  C  172  1  0.99944900  0.18283900  0.76777000  1
  C  173  1  0.99429600  0.19951900  0.85830100  1
  C  174  1  0.01563200  0.11827900  0.70296100  1
  C  175  1  0.12725200  0.20972300  0.74998100  1
  C  176  1  0.87315300  0.20102700  0.73774400  1
  C  181  1  0.46817800  0.69259100  0.64453800  1
  C  182  1  0.48020100  0.70278200  0.66609700  1
  C  183  1  0.51697400  0.70241700  0.66652000  1
  C  184  1  0.52947000  0.69137100  0.64552000  1
  C  185  1  0.56665300  0.69000700  0.64147300  1
  C  186  1  0.59052500  0.70054700  0.65824600  1
  C  187  1  0.57689200  0.71141100  0.67938600  1
  C  188  1  0.54014500  0.71235800  0.68368100  1
  C  189  1  0.45676300  0.71277900  0.68302400  1
  C  190  1  0.42022200  0.71270700  0.67798200  1
  C  191  1  0.40688400  0.70297600  0.65616600  1
  C  192  1  0.43128000  0.69301900  0.63930600  1
  C  193  1  0.50092500  0.69322300  0.60506000  1
  C  194  1  0.50298900  0.67443300  0.58844200  1
  C  195  1  0.50078100  0.65273000  0.60064500  1
  C  196  1  0.49834500  0.65723800  0.62537400  1
  C  197  1  0.50116500  0.62920200  0.59146800  1
  C  198  1  0.49884300  0.60981600  0.60759200  1
  C  199  1  0.49616900  0.61357100  0.63279900  1
  C  200  1  0.49662200  0.63760900  0.64159000  1
  C  201  1  0.50259500  0.71721400  0.59675100  1
  C  202  1  0.50742200  0.72266700  0.57182000  1
  C  203  1  0.51116600  0.70283200  0.55588700  1
  C  204  1  0.50826100  0.67890400  0.56384900  1
  C  217  1  0.49897900  0.68364900  0.63009700  1
  C  218  1  0.49553000  0.59329000  0.64858800  1
  C  219  1  0.51050100  0.74731000  0.56400200  1
  C  220  1  0.62788100  0.70035900  0.65499000  1
  C  221  1  0.37003900  0.70588900  0.65105200  1
  C  226  1  0.46812800  0.31022600  0.25142700  1
  C  227  1  0.48041900  0.30001200  0.22994500  1
  C  228  1  0.51718400  0.30058200  0.22960800  1
  C  229  1  0.52942500  0.31163600  0.25067100  1
  C  230  1  0.56657100  0.31320900  0.25480200  1
  C  231  1  0.59065600  0.30278200  0.23809300  1
  C  232  1  0.57727500  0.29185500  0.21691300  1
  C  233  1  0.54056600  0.29073100  0.21252300  1
  C  234  1  0.45720200  0.28999700  0.21289700  1
  C  235  1  0.42061300  0.29000200  0.21777400  1
  C  236  1  0.40697200  0.29981000  0.23947000  1
  C  237  1  0.43115500  0.30982500  0.25643700  1
  C  238  1  0.50053600  0.30977200  0.29102700  1
  C  239  1  0.50223300  0.32860000  0.30762300  1
  C  240  1  0.50006000  0.35027200  0.29536900  1
  C  241  1  0.49793200  0.34572200  0.27063400  1
  C  242  1  0.50026500  0.37381300  0.30451400  1
  C  243  1  0.49810800  0.39317200  0.28835200  1
  C  244  1  0.49570600  0.38938100  0.26313700  1
  C  245  1  0.49629200  0.36532800  0.25438400  1
  C  246  1  0.50240300  0.28580600  0.29939200  1
  C  247  1  0.50711100  0.28041900  0.32435100  1
  C  248  1  0.51053800  0.30030500  0.34025200  1
  C  249  1  0.50742000  0.32420100  0.33223700  1
  C  262  1  0.49875000  0.31930000  0.26596300  1
  C  263  1  0.49522900  0.40965100  0.24732700  1
  C  264  1  0.51046100  0.25580900  0.33222900  1
  C  265  1  0.62799000  0.30309400  0.24149500  1
  C  266  1  0.36999900  0.29706400  0.24427100  1
  C  271  1  0.46792000  0.30493400  0.63931400  1
  C  272  1  0.48019800  0.28347100  0.64957500  1
  C  273  1  0.51696600  0.28317900  0.64910800  1
  C  274  1  0.52923100  0.30419300  0.63797000  1
  C  275  1  0.56637900  0.30832900  0.63644400  1
  C  276  1  0.59044000  0.29164500  0.64693000  1
  C  277  1  0.57703300  0.27048600  0.65788300  1
  C  278  1  0.54032400  0.26609700  0.65898700  1
  C  279  1  0.45697600  0.26647200  0.65967000  1
  C  280  1  0.42038100  0.27131700  0.65958200  1
  C  281  1  0.40674500  0.29298000  0.64969800  1
  C  282  1  0.43094200  0.30992900  0.63966200  1
  C  283  1  0.50032600  0.34452700  0.63981400  1
  C  284  1  0.50210500  0.36113600  0.62100500  1
  C  285  1  0.49992700  0.34890300  0.59932200  1
  C  286  1  0.49777800  0.32416300  0.60384700  1
  C  287  1  0.50014800  0.35807300  0.57579000  1
  C  288  1  0.49798000  0.34192900  0.55641700  1
  C  289  1  0.49560800  0.31671000  0.56018100  1
  C  290  1  0.49618800  0.30793000  0.58422500  1
  C  291  1  0.50211500  0.35287200  0.66379100  1
  C  292  1  0.50679700  0.37782600  0.66920500  1
  C  293  1  0.51021600  0.39375300  0.64933700  1
  C  294  1  0.50714500  0.38575900  0.62543100  1
  C  307  1  0.49856300  0.31947000  0.63026600  1
  C  308  1  0.49513900  0.30094000  0.53988600  1
  C  309  1  0.51005900  0.38568500  0.69382700  1
  C  310  1  0.62777500  0.29501700  0.64664900  1
  C  311  1  0.36974600  0.29775300  0.65236700  1
  C  316  1  0.46873700  0.69800700  0.25733600  1
  C  317  1  0.48076800  0.71964500  0.24731400  1
  C  318  1  0.51754600  0.71998500  0.24758700  1
  C  319  1  0.53000300  0.69886300  0.25842400  1
  C  320  1  0.56716500  0.69470200  0.25963500  1
  C  321  1  0.59104700  0.71144600  0.24906500  1
  C  322  1  0.57746700  0.73266200  0.23832400  1
  C  323  1  0.54074400  0.73708900  0.23757200  1
  C  324  1  0.45730600  0.73671600  0.23758800  1
  C  325  1  0.42075100  0.73169600  0.23767700  1
  C  326  1  0.40744800  0.70978800  0.24721000  1
  C  327  1  0.43183400  0.69282500  0.25697500  1
  C  328  1  0.50123900  0.65843800  0.25655500  1
  C  329  1  0.50311400  0.64179100  0.27533000  1
  C  330  1  0.50104500  0.65397700  0.29704500  1
  C  331  1  0.49888500  0.67872200  0.29256700  1
  C  332  1  0.50127700  0.64477400  0.32056500  1
  C  333  1  0.49907500  0.66089000  0.33996300  1
  C  334  1  0.49660600  0.68611000  0.33623400  1
  C  335  1  0.49721600  0.69492500  0.31220800  1
  C  336  1  0.50279700  0.65013000  0.23255800  1
  C  337  1  0.50729500  0.62517500  0.22708300  1
  C  338  1  0.51079900  0.60920500  0.24690900  1
  C  339  1  0.50803700  0.61717000  0.27084100  1
  C  352  1  0.49949300  0.68347200  0.26616300  1
  C  353  1  0.49602800  0.70187200  0.35653300  1
  C  354  1  0.51024800  0.61734400  0.20243100  1
  C  355  1  0.62836600  0.70808600  0.24910900  1
  C  356  1  0.37070700  0.70455300  0.24413200  1
  C  361  1  0.98309900  0.04749400  0.14813800  1
  C  362  1  0.99023300  0.04209300  0.17248800  1
  C  364  1  0.99531100  0.99976000  0.16440600  1
  C  365  1  0.98750600  0.00366700  0.13967700  1
  C  366  1  0.98117900  0.02765300  0.13218900  1
  C  368  1  0.00294900  0.97681800  0.17441100  1
  C  369  1  0.03545200  0.97117300  0.18632300  1
  C  370  1  0.03939900  0.94760700  0.19565600  1
  C  371  1  0.01288500  0.92982300  0.19272500  1
  C  372  1  0.98113100  0.93672500  0.18110200  1
  C  387  1  0.98299000  0.95575900  0.74758500  1
  C  388  1  0.99023800  0.96112300  0.72324000  1
  C  390  1  0.99504700  0.00349000  0.73122200  1
  C  391  1  0.98714400  0.99962300  0.75594200  1
  C  392  1  0.98087300  0.97564300  0.76347400  1
  C  394  1  0.00262400  0.02643200  0.72119300  1
  C  395  1  0.03525900  0.03218400  0.70949600  1
  C  396  1  0.03918300  0.05576900  0.70019900  1
  C  397  1  0.01252500  0.07347800  0.70299500  1
  C  398  1  0.98061700  0.06645100  0.71434900  1
  C  413  1  0.98252400  0.80105200  0.99400200  1
  C  414  1  0.98977700  0.77672100  0.98858400  1
  C  416  1  0.99487400  0.78483000  0.94625400  1
  C  417  1  0.98698100  0.80954300  0.95017500  1
  C  418  1  0.98058500  0.81700600  0.97416100  1
  C  420  1  0.00258000  0.77486400  0.92330500  1
  C  421  1  0.03521400  0.76313300  0.91762100  1
  C  422  1  0.03925200  0.75386800  0.89403300  1
  C  423  1  0.01271000  0.75672700  0.87625400  1
  C  424  1  0.98080400  0.76812900  0.88320900  1
  C  439  1  0.98314400  0.20205500  0.90211000  1
  C  440  1  0.99043200  0.22639100  0.90748400  1
  C  442  1  0.99523300  0.21838300  0.94984700  1
  C  443  1  0.98728200  0.19367000  0.94596900  1
  C  444  1  0.98101100  0.18615500  0.92198300  1
  C  446  1  0.00282000  0.22840100  0.97279200  1
  C  447  1  0.03544500  0.24011600  0.97853200  1
  C  448  1  0.03935900  0.24944200  0.00210500  1
  C  449  1  0.01268900  0.24667100  0.01981100  1
  C  450  1  0.98080900  0.23526700  0.01280900  1
  C  465  1  0.48325800  0.54951300  0.65099800  1
  C  466  1  0.49351200  0.54357900  0.67470800  1
  C  468  1  0.49460400  0.50122000  0.66597800  1
  C  469  1  0.48371300  0.50569000  0.64188800  1
  C  470  1  0.47795100  0.52993500  0.63505900  1
  C  472  1  0.50145200  0.47789100  0.67535300  1
  C  473  1  0.53456700  0.47087100  0.68566400  1
  C  474  1  0.53738700  0.44714000  0.69479000  1
  C  475  1  0.50907600  0.43050800  0.69312200  1
  C  476  1  0.47686400  0.43870900  0.68304100  1
  C  491  1  0.48299900  0.45342900  0.24488600  1
  C  492  1  0.49341600  0.45939100  0.22121500  1
  C  494  1  0.49459300  0.50173700  0.23003100  1
  C  495  1  0.48358800  0.49722800  0.25409300  1
  C  496  1  0.47766600  0.47298100  0.26085100  1
  C  498  1  0.50148400  0.52508600  0.22070800  1
  C  499  1  0.53458000  0.53209900  0.21036100  1
  C  500  1  0.53741900  0.55584800  0.20128500  1
  C  501  1  0.50917700  0.57252500  0.20307900  1
  C  502  1  0.47697900  0.56432200  0.21318000  1
  C  517  1  0.48298900  0.29845000  0.49609100  1
  C  518  1  0.49325900  0.27474500  0.49015500  1
  C  520  1  0.49462000  0.28353200  0.44780900  1
  C  521  1  0.48375000  0.30762600  0.45228600  1
  C  522  1  0.47782800  0.31442000  0.47652300  1
  C  524  1  0.50157800  0.27418700  0.42447900  1
  C  525  1  0.53470300  0.26384600  0.41752300  1
  C  526  1  0.53763400  0.25476600  0.39378200  1
  C  527  1  0.50945100  0.25654000  0.37706000  1
  C  528  1  0.47721300  0.26663000  0.38520900  1
  C  543  1  0.48351900  0.70440100  0.40024600  1
  C  544  1  0.49346400  0.72818000  0.40614400  1
  C  546  1  0.49487000  0.71947000  0.44850200  1
  C  547  1  0.48428800  0.69531200  0.44406400  1
  C  548  1  0.47848900  0.68844200  0.41983700  1
  C  550  1  0.50175300  0.72888800  0.47180900  1
  C  551  1  0.53477400  0.73941700  0.47871100  1
  C  552  1  0.53764200  0.74855300  0.50243200  1
  C  553  1  0.50950500  0.74666800  0.51917700  1
  C  554  1  0.47738400  0.73636300  0.51109400  1
  C  569  1  0.67865800  0.27857300  0.22945800  1
  C  570  1  0.68551700  0.28670800  0.20586700  1
  C  572  1  0.74091400  0.26525700  0.20401300  1
  C  573  1  0.73582500  0.25653400  0.22789600  1
  C  574  1  0.70392800  0.26297000  0.23992100  1
  C  576  1  0.77001500  0.25883000  0.18895300  1
  C  577  1  0.79176000  0.27560300  0.17635500  1
  C  578  1  0.82063500  0.26635100  0.16279200  1
  C  579  1  0.82861200  0.24146700  0.16161500  1
  C  580  1  0.80512900  0.22591800  0.17395700  1
  C  595  1  0.67852700  0.72479200  0.66713600  1
  C  596  1  0.68536000  0.71650500  0.69067300  1
  C  598  1  0.74079100  0.73790500  0.69264500  1
  C  599  1  0.73576100  0.74672200  0.66878700  1
  C  600  1  0.70383700  0.74039900  0.65673400  1
  C  602  1  0.76978900  0.74433600  0.70779700  1
  C  603  1  0.79131200  0.72759600  0.72060400  1
  C  604  1  0.82002800  0.73687300  0.73430400  1
  C  605  1  0.82809300  0.76174900  0.73541200  1
  C  606  1  0.80480700  0.77726800  0.72285800  1
  C  621  1  0.67888400  0.72048900  0.22466700  1
  C  622  1  0.68529400  0.74410700  0.23287600  1
  C  624  1  0.74070100  0.74646600  0.21147200  1
  C  625  1  0.73608100  0.72254900  0.20271900  1
  C  626  1  0.70438300  0.71024400  0.20909600  1
  C  628  1  0.76929900  0.76192400  0.20493000  1
  C  629  1  0.79018600  0.77535900  0.22154900  1
  C  630  1  0.81816600  0.78965400  0.21214400  1
  C  631  1  0.82624800  0.79071200  0.18725600  1
  C  632  1  0.80372300  0.77735800  0.17188800  1
  C  647  1  0.67853500  0.28309000  0.67110700  1
  C  648  1  0.68560500  0.25958900  0.66280100  1
  C  650  1  0.74097200  0.25781400  0.68428600  1
  C  651  1  0.73568900  0.28162900  0.69314200  1
  C  652  1  0.70369900  0.29357200  0.68676800  1
  C  654  1  0.77014000  0.24280400  0.69069100  1
  C  655  1  0.79195700  0.23027600  0.67390800  1
  C  656  1  0.82079700  0.21667900  0.68315500  1
  C  657  1  0.82872200  0.21544800  0.70804500  1
  C  658  1  0.80519100  0.22773900  0.72359900  1
  C  673  1  0.31570200  0.72513200  0.23304500  1
  C  674  1  0.31616500  0.72244100  0.20780300  1
  C  676  1  0.25726500  0.73874600  0.20381400  1
  C  677  1  0.25487100  0.74189600  0.22921500  1
  C  678  1  0.28486400  0.73544800  0.24329400  1
  C  680  1  0.23072100  0.74600700  0.18707200  1
  C  681  1  0.21755400  0.73124800  0.16815900  1
  C  682  1  0.19139500  0.74122000  0.15274400  1
  C  683  1  0.17726000  0.76471800  0.15577800  1
  C  684  1  0.19237800  0.77835600  0.17467300  1
  C  699  1  0.31436800  0.27674400  0.66305100  1
  C  700  1  0.31133500  0.28329100  0.68752300  1
  C  702  1  0.25572200  0.26250800  0.69178100  1
  C  703  1  0.25663700  0.25549100  0.66717100  1
  C  704  1  0.28653400  0.26261400  0.65335500  1
  C  706  1  0.22916900  0.25505400  0.70832500  1
  C  707  1  0.20831800  0.27114200  0.72235200  1
  C  708  1  0.18311000  0.26097300  0.73834500  1
  C  709  1  0.17784700  0.23581400  0.74048500  1
  C  710  1  0.20037000  0.22103500  0.72651400  1
  C  725  1  0.31464500  0.28634100  0.22327900  1
  C  726  1  0.31197400  0.26174900  0.22942700  1
  C  728  1  0.25605300  0.25759600  0.20900700  1
  C  729  1  0.25662700  0.28232100  0.20238800  1
  C  730  1  0.28651300  0.29614900  0.20950900  1
  C  732  1  0.22951600  0.24106200  0.20150400  1
  C  733  1  0.20903400  0.22672800  0.21753700  1
  C  734  1  0.18368700  0.21086600  0.20732200  1
  C  735  1  0.17793800  0.20912400  0.18217800  1
  C  736  1  0.20015400  0.22337000  0.16744500  1
  C  751  1  0.31481000  0.71682400  0.67189800  1
  C  752  1  0.31334300  0.74171600  0.66690500  1
  C  754  1  0.25658000  0.74584500  0.68623200  1
  C  755  1  0.25596700  0.72082700  0.69167300  1
  C  756  1  0.28573500  0.70685200  0.68460400  1
  C  758  1  0.23012200  0.76241700  0.69379600  1
  C  759  1  0.21102800  0.77778400  0.67795000  1
  C  760  1  0.18535100  0.79336600  0.68822500  1
  C  761  1  0.17793200  0.79392500  0.71324100  1
  C  762  1  0.19903000  0.77876600  0.72783100  1
  C  777  1  0.15475600  0.40646700  0.34133600  1
  C  778  1  0.16599800  0.41331600  0.36438000  1
  C  779  1  0.20265300  0.41144500  0.36581400  1
  C  780  1  0.21585900  0.40381800  0.34354200  1
  C  781  1  0.25312600  0.40402300  0.33956700  1
  C  782  1  0.27664400  0.41147900  0.35817500  1
  C  783  1  0.26212900  0.41855200  0.38066200  1
  C  784  1  0.22526800  0.41862200  0.38460100  1
  C  785  1  0.14240300  0.42286000  0.38147400  1
  C  786  1  0.10687600  0.42659300  0.37479600  1
  C  787  1  0.09478180  0.42095200  0.35129200  1
  C  788  1  0.11864000  0.40991000  0.33478700  1
  C  789  1  0.18930100  0.40789300  0.30227600  1
  C  790  1  0.19173800  0.38944200  0.28526900  1
  C  791  1  0.18820800  0.36748000  0.29683800  1
  C  792  1  0.18445600  0.37148600  0.32155600  1
  C  793  1  0.18862900  0.34412600  0.28720200  1
  C  794  1  0.18531100  0.32442200  0.30287500  1
  C  795  1  0.18154800  0.32768300  0.32808800  1
  C  796  1  0.18167900  0.35154800  0.33731500  1
  C  797  1  0.19196500  0.43203200  0.29454400  1
  C  798  1  0.19833700  0.43789600  0.26987300  1
  C  799  1  0.20314700  0.41838100  0.25368800  1
  C  800  1  0.19900400  0.39433900  0.26099400  1
  C  813  1  0.18580900  0.39774000  0.32701200  1
  C  814  1  0.18060600  0.30720400  0.34361600  1
  C  815  1  0.20220600  0.46259400  0.26252800  1
  C  816  1  0.31351900  0.41568600  0.35398600  1
  C  817  1  0.05945480  0.42769800  0.34513600  1
  C  822  1  0.15432400  0.02865780  0.95066000  1
  C  823  1  0.16528700  0.02169280  0.92758600  1
  C  824  1  0.20195100  0.02338480  0.92601400  1
  C  825  1  0.21542600  0.03113180  0.94816600  1
  C  826  1  0.25273700  0.03090480  0.95194200  1
  C  827  1  0.27603000  0.02339480  0.93322100  1
  C  828  1  0.26124700  0.01631480  0.91081800  1
  C  829  1  0.22433500  0.01620680  0.90709900  1
  C  830  1  0.14150600  0.01194980  0.91072100  1
  C  831  1  0.10606400  0.00824683  0.91762700  1
  C  832  1  0.09425680  0.01404480  0.94116000  1
  C  833  1  0.11832300  0.02515980  0.95746700  1
  C  834  1  0.18925100  0.02723280  0.98955600  1
  C  835  1  0.19194400  0.04571880  0.00650590  1
  C  836  1  0.18833800  0.06766180  0.99490500  1
  C  837  1  0.18437900  0.06360480  0.97021100  1
  C  838  1  0.18887000  0.09103780  0.00448590  1
  C  839  1  0.18544700  0.11071000  0.98878100  1
  C  840  1  0.18150300  0.10739700  0.96358600  1
  C  841  1  0.18152400  0.08350980  0.95441600  1
  C  842  1  0.19181500  0.00310283  0.99733000  1
  C  843  1  0.19829200  0.99727700  0.02199590  1
  C  844  1  0.20323700  0.01681180  0.03813990  1
  C  845  1  0.19924800  0.04084980  0.03078190  1
  C  858  1  0.18557500  0.03733580  0.96481300  1
  C  859  1  0.18051800  0.12785100  0.94802800  1
  C  860  1  0.20209000  0.97258300  0.02936490  1
  C  861  1  0.31294100  0.01911080  0.93721700  1
  C  862  1  0.05902280  0.00733183  0.94758200  1
  C  867  1  0.15282500  0.02284680  0.33513100  1
  C  868  1  0.16311100  0.99991200  0.34293600  1
  C  869  1  0.19970800  0.99783500  0.34143000  1
  C  870  1  0.21389600  0.01943480  0.33277800  1
  C  871  1  0.25137000  0.02242180  0.33228400  1
  C  872  1  0.27416300  0.00361983  0.34035500  1
  C  873  1  0.25845000  0.98200000  0.34889700  1
  C  874  1  0.22144300  0.97895400  0.34947500  1
  C  875  1  0.13877900  0.98353600  0.35288200  1
  C  876  1  0.10337700  0.99082300  0.35589900  1
  C  877  1  0.09220880  0.01428380  0.34929200  1
  C  878  1  0.11686900  0.03005580  0.33798600  1
  C  879  1  0.18892300  0.06111080  0.33625300  1
  C  880  1  0.19203800  0.07796980  0.31771800  1
  C  881  1  0.18831600  0.06629680  0.29581800  1
  C  882  1  0.18371100  0.04166280  0.29996400  1
  C  883  1  0.18924100  0.07577180  0.27240600  1
  C  884  1  0.18554300  0.06002280  0.25279300  1
  C  885  1  0.18091200  0.03489580  0.25620200  1
  C  886  1  0.18053400  0.02581680  0.28012500  1
  C  887  1  0.19143300  0.06893580  0.36036700  1
  C  888  1  0.19837600  0.09355180  0.36613400  1
  C  889  1  0.20385300  0.10958200  0.34657200  1
  C  890  1  0.19990400  0.10217900  0.32253900  1
  C  903  1  0.18456500  0.03638780  0.32625600  1
  C  904  1  0.17962100  0.01926980  0.23581100  1
  C  905  1  0.20216100  0.10093800  0.39081700  1
  C  906  1  0.31180200  0.00648383  0.34271300  1
  C  907  1  0.05694580  0.02120180  0.35541400  1
  C  912  1  0.15482500  0.41309500  0.95693400  1
  C  913  1  0.16612000  0.43611300  0.95004100  1
  C  914  1  0.20278800  0.43747700  0.95183200  1
  C  915  1  0.21593900  0.41523800  0.95959100  1
  C  916  1  0.25320200  0.41125100  0.95946800  1
  C  917  1  0.27675400  0.42984300  0.95202100  1
  C  918  1  0.26231200  0.45234800  0.94494400  1
  C  919  1  0.22545000  0.45628400  0.94476800  1
  C  920  1  0.14258900  0.45320000  0.94041600  1
  C  921  1  0.10704900  0.44655000  0.93669600  1
  C  922  1  0.09488780  0.42307600  0.94239800  1
  C  923  1  0.11869600  0.40657600  0.95349500  1
  C  924  1  0.18928400  0.37400300  0.95555300  1
  C  925  1  0.19171000  0.35701400  0.97402100  1
  C  926  1  0.18812600  0.36859900  0.99597200  1
  C  927  1  0.18446200  0.39332000  0.99194600  1
  C  928  1  0.18853900  0.35898400  0.01933490  1
  C  929  1  0.18526300  0.37467700  0.03902690  1
  C  930  1  0.18157800  0.39989200  0.03574690  1
  C  931  1  0.18173500  0.40909900  0.01187290  1
  C  932  1  0.19192900  0.36624600  0.93142200  1
  C  933  1  0.19819700  0.34155800  0.92557600  1
  C  934  1  0.20286500  0.32537000  0.94510400  1
  C  935  1  0.19878400  0.33271000  0.96914100  1
  C  948  1  0.18584400  0.39875000  0.96568800  1
  C  949  1  0.18069100  0.41543000  0.05621890  1
  C  950  1  0.20202700  0.33419000  0.90087900  1
  C  951  1  0.31364700  0.42563400  0.94789900  1
  C  952  1  0.05954780  0.41693800  0.93566200  1
  C  957  1  0.65457300  0.90850200  0.84245600  1
  C  958  1  0.66659600  0.91869300  0.86401500  1
  C  959  1  0.70336900  0.91832800  0.86443800  1
  C  960  1  0.71586500  0.90728200  0.84343800  1
  C  961  1  0.75304800  0.90591800  0.83939100  1
  C  962  1  0.77692000  0.91645800  0.85616400  1
  C  963  1  0.76328700  0.92732200  0.87730400  1
  C  964  1  0.72654000  0.92826900  0.88159900  1
  C  965  1  0.64315800  0.92869000  0.88094200  1
  C  966  1  0.60661700  0.92861800  0.87590000  1
  C  967  1  0.59327900  0.91888700  0.85408400  1
  C  968  1  0.61767500  0.90893000  0.83722400  1
  C  969  1  0.68732000  0.90913400  0.80297800  1
  C  970  1  0.68938400  0.89034400  0.78636000  1
  C  971  1  0.68717600  0.86864100  0.79856300  1
  C  972  1  0.68474000  0.87314900  0.82329200  1
  C  973  1  0.68756000  0.84511300  0.78938600  1
  C  974  1  0.68523800  0.82572700  0.80551000  1
  C  975  1  0.68256400  0.82948200  0.83071700  1
  C  976  1  0.68301700  0.85352000  0.83950800  1
  C  977  1  0.68899000  0.93312500  0.79466900  1
  C  978  1  0.69381700  0.93857800  0.76973800  1
  C  979  1  0.69756100  0.91874300  0.75380500  1
  C  980  1  0.69465600  0.89481500  0.76176700  1
  C  993  1  0.68537400  0.89956000  0.82801500  1
  C  994  1  0.68192500  0.80920100  0.84650600  1
  C  995  1  0.69689600  0.96322100  0.76192000  1
  C  996  1  0.81427600  0.91627000  0.85290800  1
  C  997  1  0.55643400  0.92180000  0.84897000  1
  C  1002  1  0.65452300  0.52613700  0.44934500  1
  C  1003  1  0.66681400  0.51592300  0.42786300  1
  C  1004  1  0.70357900  0.51649300  0.42752600  1
  C  1005  1  0.71582000  0.52754700  0.44858900  1
  C  1006  1  0.75296600  0.52912000  0.45272000  1
  C  1007  1  0.77705100  0.51869300  0.43601100  1
  C  1008  1  0.76367000  0.50776600  0.41483100  1
  C  1009  1  0.72696100  0.50664200  0.41044100  1
  C  1010  1  0.64359700  0.50590800  0.41081500  1
  C  1011  1  0.60700800  0.50591300  0.41569200  1
  C  1012  1  0.59336700  0.51572100  0.43738800  1
  C  1013  1  0.61755000  0.52573600  0.45435500  1
  C  1014  1  0.68693100  0.52568300  0.48894500  1
  C  1015  1  0.68862800  0.54451100  0.50554100  1
  C  1016  1  0.68645500  0.56618300  0.49328700  1
  C  1017  1  0.68432700  0.56163300  0.46855200  1
  C  1018  1  0.68666000  0.58972400  0.50243200  1
  C  1019  1  0.68450300  0.60908300  0.48627000  1
  C  1020  1  0.68210100  0.60529200  0.46105500  1
  C  1021  1  0.68268700  0.58123900  0.45230200  1
  C  1022  1  0.68879800  0.50171700  0.49731000  1
  C  1023  1  0.69350600  0.49633000  0.52226900  1
  C  1024  1  0.69693300  0.51621600  0.53817000  1
  C  1025  1  0.69381500  0.54011200  0.53015500  1
  C  1038  1  0.68514500  0.53521100  0.46388100  1
  C  1039  1  0.68162400  0.62556200  0.44524500  1
  C  1040  1  0.69685600  0.47172000  0.53014700  1
  C  1041  1  0.81438500  0.51900500  0.43941300  1
  C  1042  1  0.55639400  0.51297500  0.44218900  1
  C  1047  1  0.65431500  0.52084500  0.83723200  1
  C  1048  1  0.66659300  0.49938200  0.84749300  1
  C  1049  1  0.70336100  0.49909000  0.84702600  1
  C  1050  1  0.71562600  0.52010400  0.83588800  1
  C  1051  1  0.75277400  0.52424000  0.83436200  1
  C  1052  1  0.77683500  0.50755600  0.84484800  1
  C  1053  1  0.76342800  0.48639700  0.85580100  1
  C  1054  1  0.72671900  0.48200800  0.85690500  1
  C  1055  1  0.64337100  0.48238300  0.85758800  1
  C  1056  1  0.60677600  0.48722800  0.85750000  1
  C  1057  1  0.59314000  0.50889100  0.84761600  1
  C  1058  1  0.61733700  0.52584000  0.83758000  1
  C  1059  1  0.68672100  0.56043800  0.83773200  1
  C  1060  1  0.68850000  0.57704700  0.81892300  1
  C  1061  1  0.68632200  0.56481400  0.79724000  1
  C  1062  1  0.68417300  0.54007400  0.80176500  1
  C  1063  1  0.68654300  0.57398400  0.77370800  1
  C  1064  1  0.68437500  0.55784000  0.75433500  1
  C  1065  1  0.68200300  0.53262100  0.75809900  1
  C  1066  1  0.68258300  0.52384100  0.78214300  1
  C  1067  1  0.68851000  0.56878300  0.86170900  1
  C  1068  1  0.69319200  0.59373700  0.86712300  1
  C  1069  1  0.69661100  0.60966400  0.84725500  1
  C  1070  1  0.69354000  0.60167000  0.82334900  1
  C  1083  1  0.68495800  0.53538100  0.82818400  1
  C  1084  1  0.68153400  0.51685100  0.73780400  1
  C  1085  1  0.69645400  0.60159600  0.89174500  1
  C  1086  1  0.81417000  0.51092800  0.84456700  1
  C  1087  1  0.55614100  0.51366400  0.85028500  1
  C  1092  1  0.65513200  0.91391800  0.45525400  1
  C  1093  1  0.66716300  0.93555600  0.44523200  1
  C  1094  1  0.70394100  0.93589600  0.44550500  1
  C  1095  1  0.71639800  0.91477400  0.45634200  1
  C  1096  1  0.75356000  0.91061300  0.45755300  1
  C  1097  1  0.77744200  0.92735700  0.44698300  1
  C  1098  1  0.76386200  0.94857300  0.43624200  1
  C  1099  1  0.72713900  0.95300000  0.43549000  1
  C  1100  1  0.64370100  0.95262700  0.43550600  1
  C  1101  1  0.60714600  0.94760700  0.43559500  1
  C  1102  1  0.59384300  0.92569900  0.44512800  1
  C  1103  1  0.61822900  0.90873600  0.45489300  1
  C  1104  1  0.68763400  0.87434900  0.45447300  1
  C  1105  1  0.68950900  0.85770200  0.47324800  1
  C  1106  1  0.68744000  0.86988800  0.49496300  1
  C  1107  1  0.68528000  0.89463300  0.49048500  1
  C  1108  1  0.68767200  0.86068500  0.51848300  1
  C  1109  1  0.68547000  0.87680100  0.53788100  1
  C  1110  1  0.68300100  0.90202100  0.53415200  1
  C  1111  1  0.68361100  0.91083600  0.51012600  1
  C  1112  1  0.68919200  0.86604100  0.43047600  1
  C  1113  1  0.69369000  0.84108600  0.42500100  1
  C  1114  1  0.69719400  0.82511600  0.44482700  1
  C  1115  1  0.69443200  0.83308100  0.46875900  1
  C  1128  1  0.68588800  0.89938300  0.46408100  1
  C  1129  1  0.68242300  0.91778300  0.55445100  1
  C  1130  1  0.69664300  0.83325500  0.40034900  1
  C  1131  1  0.81476100  0.92399700  0.44702700  1
  C  1132  1  0.55710200  0.92046400  0.44205000  1
  C  1137  1  0.16949400  0.26340500  0.34605600  1
  C  1138  1  0.17662800  0.25800400  0.37040600  1
  C  1140  1  0.18170600  0.21567100  0.36232400  1
  C  1141  1  0.17390100  0.21957800  0.33759500  1
  C  1142  1  0.16757400  0.24356400  0.33010700  1
  C  1144  1  0.18934400  0.19272900  0.37232900  1
  C  1145  1  0.22184700  0.18708400  0.38424100  1
  C  1146  1  0.22579400  0.16351800  0.39357400  1
  C  1147  1  0.19928000  0.14573400  0.39064300  1
  C  1148  1  0.16752600  0.15263600  0.37902000  1
  C  1163  1  0.16938500  0.17167000  0.94550300  1
  C  1164  1  0.17663300  0.17703400  0.92115800  1
  C  1166  1  0.18144200  0.21940100  0.92914000  1
  C  1167  1  0.17353900  0.21553400  0.95386000  1
  C  1168  1  0.16726800  0.19155400  0.96139200  1
  C  1170  1  0.18901900  0.24234300  0.91911100  1
  C  1171  1  0.22165400  0.24809500  0.90741400  1
  C  1172  1  0.22557800  0.27168000  0.89811700  1
  C  1173  1  0.19892000  0.28938900  0.90091300  1
  C  1174  1  0.16701200  0.28236200  0.91226700  1
  C  1189  1  0.16891900  0.01696280  0.19192000  1
  C  1190  1  0.17617200  0.99263200  0.18650200  1
  C  1192  1  0.18126900  0.00074083  0.14417200  1
  C  1193  1  0.17337600  0.02545380  0.14809300  1
  C  1194  1  0.16698000  0.03291680  0.17207900  1
  C  1196  1  0.18897500  0.99077500  0.12122300  1
  C  1197  1  0.22160900  0.97904400  0.11553900  1
  C  1198  1  0.22564700  0.96977900  0.09195090  1
  C  1199  1  0.19910500  0.97263800  0.07417190  1
  C  1200  1  0.16719900  0.98404000  0.08112690  1
  C  1215  1  0.16953900  0.41796600  0.10002800  1
  C  1216  1  0.17682700  0.44230200  0.10540200  1
  C  1218  1  0.18162800  0.43429400  0.14776500  1
  C  1219  1  0.17367700  0.40958100  0.14388700  1
  C  1220  1  0.16740600  0.40206600  0.11990100  1
  C  1222  1  0.18921500  0.44431200  0.17071000  1
  C  1223  1  0.22184000  0.45602700  0.17645000  1
  C  1224  1  0.22575400  0.46535300  0.20002300  1
  C  1225  1  0.19908400  0.46258200  0.21772900  1
  C  1226  1  0.16720400  0.45117800  0.21072700  1
  C  1241  1  0.66965300  0.76542400  0.84891600  1
  C  1242  1  0.67990700  0.75949000  0.87262600  1
  C  1244  1  0.68099900  0.71713100  0.86389600  1
  C  1245  1  0.67010800  0.72160100  0.83980600  1
  C  1246  1  0.66434600  0.74584600  0.83297700  1
  C  1248  1  0.68784700  0.69380200  0.87327100  1
  C  1249  1  0.72096200  0.68678200  0.88358200  1
  C  1250  1  0.72378200  0.66305100  0.89270800  1
  C  1251  1  0.69547100  0.64641900  0.89104000  1
  C  1252  1  0.66325900  0.65462000  0.88095900  1
  C  1267  1  0.66939400  0.66934000  0.44280400  1
  C  1268  1  0.67981100  0.67530200  0.41913300  1
  C  1270  1  0.68098800  0.71764800  0.42794900  1
  C  1271  1  0.66998300  0.71313900  0.45201100  1
  C  1272  1  0.66406100  0.68889200  0.45876900  1
  C  1274  1  0.68787900  0.74099700  0.41862600  1
  C  1275  1  0.72097500  0.74801000  0.40827900  1
  C  1276  1  0.72381400  0.77175900  0.39920300  1
  C  1277  1  0.69557200  0.78843600  0.40099700  1
  C  1278  1  0.66337400  0.78023300  0.41109800  1
  C  1293  1  0.66938400  0.51436100  0.69400900  1
  C  1294  1  0.67965400  0.49065600  0.68807300  1
  C  1296  1  0.68101500  0.49944300  0.64572700  1
  C  1297  1  0.67014500  0.52353700  0.65020400  1
  C  1298  1  0.66422300  0.53033100  0.67444100  1
  C  1300  1  0.68797300  0.49009800  0.62239700  1
  C  1301  1  0.72109800  0.47975700  0.61544100  1
  C  1302  1  0.72402900  0.47067700  0.59170000  1
  C  1303  1  0.69584600  0.47245100  0.57497800  1
  C  1304  1  0.66360800  0.48254100  0.58312700  1
  C  1319  1  0.66991400  0.92031200  0.59816400  1
  C  1320  1  0.67985900  0.94409100  0.60406200  1
  C  1322  1  0.68126500  0.93538100  0.64642000  1
  C  1323  1  0.67068300  0.91122300  0.64198200  1
  C  1324  1  0.66488400  0.90435300  0.61775500  1
  C  1326  1  0.68814800  0.94479900  0.66972700  1
  C  1327  1  0.72116900  0.95532800  0.67662900  1
  C  1328  1  0.72403700  0.96446400  0.70035000  1
  C  1329  1  0.69590000  0.96257900  0.71709500  1
  C  1330  1  0.66377900  0.95227400  0.70901200  1
  C  1345  1  0.86505300  0.49448400  0.42737600  1
  C  1346  1  0.87191200  0.50261900  0.40378500  1
  C  1348  1  0.92730900  0.48116800  0.40193100  1
  C  1349  1  0.92222000  0.47244500  0.42581400  1
  C  1350  1  0.89032300  0.47888100  0.43783900  1
  C  1352  1  0.95641000  0.47474100  0.38687100  1
  C  1353  1  0.97815500  0.49151400  0.37427300  1
  C  1354  1  0.00702978  0.48226200  0.36071000  1
  C  1355  1  0.01500680  0.45737800  0.35953300  1
  C  1356  1  0.99152400  0.44182900  0.37187500  1
  C  1371  1  0.86492200  0.94070300  0.86505400  1
  C  1372  1  0.87175500  0.93241600  0.88859100  1
  C  1374  1  0.92718600  0.95381600  0.89056300  1
  C  1375  1  0.92215600  0.96263300  0.86670500  1
  C  1376  1  0.89023200  0.95631000  0.85465200  1
  C  1378  1  0.95618400  0.96024700  0.90571500  1
  C  1379  1  0.97770700  0.94350700  0.91852200  1
  C  1380  1  0.00642278  0.95278400  0.93222200  1
  C  1381  1  0.01448780  0.97766000  0.93333000  1
  C  1382  1  0.99120200  0.99317900  0.92077600  1
  C  1397  1  0.86527900  0.93640000  0.42258500  1
  C  1398  1  0.87168900  0.96001800  0.43079400  1
  C  1400  1  0.92709600  0.96237700  0.40939000  1
  C  1401  1  0.92247600  0.93846000  0.40063700  1
  C  1402  1  0.89077800  0.92615500  0.40701400  1
  C  1404  1  0.95569400  0.97783500  0.40284800  1
  C  1405  1  0.97658100  0.99127000  0.41946700  1
  C  1406  1  0.00456078  0.00556483  0.41006200  1
  C  1407  1  0.01264280  0.00662283  0.38517400  1
  C  1408  1  0.99011800  0.99326900  0.36980600  1
  C  1423  1  0.86493000  0.49900100  0.86902500  1
  C  1424  1  0.87200000  0.47550000  0.86071900  1
  C  1426  1  0.92736700  0.47372500  0.88220400  1
  C  1427  1  0.92208400  0.49754000  0.89106000  1
  C  1428  1  0.89009400  0.50948300  0.88468600  1
  C  1430  1  0.95653500  0.45871500  0.88860900  1
  C  1431  1  0.97835200  0.44618700  0.87182600  1
  C  1432  1  0.00719178  0.43259000  0.88107300  1
  C  1433  1  0.01511680  0.43135900  0.90596300  1
  C  1434  1  0.99158600  0.44365000  0.92151700  1
  C  1449  1  0.50209700  0.94104300  0.43096300  1
  C  1450  1  0.50256000  0.93835200  0.40572100  1
  C  1452  1  0.44366000  0.95465700  0.40173200  1
  C  1453  1  0.44126600  0.95780700  0.42713300  1
  C  1454  1  0.47125900  0.95135900  0.44121200  1
  C  1456  1  0.41711600  0.96191800  0.38499000  1
  C  1457  1  0.40394900  0.94715900  0.36607700  1
  C  1458  1  0.37779000  0.95713100  0.35066200  1
  C  1459  1  0.36365500  0.98062900  0.35369600  1
  C  1460  1  0.37877300  0.99426700  0.37259100  1
  C  1475  1  0.50076300  0.49265500  0.86096900  1
  C  1476  1  0.49773000  0.49920200  0.88544100  1
  C  1478  1  0.44211700  0.47841900  0.88969900  1
  C  1479  1  0.44303200  0.47140200  0.86508900  1
  C  1480  1  0.47292900  0.47852500  0.85127300  1
  C  1482  1  0.41556400  0.47096500  0.90624300  1
  C  1483  1  0.39471300  0.48705300  0.92027000  1
  C  1484  1  0.36950500  0.47688400  0.93626300  1
  C  1485  1  0.36424200  0.45172500  0.93840300  1
  C  1486  1  0.38676500  0.43694600  0.92443200  1
  C  1501  1  0.50104000  0.50225200  0.42119700  1
  C  1502  1  0.49836900  0.47766000  0.42734500  1
  C  1504  1  0.44244800  0.47350700  0.40692500  1
  C  1505  1  0.44302200  0.49823200  0.40030600  1
  C  1506  1  0.47290800  0.51206000  0.40742700  1
  C  1508  1  0.41591100  0.45697300  0.39942200  1
  C  1509  1  0.39542900  0.44263900  0.41545500  1
  C  1510  1  0.37008200  0.42677700  0.40524000  1
  C  1511  1  0.36433300  0.42503500  0.38009600  1
  C  1512  1  0.38654900  0.43928100  0.36536300  1
  C  1527  1  0.50120500  0.93273500  0.86981600  1
  C  1528  1  0.49973800  0.95762700  0.86482300  1
  C  1530  1  0.44297500  0.96175600  0.88415000  1
  C  1531  1  0.44236200  0.93673800  0.88959100  1
  C  1532  1  0.47213000  0.92276300  0.88252200  1
  C  1534  1  0.41651700  0.97832800  0.89171400  1
  C  1535  1  0.39742300  0.99369500  0.87586800  1
  C  1536  1  0.37174600  0.00927683  0.88614300  1
  C  1537  1  0.36432700  0.00983583  0.91115900  1
  C  1538  1  0.38542500  0.99467700  0.92574900  1
  N  363  1  0.99593600  0.01903000  0.17951400  1
  N  373  1  0.97748100  0.95946200  0.17252500  1
  N  377  1  0.06295900  0.98695500  0.18851800  1
  N  380  1  0.98712500  0.98577300  0.12297200  1
  N  383  1  0.01764100  0.90756300  0.20278800  1
  N  385  1  0.97767000  0.07036200  0.13913200  1
  N  389  1  0.99586200  0.98418200  0.71616500  1
  N  399  1  0.97700100  0.04370200  0.72290700  1
  N  403  1  0.06289600  0.01648400  0.70747200  1
  N  406  1  0.98655000  0.01756500  0.77259400  1
  N  409  1  0.01725100  0.09576300  0.69298700  1
  N  411  1  0.97763800  0.93289800  0.75665900  1
  N  415  1  0.99554200  0.76971400  0.96551900  1
  N  425  1  0.97707300  0.77664700  0.90596600  1
  N  429  1  0.06275000  0.76104600  0.93339200  1
  N  432  1  0.98655800  0.82625600  0.93228700  1
  N  435  1  0.01755700  0.74673800  0.85396800  1
  N  437  1  0.97704900  0.81005400  0.01687700  1
  N  441  1  0.99607700  0.23344600  0.93054700  1
  N  451  1  0.97720400  0.22668800  0.99006900  1
  N  455  1  0.06306600  0.24215500  0.96281700  1
  N  458  1  0.98667200  0.17700700  0.96390000  1
  N  461  1  0.01743700  0.25666600  0.04210000  1
  N  463  1  0.97774400  0.19301000  0.87924700  1
  N  467  1  0.49858700  0.52026900  0.68114000  1
  N  477  1  0.47435300  0.46159900  0.67469600  1
  N  481  1  0.56354800  0.48552700  0.68658600  1
  N  484  1  0.47983600  0.48804600  0.62511800  1
  N  487  1  0.51230900  0.40831200  0.70348900  1
  N  489  1  0.47786000  0.57261700  0.64255800  1
  N  493  1  0.49858700  0.48271000  0.21483900  1
  N  503  1  0.47443300  0.54140700  0.22145100  1
  N  507  1  0.56352700  0.51741700  0.20935500  1
  N  510  1  0.47968400  0.51484300  0.27089500  1
  N  513  1  0.51238600  0.59472800  0.19272900  1
  N  515  1  0.47746900  0.43031700  0.25327300  1
  N  519  1  0.49846700  0.26834100  0.46684900  1
  N  529  1  0.47458200  0.27491700  0.40811500  1
  N  533  1  0.56359400  0.26284800  0.43225600  1
  N  536  1  0.48002500  0.32443100  0.43465900  1
  N  539  1  0.51279100  0.24617600  0.35486400  1
  N  541  1  0.47744200  0.30686500  0.51919200  1
  N  545  1  0.49856900  0.73465100  0.42943800  1
  N  555  1  0.47480600  0.72802400  0.48820400  1
  N  559  1  0.56361500  0.74056100  0.46393900  1
  N  562  1  0.48071500  0.67852100  0.46171800  1
  N  565  1  0.51282000  0.75699500  0.54139100  1
  N  567  1  0.47817200  0.69591100  0.37715700  1
  N  571  1  0.71539900  0.27960300  0.19421500  1
  N  581  1  0.77763900  0.23499000  0.18688500  1
  N  585  1  0.78761100  0.29988200  0.17788800  1
  N  588  1  0.76018200  0.24285800  0.23978200  1
  N  591  1  0.86143900  0.23437800  0.15293100  1
  N  593  1  0.64622500  0.28192400  0.24020000  1
  N  597  1  0.71523100  0.72354200  0.70236800  1
  N  607  1  0.77748400  0.76816900  0.70979300  1
  N  611  1  0.78713200  0.70331500  0.71914700  1
  N  614  1  0.76016000  0.76043400  0.65697600  1
  N  617  1  0.86090400  0.76881100  0.74412900  1
  N  619  1  0.64603900  0.72155900  0.65645600  1
  N  623  1  0.71494600  0.75602200  0.22579100  1
  N  633  1  0.77696500  0.76384200  0.18109000  1
  N  637  1  0.78606400  0.77402500  0.24584200  1
  N  640  1  0.76069000  0.71089500  0.18904900  1
  N  643  1  0.85847000  0.80045500  0.18018100  1
  N  645  1  0.64657100  0.70958000  0.22793800  1
  N  649  1  0.71557500  0.24801100  0.66984700  1
  N  659  1  0.77770300  0.24066800  0.71453400  1
  N  663  1  0.78783200  0.23185400  0.64962900  1
  N  666  1  0.75992900  0.29351300  0.70691900  1
  N  669  1  0.86150800  0.20672400  0.71515700  1
  N  671  1  0.64600400  0.29371800  0.66783200  1
  N  675  1  0.28784400  0.72951400  0.19449400  1
  N  685  1  0.21780800  0.76877500  0.18908600  1
  N  689  1  0.22730900  0.70787400  0.16498400  1
  N  692  1  0.22525500  0.75029700  0.24053200  1
  N  695  1  0.14756300  0.77118800  0.14234400  1
  N  697  1  0.34580500  0.72223900  0.24669600  1
  N  701  1  0.28308300  0.27580800  0.70071700  1
  N  711  1  0.22454700  0.23095600  0.71134100  1
  N  715  1  0.21061100  0.29550100  0.72047900  1
  N  718  1  0.23027400  0.24256300  0.65647400  1
  N  721  1  0.15122600  0.22743000  0.75547100  1
  N  723  1  0.34537100  0.27966200  0.65021100  1
  N  727  1  0.28372500  0.24855600  0.22194000  1
  N  737  1  0.22444900  0.23843000  0.17740500  1
  N  741  1  0.21177800  0.22820000  0.24190200  1
  N  744  1  0.22993200  0.29312800  0.18987200  1
  N  747  1  0.15106500  0.19432300  0.17379500  1
  N  749  1  0.34555700  0.29926500  0.22623300  1
  N  753  1  0.28518400  0.75501500  0.67435700  1
  N  763  1  0.22360300  0.76394600  0.71782600  1
  N  767  1  0.21534400  0.77754800  0.65364100  1
  N  770  1  0.22825800  0.70987500  0.70300700  1
  N  773  1  0.15039900  0.80835000  0.72139800  1
  N  775  1  0.34534100  0.70352200  0.66890700  1
  N  1139  1  0.18233100  0.23494100  0.37743200  1
  N  1149  1  0.16387600  0.17537300  0.37044300  1
  N  1153  1  0.24935400  0.20286600  0.38643600  1
  N  1156  1  0.17352000  0.20168400  0.32089000  1
  N  1159  1  0.20403600  0.12347400  0.40070600  1
  N  1161  1  0.16406500  0.28627300  0.33705000  1
  N  1165  1  0.18225700  0.20009300  0.91408300  1
  N  1175  1  0.16339600  0.25961300  0.92082500  1
  N  1179  1  0.24929100  0.23239500  0.90539000  1
  N  1182  1  0.17294500  0.23347600  0.97051200  1
  N  1185  1  0.20364600  0.31167400  0.89090500  1
  N  1187  1  0.16403300  0.14880900  0.95457700  1
  N  1191  1  0.18193700  0.98562500  0.16343700  1
  N  1201  1  0.16346800  0.99255800  0.10388400  1
  N  1205  1  0.24914500  0.97695700  0.13131000  1
  N  1208  1  0.17295300  0.04216680  0.13020500  1
  N  1211  1  0.20395200  0.96264900  0.05188590  1
  N  1213  1  0.16344400  0.02596480  0.21479500  1
  N  1217  1  0.18247200  0.44935700  0.12846500  1
  N  1227  1  0.16359900  0.44259900  0.18798700  1
  N  1231  1  0.24946100  0.45806600  0.16073500  1
  N  1234  1  0.17306700  0.39291800  0.16181800  1
  N  1237  1  0.20383200  0.47257700  0.24001800  1
  N  1239  1  0.16413900  0.40892100  0.07716490  1
  N  1243  1  0.68498200  0.73618000  0.87905800  1
  N  1253  1  0.66074800  0.67751000  0.87261400  1
  N  1257  1  0.74994300  0.70143800  0.88450400  1
  N  1260  1  0.66623100  0.70395700  0.82303600  1
  N  1263  1  0.69870400  0.62422300  0.90140700  1
  N  1265  1  0.66425500  0.78852800  0.84047600  1
  N  1269  1  0.68498200  0.69862100  0.41275700  1
  N  1279  1  0.66082800  0.75731800  0.41936900  1
  N  1283  1  0.74992200  0.73332800  0.40727300  1
  N  1286  1  0.66607900  0.73075400  0.46881300  1
  N  1289  1  0.69878100  0.81063900  0.39064700  1
  N  1291  1  0.66386400  0.64622800  0.45119100  1
  N  1295  1  0.68486200  0.48425200  0.66476700  1
  N  1305  1  0.66097700  0.49082800  0.60603300  1
  N  1309  1  0.74998900  0.47875900  0.63017400  1
  N  1312  1  0.66642000  0.54034200  0.63257700  1
  N  1315  1  0.69918600  0.46208700  0.55278200  1
  N  1317  1  0.66383700  0.52277600  0.71711000  1
  N  1321  1  0.68496400  0.95056200  0.62735600  1
  N  1331  1  0.66120100  0.94393500  0.68612200  1
  N  1335  1  0.75001000  0.95647200  0.66185700  1
  N  1338  1  0.66711000  0.89443200  0.65963600  1
  N  1341  1  0.69921500  0.97290600  0.73930900  1
  N  1343  1  0.66456700  0.91182200  0.57507500  1
  N  1347  1  0.90179400  0.49551400  0.39213300  1
  N  1357  1  0.96403400  0.45090100  0.38480300  1
  N  1361  1  0.97400600  0.51579300  0.37580600  1
  N  1364  1  0.94657700  0.45876900  0.43770000  1
  N  1367  1  0.04783380  0.45028900  0.35084900  1
  N  1369  1  0.83262000  0.49783500  0.43811800  1
  N  1373  1  0.90162600  0.93945300  0.90028600  1
  N  1383  1  0.96387900  0.98408000  0.90771100  1
  N  1387  1  0.97352700  0.91922600  0.91706500  1
  N  1390  1  0.94655500  0.97634500  0.85489400  1
  N  1393  1  0.04729880  0.98472200  0.94204700  1
  N  1395  1  0.83243400  0.93747000  0.85437400  1
  N  1399  1  0.90134100  0.97193300  0.42370900  1
  N  1409  1  0.96336000  0.97975300  0.37900800  1
  N  1413  1  0.97245900  0.98993600  0.44376000  1
  N  1416  1  0.94708500  0.92680600  0.38696700  1
  N  1419  1  0.04486480  0.01636580  0.37809900  1
  N  1421  1  0.83296600  0.92549100  0.42585600  1
  N  1425  1  0.90197000  0.46392200  0.86776500  1
  N  1435  1  0.96409800  0.45657900  0.91245200  1
  N  1439  1  0.97422700  0.44776500  0.84754700  1
  N  1442  1  0.94632400  0.50942400  0.90483700  1
  N  1445  1  0.04790280  0.42263500  0.91307500  1
  N  1447  1  0.83239900  0.50962900  0.86575000  1
  N  1451  1  0.47423900  0.94542500  0.39241200  1
  N  1461  1  0.40420300  0.98468600  0.38700400  1
  N  1465  1  0.41370400  0.92378500  0.36290200  1
  N  1468  1  0.41165000  0.96620800  0.43845000  1
  N  1471  1  0.33395800  0.98709900  0.34026200  1
  N  1473  1  0.53220000  0.93815000  0.44461400  1
  N  1477  1  0.46947800  0.49171900  0.89863500  1
  N  1487  1  0.41094200  0.44686700  0.90925900  1
  N  1491  1  0.39700600  0.51141200  0.91839700  1
  N  1494  1  0.41666900  0.45847400  0.85439200  1
  N  1497  1  0.33762100  0.44334100  0.95338900  1
  N  1499  1  0.53176600  0.49557300  0.84812900  1
  N  1503  1  0.47012000  0.46446700  0.41985800  1
  N  1513  1  0.41084400  0.45434100  0.37532300  1
  N  1517  1  0.39817300  0.44411100  0.43982000  1
  N  1520  1  0.41632700  0.50903900  0.38779000  1
  N  1523  1  0.33746000  0.41023400  0.37171300  1
  N  1525  1  0.53195200  0.51517600  0.42415100  1
  N  1529  1  0.47157900  0.97092600  0.87227500  1
  N  1539  1  0.40999800  0.97985700  0.91574400  1
  N  1543  1  0.40173900  0.99345900  0.85155900  1
  N  1546  1  0.41465300  0.92578600  0.90092500  1
  N  1549  1  0.33679400  0.02426080  0.91931600  1
  N  1551  1  0.53173600  0.91943300  0.86682500  1
  O  42  1  0.02079200  0.26291400  0.08252600  1
  O  43  1  0.01649700  0.09192800  0.16482200  1
  O  44  1  0.13318200  0.21804500  0.14050400  1
  O  45  1  0.85014100  0.19388400  0.14157900  1
  O  87  1  0.02093300  0.74045900  0.81355000  1
  O  88  1  0.01628700  0.91124600  0.73092100  1
  O  89  1  0.13323800  0.78589700  0.75580300  1
  O  90  1  0.84976000  0.80943500  0.75504400  1
  O  132  1  0.02076700  0.86714200  0.20916400  1
  O  133  1  0.01555600  0.78425800  0.03857100  1
  O  134  1  0.13686500  0.81168200  0.15410000  1
  O  135  1  0.84799700  0.80887700  0.13887100  1
  O  177  1  0.02060000  0.13618000  0.68671100  1
  O  178  1  0.01660700  0.21863300  0.85764300  1
  O  179  1  0.13338200  0.19413300  0.73174100  1
  O  180  1  0.85024500  0.19537600  0.75565200  1
  O  222  1  0.51423400  0.76399300  0.58164500  1
  O  223  1  0.51990500  0.59352400  0.66651200  1
  O  224  1  0.64451800  0.67930200  0.65978400  1
  O  225  1  0.36162700  0.71714600  0.63021900  1
  O  267  1  0.51415100  0.23908300  0.31462300  1
  O  268  1  0.51961500  0.40938500  0.22940900  1
  O  269  1  0.64423600  0.32410500  0.23594100  1
  O  270  1  0.36091100  0.28662300  0.26540000  1
  O  312  1  0.51355700  0.36807000  0.71056000  1
  O  313  1  0.51934400  0.28290800  0.54017600  1
  O  314  1  0.64436400  0.29014300  0.62559300  1
  O  315  1  0.36047900  0.31900300  0.66248500  1
  O  357  1  0.51374600  0.63497900  0.18571800  1
  O  358  1  0.52002300  0.72003000  0.35625600  1
  O  359  1  0.64508300  0.71295900  0.27012500  1
  O  360  1  0.36273200  0.68413600  0.23199500  1
  O  818  1  0.20718700  0.47882500  0.28044400  1
  O  819  1  0.20289200  0.30783900  0.36274000  1
  O  820  1  0.31957700  0.43395600  0.33842200  1
  O  821  1  0.03653580  0.40979500  0.33949700  1
  O  863  1  0.20732800  0.95637000  0.01146790  1
  O  864  1  0.20268200  0.12715700  0.92883900  1
  O  865  1  0.31963300  0.00180783  0.95372100  1
  O  866  1  0.03615480  0.02534580  0.95296200  1
  O  908  1  0.20716200  0.08305280  0.40708200  1
  O  909  1  0.20195100  0.00016883  0.23648900  1
  O  910  1  0.32326000  0.02759280  0.35201800  1
  O  911  1  0.03439180  0.02478780  0.33678900  1
  O  953  1  0.20699500  0.35209100  0.88462900  1
  O  954  1  0.20300200  0.43454400  0.05556090  1
  O  955  1  0.31977700  0.41004400  0.92965900  1
  O  956  1  0.03663980  0.41128700  0.95357000  1
  O  998  1  0.70062900  0.97990400  0.77956300  1
  O  999  1  0.70630000  0.80943500  0.86443000  1
  O  1000  1  0.83091300  0.89521300  0.85770200  1
  O  1001  1  0.54802200  0.93305700  0.82813700  1
  O  1043  1  0.70054600  0.45499400  0.51254100  1
  O  1044  1  0.70601000  0.62529600  0.42732700  1
  O  1045  1  0.83063100  0.54001600  0.43385900  1
  O  1046  1  0.54730600  0.50253400  0.46331800  1
  O  1088  1  0.69995200  0.58398100  0.90847800  1
  O  1089  1  0.70573900  0.49881900  0.73809400  1
  O  1090  1  0.83075900  0.50605400  0.82351100  1
  O  1091  1  0.54687400  0.53491400  0.86040300  1
  O  1133  1  0.70014100  0.85089000  0.38363600  1
  O  1134  1  0.70641800  0.93594100  0.55417400  1
  O  1135  1  0.83147800  0.92887000  0.46804300  1
  O  1136  1  0.54912700  0.90004700  0.42991300  1
