# generated using pymatgen
data_H10C14N3O2
_symmetry_space_group_name_H-M   'P 1'
_cell_length_a   46.93510000
_cell_length_b   47.13830000
_cell_length_c   94.38000000
_cell_angle_alpha   90.00000000
_cell_angle_beta   90.00000000
_cell_angle_gamma   90.00000000
_symmetry_Int_Tables_number   1
_chemical_formula_structural   H10C14N3O2
_chemical_formula_sum   'H640 C896 N192 O128'
_cell_volume   208810.16500027
_cell_formula_units_Z   64
loop_
 _symmetry_equiv_pos_site_id
 _symmetry_equiv_pos_as_xyz
  1  'x, y, z'
loop_
 _atom_site_type_symbol
 _atom_site_label
 _atom_site_symmetry_multiplicity
 _atom_site_fract_x
 _atom_site_fract_y
 _atom_site_fract_z
 _atom_site_occupancy
  H  7  1  0.15233000  0.06677000  0.03963400  1
  H  8  1  0.06857800  0.06631200  0.02539100  1
  H  15  1  0.20739100  0.13087700  0.08478800  1
  H  16  1  0.13731500  0.14391400  0.05859200  1
  H  19  1  0.09965200  0.12246200  0.07238200  1
  H  20  1  0.06782500  0.12521900  0.06531900  1
  H  21  1  0.17749600  0.03976200  0.07132300  1
  H  22  1  0.14746000  0.04439100  0.06276200  1
  H  33  1  0.28040700  0.94041300  0.53963200  1
  H  34  1  0.36416500  0.94086700  0.52539400  1
  H  41  1  0.22534100  0.87631400  0.58479300  1
  H  42  1  0.29541500  0.86326800  0.55859500  1
  H  45  1  0.33308400  0.88471700  0.57238500  1
  H  46  1  0.36490600  0.88195700  0.56531900  1
  H  47  1  0.25524000  0.96742100  0.57132500  1
  H  48  1  0.28527500  0.96279400  0.56276200  1
  H  59  1  0.15293800  0.93982300  0.28962400  1
  H  60  1  0.15338000  0.85642000  0.27538100  1
  H  67  1  0.08841300  0.99446900  0.33466900  1
  H  68  1  0.07547900  0.92471400  0.30845300  1
  H  71  1  0.09699400  0.88736000  0.32238500  1
  H  72  1  0.09420300  0.85567900  0.31531900  1
  H  73  1  0.18003100  0.96490000  0.32133400  1
  H  74  1  0.17542400  0.93499300  0.31276500  1
  H  85  1  0.27982300  0.06735500  0.78963400  1
  H  86  1  0.27936100  0.15075100  0.77538400  1
  H  93  1  0.34420500  0.01252100  0.83476200  1
  H  94  1  0.35732100  0.08227800  0.80856900  1
  H  97  1  0.33575800  0.11981100  0.82238400  1
  H  98  1  0.33852100  0.15150000  0.81532100  1
  H  99  1  0.25269200  0.04229600  0.82132400  1
  H  100  1  0.25733900  0.07220100  0.81276100  1
  H  111  1  0.28032600  0.06748300  0.43571800  1
  H  112  1  0.36384700  0.06652200  0.45027500  1
  H  119  1  0.22532600  0.13133200  0.39096700  1
  H  120  1  0.29563200  0.14409000  0.41695100  1
  H  123  1  0.33321200  0.12253400  0.40304600  1
  H  124  1  0.36503200  0.12531400  0.41010500  1
  H  125  1  0.25513600  0.04000800  0.40414400  1
  H  126  1  0.28523000  0.04428300  0.41275300  1
  H  137  1  0.15239600  0.93969400  0.93571900  1
  H  138  1  0.06888100  0.94065300  0.95026800  1
  H  145  1  0.20740400  0.87583500  0.89097200  1
  H  146  1  0.13710200  0.86309600  0.91694900  1
  H  149  1  0.09952200  0.88464300  0.90304400  1
  H  150  1  0.06770400  0.88186200  0.91010600  1
  H  151  1  0.17759800  0.96717400  0.90414200  1
  H  152  1  0.14749800  0.96290200  0.91275100  1
  H  163  1  0.28053200  0.93989700  0.18572600  1
  H  164  1  0.27957800  0.85673600  0.20027600  1
  H  171  1  0.34466800  0.99467000  0.14096600  1
  H  172  1  0.35746800  0.92467400  0.16695400  1
  H  175  1  0.33582800  0.88725000  0.15304500  1
  H  176  1  0.33862100  0.85556700  0.16010500  1
  H  177  1  0.25293900  0.96498900  0.15414100  1
  H  178  1  0.25724100  0.93501200  0.16274700  1
  H  189  1  0.15219500  0.06728100  0.68571600  1
  H  190  1  0.15316500  0.15044100  0.70027800  1
  H  197  1  0.08806400  0.01251300  0.64096600  1
  H  198  1  0.07526200  0.08250900  0.66695300  1
  H  201  1  0.09690300  0.11993600  0.65304500  1
  H  202  1  0.09411700  0.15162300  0.66010400  1
  H  203  1  0.17979800  0.04219200  0.65414600  1
  H  204  1  0.17550000  0.07216100  0.66275300  1
  H  215  1  0.77594000  0.94040200  0.93583900  1
  H  216  1  0.85948300  0.94050000  0.95023300  1
  H  223  1  0.72099600  0.87628900  0.89067400  1
  H  224  1  0.79107000  0.86330800  0.91688500  1
  H  227  1  0.82877700  0.88454700  0.90308200  1
  H  228  1  0.86064200  0.88211200  0.91018100  1
  H  229  1  0.75088000  0.96743800  0.90414200  1
  H  230  1  0.78091300  0.96282800  0.91269000  1
  H  241  1  0.65679300  0.06677900  0.43583800  1
  H  242  1  0.57325200  0.06669100  0.45023300  1
  H  249  1  0.71173000  0.13088700  0.39067700  1
  H  250  1  0.64166300  0.14389000  0.41688500  1
  H  253  1  0.60395600  0.12265200  0.40308300  1
  H  254  1  0.57209500  0.12508500  0.41018100  1
  H  255  1  0.68185100  0.03974700  0.40414000  1
  H  256  1  0.65182000  0.04435600  0.41269000  1
  H  267  1  0.77986900  0.06733600  0.68581400  1
  H  268  1  0.77936600  0.15072900  0.70007600  1
  H  275  1  0.84473300  0.01248800  0.64064400  1
  H  276  1  0.85695000  0.08231500  0.66683900  1
  H  279  1  0.83578300  0.11977500  0.65309100  1
  H  280  1  0.83851400  0.15148000  0.66015000  1
  H  281  1  0.75296400  0.04223800  0.65412400  1
  H  282  1  0.75760400  0.07211400  0.66268400  1
  H  293  1  0.65286000  0.93985100  0.18581400  1
  H  294  1  0.65336500  0.85645800  0.20007800  1
  H  301  1  0.58800400  0.99470000  0.14064300  1
  H  302  1  0.57578100  0.92487100  0.16683900  1
  H  305  1  0.59695300  0.88740700  0.15309100  1
  H  306  1  0.59422300  0.85570300  0.16015000  1
  H  307  1  0.67977100  0.96494700  0.15412600  1
  H  308  1  0.67513300  0.93507100  0.16268700  1
  H  319  1  0.65686100  0.93969200  0.53975800  1
  H  320  1  0.57356300  0.94026200  0.52504500  1
  H  327  1  0.71168300  0.87559900  0.58447000  1
  H  328  1  0.64137100  0.86313800  0.55850100  1
  H  331  1  0.60382400  0.88448600  0.57243500  1
  H  332  1  0.57196500  0.88201700  0.56534100  1
  H  333  1  0.68201700  0.96722300  0.57124300  1
  H  334  1  0.65182600  0.96294000  0.56276300  1
  H  345  1  0.77588500  0.06749600  0.03976000  1
  H  346  1  0.85916800  0.06693300  0.02505000  1
  H  353  1  0.72105000  0.13161700  0.08446500  1
  H  354  1  0.79136400  0.14404100  0.05850000  1
  H  357  1  0.82890900  0.12271800  0.07243400  1
  H  358  1  0.86076400  0.12518100  0.06534100  1
  H  359  1  0.75071000  0.03996300  0.07124400  1
  H  360  1  0.78090700  0.04424800  0.06276700  1
  H  371  1  0.65213500  0.06729100  0.78976900  1
  H  372  1  0.65315400  0.15044700  0.77521000  1
  H  379  1  0.58766100  0.01233200  0.83447200  1
  H  380  1  0.57547000  0.08262500  0.80854200  1
  H  383  1  0.59688000  0.11991300  0.82242900  1
  H  384  1  0.59411500  0.15161500  0.81537800  1
  H  385  1  0.67936600  0.04218800  0.82135400  1
  H  386  1  0.67520100  0.07217900  0.81276000  1
  H  397  1  0.78060600  0.93991000  0.28977600  1
  H  398  1  0.77957100  0.85676100  0.27520200  1
  H  405  1  0.84507400  0.99485000  0.33447300  1
  H  406  1  0.85725900  0.92455700  0.30854200  1
  H  409  1  0.83585300  0.88726700  0.32242800  1
  H  410  1  0.83861000  0.85556500  0.31537600  1
  H  411  1  0.75336200  0.96500000  0.32134900  1
  H  412  1  0.75752600  0.93501200  0.31275700  1
  H  423  1  0.65668200  0.56897800  0.53965700  1
  H  424  1  0.57293600  0.56847800  0.52540100  1
  H  431  1  0.71175800  0.63355900  0.58482800  1
  H  432  1  0.64163600  0.64572700  0.55863400  1
  H  435  1  0.60401600  0.62464000  0.57238200  1
  H  436  1  0.57217600  0.62736600  0.56532100  1
  H  437  1  0.68188700  0.54218900  0.57134700  1
  H  438  1  0.65188000  0.54680800  0.56278900  1
  H  449  1  0.77605300  0.43820400  0.03965600  1
  H  450  1  0.85980500  0.43870200  0.02540400  1
  H  457  1  0.72097500  0.37362600  0.08482900  1
  H  458  1  0.79109700  0.36145500  0.05863400  1
  H  461  1  0.82871800  0.38253600  0.07238400  1
  H  462  1  0.86055500  0.37981200  0.06532000  1
  H  463  1  0.75084800  0.46499300  0.07134800  1
  H  464  1  0.78085300  0.46037700  0.06278800  1
  H  475  1  0.65292800  0.44211100  0.78962500  1
  H  476  1  0.65300700  0.35891800  0.77523600  1
  H  483  1  0.58840000  0.49656800  0.83471300  1
  H  484  1  0.57550400  0.42682900  0.80847200  1
  H  487  1  0.59682000  0.38949400  0.82239300  1
  H  488  1  0.59434300  0.35777500  0.81529300  1
  H  489  1  0.68004800  0.46708300  0.82134400  1
  H  490  1  0.67545700  0.43717900  0.81278600  1
  H  501  1  0.77983300  0.56506700  0.28963400  1
  H  502  1  0.77972900  0.64825400  0.27524200  1
  H  509  1  0.84421800  0.51036400  0.33478800  1
  H  510  1  0.85727800  0.58013100  0.30858200  1
  H  513  1  0.83592700  0.61767800  0.32239300  1
  H  514  1  0.83837600  0.64940600  0.31529400  1
  H  515  1  0.75267400  0.54011400  0.32133300  1
  H  516  1  0.75730400  0.57001600  0.31278200  1
  H  527  1  0.77596800  0.56943000  0.93578600  1
  H  528  1  0.85942800  0.56841400  0.95031400  1
  H  535  1  0.72105800  0.63424800  0.89098200  1
  H  536  1  0.79139400  0.64585400  0.91694600  1
  H  539  1  0.82882400  0.62462300  0.90310600  1
  H  540  1  0.86064000  0.62736600  0.91016500  1
  H  541  1  0.75070300  0.54238200  0.90422400  1
  H  542  1  0.78085600  0.54669100  0.91272100  1
  H  553  1  0.65675400  0.43774800  0.43578600  1
  H  554  1  0.57330100  0.43876000  0.45030800  1
  H  561  1  0.71167100  0.37290000  0.39098500  1
  H  562  1  0.64133700  0.36133600  0.41694600  1
  H  565  1  0.60391100  0.38255500  0.40310300  1
  H  566  1  0.57209700  0.37981200  0.41016500  1
  H  567  1  0.68203600  0.46480000  0.40422300  1
  H  568  1  0.65188000  0.46048900  0.41271800  1
  H  579  1  0.78055900  0.44216400  0.68572700  1
  H  580  1  0.77996700  0.35923600  0.70042900  1
  H  587  1  0.84455400  0.49700100  0.64103100  1
  H  588  1  0.85759600  0.42674600  0.66697700  1
  H  591  1  0.83599800  0.38937100  0.65304100  1
  H  592  1  0.83848400  0.35764700  0.66012700  1
  H  593  1  0.75309400  0.46712100  0.65412900  1
  H  594  1  0.75723800  0.43710500  0.66271800  1
  H  605  1  0.65216700  0.56501400  0.18571700  1
  H  606  1  0.65277400  0.64794600  0.20042700  1
  H  613  1  0.58817700  0.51018600  0.14102800  1
  H  614  1  0.57513500  0.58043800  0.16697500  1
  H  617  1  0.59673900  0.61781600  0.15303800  1
  H  618  1  0.59425700  0.64954300  0.16012600  1
  H  619  1  0.67964300  0.54005700  0.15413400  1
  H  620  1  0.67550200  0.57007100  0.16272000  1
  H  631  1  0.28025300  0.43819500  0.43581600  1
  H  632  1  0.36379000  0.43833500  0.45022200  1
  H  639  1  0.22529600  0.37361900  0.39063900  1
  H  640  1  0.29541500  0.36148300  0.41684600  1
  H  643  1  0.33307900  0.38237000  0.40308200  1
  H  644  1  0.36495800  0.37996500  0.41017900  1
  H  645  1  0.25515500  0.46501200  0.40411700  1
  H  646  1  0.28515600  0.46041100  0.41266400  1
  H  657  1  0.15247900  0.56898700  0.93581600  1
  H  658  1  0.06894300  0.56885500  0.95022100  1
  H  665  1  0.20743800  0.63356300  0.89063900  1
  H  666  1  0.13731900  0.64570200  0.91684500  1
  H  669  1  0.09965700  0.62483100  0.90308400  1
  H  670  1  0.06778100  0.62723000  0.91017900  1
  H  671  1  0.17757800  0.54217200  0.90411600  1
  H  672  1  0.14757700  0.54677400  0.91266500  1
  H  683  1  0.27988000  0.56504700  0.18581300  1
  H  684  1  0.27973500  0.64823000  0.20022000  1
  H  691  1  0.34474200  0.51032100  0.14063900  1
  H  692  1  0.35692300  0.58014300  0.16684600  1
  H  695  1  0.33595400  0.61764400  0.15308200  1
  H  696  1  0.33837400  0.64938400  0.16017700  1
  H  697  1  0.25294500  0.54005700  0.15411300  1
  H  698  1  0.25757100  0.56992900  0.16266300  1
  H  709  1  0.15284800  0.44213900  0.68581400  1
  H  710  1  0.15299900  0.35895600  0.70022000  1
  H  717  1  0.08799600  0.49686500  0.64063800  1
  H  718  1  0.07581000  0.42704300  0.66684600  1
  H  721  1  0.09678500  0.38953900  0.65308000  1
  H  722  1  0.09436900  0.35779600  0.66017700  1
  H  723  1  0.17978900  0.46712900  0.65411600  1
  H  724  1  0.17516800  0.43725800  0.66266500  1
  H  735  1  0.15256400  0.43773500  0.03969600  1
  H  736  1  0.06933000  0.43838000  0.02500900  1
  H  743  1  0.20742600  0.37316500  0.08453500  1
  H  744  1  0.13710200  0.36134700  0.05853900  1
  H  747  1  0.09955700  0.38238500  0.07237400  1
  H  748  1  0.06769800  0.37996700  0.06528400  1
  H  749  1  0.17766400  0.46478300  0.07135700  1
  H  750  1  0.14761100  0.46051900  0.06275400  1
  H  761  1  0.28018100  0.56944900  0.53969400  1
  H  762  1  0.36341500  0.56883000  0.52502000  1
  H  769  1  0.22531300  0.63403800  0.58453300  1
  H  770  1  0.29563200  0.64583700  0.55853900  1
  H  773  1  0.33316500  0.62481800  0.57237600  1
  H  774  1  0.36502400  0.62723000  0.56528900  1
  H  775  1  0.25507200  0.54240300  0.57135800  1
  H  776  1  0.28512800  0.54666500  0.56275500  1
  H  787  1  0.15213600  0.56498000  0.28978000  1
  H  788  1  0.15275800  0.64791600  0.27506100  1
  H  795  1  0.08752600  0.51032100  0.33454200  1
  H  796  1  0.07564800  0.58034900  0.30855200  1
  H  799  1  0.09671400  0.61776700  0.32243300  1
  H  800  1  0.09426800  0.64950300  0.31534400  1
  H  801  1  0.17956100  0.53996000  0.32135900  1
  H  802  1  0.17526900  0.56990100  0.31277200  1
  H  813  1  0.28060300  0.44220900  0.78979000  1
  H  814  1  0.27996800  0.35927000  0.77506300  1
  H  821  1  0.34520900  0.49686500  0.83454200  1
  H  822  1  0.35708300  0.42683500  0.80855400  1
  H  825  1  0.33601800  0.38941300  0.82243600  1
  H  826  1  0.33845700  0.35767500  0.81534500  1
  H  827  1  0.25316900  0.46722700  0.82135500  1
  H  828  1  0.25745800  0.43729200  0.81276800  1
  H  839  1  0.20136700  0.23299500  0.08824600  1
  H  841  1  0.13511000  0.27348600  0.05527700  1
  H  843  1  0.12147900  0.22857000  0.04852200  1
  H  844  1  0.21495400  0.27686400  0.09500600  1
  H  846  1  0.14800600  0.31757000  0.06184100  1
  H  848  1  0.18882100  0.19204700  0.08227000  1
  H  855  1  0.23136700  0.77418700  0.58824700  1
  H  857  1  0.29762200  0.73369600  0.55527600  1
  H  859  1  0.31125600  0.77861200  0.54852300  1
  H  860  1  0.21778000  0.73031800  0.59500600  1
  H  862  1  0.28472700  0.68961500  0.56184100  1
  H  864  1  0.24381600  0.81515000  0.58224400  1
  H  871  1  0.98560500  0.98860300  0.33822400  1
  H  873  1  0.94537900  0.92258200  0.30523800  1
  H  875  1  0.99051600  0.90906000  0.29849700  1
  H  876  1  0.94195500  0.00212500  0.34497700  1
  H  878  1  0.90107100  0.93549700  0.31181700  1
  H  880  1  0.02764500  0.97640700  0.33355800  1
  H  887  1  0.44674300  0.01854700  0.83825400  1
  H  889  1  0.48741600  0.08450700  0.80527600  1
  H  891  1  0.44231800  0.09807200  0.79852200  1
  H  892  1  0.49082300  0.00499700  0.84500700  1
  H  894  1  0.53164300  0.07166500  0.81183000  1
  H  896  1  0.40578000  0.03113700  0.83206300  1
  H  903  1  0.23136000  0.23302500  0.38722500  1
  H  905  1  0.29762200  0.27352000  0.42019100  1
  H  907  1  0.31125600  0.22857600  0.42695100  1
  H  908  1  0.21777500  0.27687000  0.38046600  1
  H  910  1  0.28465300  0.31766300  0.41363300  1
  H  912  1  0.24385200  0.19208600  0.39321100  1
  H  919  1  0.20137300  0.77415700  0.88722400  1
  H  921  1  0.13511600  0.73366400  0.92019300  1
  H  923  1  0.12147900  0.77860800  0.92695000  1
  H  924  1  0.21495700  0.73031400  0.88046700  1
  H  926  1  0.14808200  0.68952100  0.91363400  1
  H  928  1  0.18901100  0.81509700  0.89327500  1
  H  935  1  0.44679800  0.98866200  0.13722400  1
  H  937  1  0.48746500  0.92269000  0.17019200  1
  H  939  1  0.44232600  0.90911300  0.17695100  1
  H  940  1  0.49082900  0.00218800  0.13046600  1
  H  942  1  0.53179700  0.93560100  0.16363400  1
  H  944  1  0.40567100  0.97635600  0.14325400  1
  H  951  1  0.98593900  0.01852100  0.63722500  1
  H  953  1  0.94526800  0.08449600  0.67019100  1
  H  955  1  0.99040700  0.09807000  0.67695000  1
  H  956  1  0.94190400  0.00499500  0.63046700  1
  H  958  1  0.90093600  0.07158300  0.66363400  1
  H  960  1  0.02705600  0.03096000  0.64321100  1
  H  967  1  0.72702800  0.77418500  0.88722700  1
  H  969  1  0.79329200  0.73369800  0.92019600  1
  H  971  1  0.80692100  0.77861200  0.92695000  1
  H  972  1  0.71344500  0.73031800  0.88046700  1
  H  974  1  0.78040400  0.68963000  0.91364000  1
  H  976  1  0.73955600  0.81518100  0.89316000  1
  H  983  1  0.70570100  0.23299900  0.38722600  1
  H  985  1  0.63944300  0.27348600  0.42019700  1
  H  987  1  0.62580900  0.22857200  0.42695100  1
  H  988  1  0.71928800  0.27686600  0.38046700  1
  H  990  1  0.65232900  0.31755300  0.41364000  1
  H  992  1  0.69324100  0.19203800  0.39322800  1
  H  999  1  0.70570700  0.77416000  0.58824900  1
  H  1001  1  0.63944500  0.73366400  0.55528300  1
  H  1003  1  0.62581200  0.77860800  0.54852300  1
  H  1004  1  0.71929000  0.73031400  0.59500700  1
  H  1006  1  0.65241200  0.68952400  0.56184000  1
  H  1008  1  0.69322800  0.81511800  0.58227900  1
  H  1015  1  0.72702800  0.23302900  0.08825000  1
  H  1017  1  0.79328600  0.27352000  0.05528200  1
  H  1019  1  0.80692400  0.22857600  0.04852300  1
  H  1020  1  0.71344500  0.27686800  0.09500700  1
  H  1022  1  0.78031900  0.31766100  0.06184000  1
  H  1024  1  0.73933400  0.19203300  0.08226600  1
  H  1031  1  0.48557700  0.49078500  0.83821600  1
  H  1033  1  0.44536200  0.42475000  0.80523900  1
  H  1035  1  0.49051400  0.41121900  0.79849800  1
  H  1036  1  0.44195300  0.50428200  0.84497800  1
  H  1038  1  0.40101400  0.43766500  0.81183000  1
  H  1040  1  0.52726900  0.47939100  0.83305700  1
  H  1047  1  0.94675700  0.51637400  0.33824600  1
  H  1049  1  0.98743000  0.58234100  0.30527800  1
  H  1051  1  0.94231900  0.59591400  0.29852200  1
  H  1052  1  0.99082200  0.50284100  0.34500600  1
  H  1054  1  0.03170100  0.56949800  0.31184100  1
  H  1056  1  0.90572200  0.52884300  0.33214500  1
  H  1063  1  0.94680800  0.49082500  0.63722200  1
  H  1065  1  0.98747100  0.42484300  0.67019200  1
  H  1067  1  0.94232600  0.41127000  0.67695200  1
  H  1068  1  0.99083100  0.50434700  0.63046600  1
  H  1070  1  0.03180200  0.43775600  0.66363400  1
  H  1072  1  0.90570000  0.47838100  0.64318800  1
  H  1079  1  0.48592500  0.51635900  0.13722200  1
  H  1081  1  0.44526200  0.58234100  0.17019200  1
  H  1083  1  0.49040700  0.59591400  0.17695100  1
  H  1084  1  0.44190200  0.50283700  0.13046600  1
  H  1086  1  0.40093300  0.56942600  0.16363400  1
  H  1088  1  0.52703300  0.52880500  0.14318700  1
  H  1095  1  0.94413200  0.07299200  0.06032200  1
  H  1097  1  0.98498900  0.11915300  0.01983500  1
  H  1099  1  0.93996900  0.12853800  0.01158000  1
  H  1100  1  0.98854300  0.06354700  0.06852800  1
  H  1102  1  0.03071700  0.10735600  0.02720900  1
  H  1104  1  0.90045300  0.07616700  0.05163000  1
  H  1111  1  0.48859900  0.93419100  0.56032400  1
  H  1113  1  0.44774600  0.88803100  0.51983600  1
  H  1115  1  0.49276400  0.87864800  0.51158200  1
  H  1116  1  0.44418800  0.94363700  0.56852800  1
  H  1118  1  0.40201900  0.89980900  0.52720900  1
  H  1120  1  0.53228400  0.93102600  0.55162500  1
  H  1127  1  0.14666700  0.73253100  0.31032200  1
  H  1129  1  0.10030300  0.77321100  0.26983700  1
  H  1131  1  0.09088100  0.72838800  0.26158100  1
  H  1132  1  0.15615300  0.77675200  0.31852800  1
  H  1134  1  0.11215200  0.81874500  0.27720600  1
  H  1136  1  0.14348700  0.68902700  0.30162600  1
  H  1143  1  0.28606800  0.27465300  0.81032300  1
  H  1145  1  0.33243200  0.23397300  0.76983800  1
  H  1147  1  0.34185300  0.27879400  0.76158100  1
  H  1148  1  0.27658200  0.23043200  0.81852800  1
  H  1150  1  0.32058800  0.18843400  0.77720800  1
  H  1152  1  0.28924700  0.31815700  0.80162700  1
  H  1159  1  0.48862200  0.07299400  0.41515400  1
  H  1161  1  0.44775900  0.11915600  0.45563900  1
  H  1163  1  0.49276800  0.12853800  0.46389300  1
  H  1164  1  0.44419500  0.06354700  0.40694500  1
  H  1166  1  0.40203200  0.10734100  0.44826300  1
  H  1168  1  0.53234600  0.07619100  0.42384600  1
  H  1175  1  0.94411100  0.93419100  0.91515200  1
  H  1177  1  0.98497200  0.88802900  0.95563900  1
  H  1179  1  0.93996700  0.87864600  0.96389300  1
  H  1180  1  0.98853800  0.94363700  0.90694500  1
  H  1182  1  0.03069900  0.89982600  0.94826200  1
  H  1184  1  0.90038200  0.93100200  0.92384800  1
  H  1191  1  0.28607000  0.73250800  0.16515400  1
  H  1193  1  0.33243000  0.77320100  0.20564000  1
  H  1195  1  0.34185500  0.72838400  0.21389400  1
  H  1196  1  0.27658200  0.77674300  0.15694500  1
  H  1198  1  0.32055800  0.81873100  0.19826000  1
  H  1200  1  0.28927200  0.68896100  0.17384700  1
  H  1207  1  0.14666600  0.27467400  0.66515300  1
  H  1209  1  0.10029900  0.23398600  0.70563800  1
  H  1211  1  0.09088000  0.27879900  0.71389400  1
  H  1212  1  0.15615300  0.23043900  0.65694500  1
  H  1214  1  0.11216200  0.18844900  0.69826400  1
  H  1216  1  0.14346200  0.31822300  0.67384700  1
  H  1223  1  0.78606700  0.27465100  0.66515100  1
  H  1225  1  0.83243100  0.23397100  0.70563700  1
  H  1227  1  0.84185300  0.27879400  0.71389300  1
  H  1228  1  0.77658200  0.23043200  0.65694600  1
  H  1230  1  0.82058100  0.18843100  0.69826500  1
  H  1232  1  0.78924400  0.31815100  0.67384700  1
  H  1239  1  0.64666600  0.73253300  0.16515000  1
  H  1241  1  0.60030200  0.77321300  0.20563600  1
  H  1243  1  0.59088000  0.72838800  0.21389300  1
  H  1244  1  0.65615100  0.77675200  0.15694500  1
  H  1246  1  0.61214800  0.81875600  0.19826400  1
  H  1248  1  0.64348900  0.68903400  0.17384600  1
  H  1255  1  0.64666600  0.27467400  0.81032100  1
  H  1257  1  0.60030000  0.23398600  0.76983600  1
  H  1259  1  0.59088000  0.27879900  0.76158100  1
  H  1260  1  0.65615100  0.23043900  0.81852800  1
  H  1262  1  0.61216700  0.18844900  0.77721000  1
  H  1264  1  0.64346600  0.31821700  0.80162700  1
  H  1271  1  0.78606700  0.73251000  0.31032000  1
  H  1273  1  0.83243500  0.77319900  0.26983600  1
  H  1275  1  0.84185300  0.72838600  0.26158100  1
  H  1276  1  0.77658200  0.77674600  0.31852800  1
  H  1278  1  0.82057200  0.81873900  0.27721000  1
  H  1280  1  0.78926900  0.68896400  0.30162700  1
  H  1287  1  0.44843500  0.57514300  0.56031300  1
  H  1289  1  0.48932700  0.62131000  0.51983800  1
  H  1291  1  0.44431200  0.63069700  0.51158000  1
  H  1292  1  0.49287000  0.56570500  0.56852800  1
  H  1294  1  0.53505400  0.60951000  0.52721200  1
  H  1296  1  0.40474200  0.57834400  0.55160600  1
  H  1303  1  0.98428100  0.43203300  0.06032000  1
  H  1305  1  0.94341600  0.38587700  0.01983700  1
  H  1307  1  0.98843000  0.37649000  0.01158200  1
  H  1308  1  0.93985800  0.44147900  0.06852700  1
  H  1310  1  0.89768300  0.39765300  0.02721200  1
  H  1312  1  0.02800300  0.42885500  0.05162500  1
  H  1319  1  0.98428800  0.57515200  0.91515600  1
  H  1321  1  0.94341600  0.62131000  0.95563700  1
  H  1323  1  0.98843000  0.63069500  0.96389300  1
  H  1324  1  0.93986000  0.56570500  0.90694700  1
  H  1326  1  0.89768500  0.60949500  0.94827100  1
  H  1328  1  0.02801900  0.57834900  0.92384400  1
  H  1335  1  0.44844700  0.43203300  0.41515400  1
  H  1337  1  0.48931200  0.38587500  0.45563700  1
  H  1339  1  0.44430100  0.37649000  0.46389200  1
  H  1340  1  0.49287500  0.44147700  0.40694600  1
  H  1342  1  0.53504600  0.39767000  0.44827100  1
  H  1344  1  0.40471200  0.42884200  0.42384800  1
  H  1351  1  0.16293100  0.98572400  0.00503100  1
  H  1353  1  0.09636800  0.02197600  0.97073300  1
  H  1355  1  0.08290500  0.05596300  0.98613300  1
  H  1356  1  0.17635600  0.95130400  0.98906300  1
  H  1358  1  0.11207600  0.99277100  0.95384300  1
  H  1360  1  0.14983300  0.02165400  0.02116600  1
  H  1367  1  0.26980500  0.02146100  0.50503100  1
  H  1369  1  0.33636500  0.98520900  0.47073200  1
  H  1371  1  0.34983000  0.95122100  0.48613400  1
  H  1372  1  0.25637800  0.05588000  0.48906200  1
  H  1374  1  0.32065800  0.01441600  0.45384200  1
  H  1376  1  0.28289700  0.98552300  0.52116500  1
  H  1383  1  0.23431700  0.95039000  0.25503200  1
  H  1385  1  0.19791100  0.88411500  0.22073000  1
  H  1387  1  0.16377400  0.87070900  0.23613200  1
  H  1388  1  0.26888600  0.96375900  0.23906300  1
  H  1390  1  0.22724600  0.89973000  0.20381900  1
  H  1392  1  0.19822000  0.93735400  0.27116400  1
  H  1399  1  0.19842100  0.05679600  0.75503100  1
  H  1401  1  0.23483100  0.12307300  0.72073300  1
  H  1403  1  0.26896500  0.13647900  0.73613400  1
  H  1404  1  0.16385200  0.04343000  0.73906200  1
  H  1406  1  0.20549900  0.10743000  0.70384200  1
  H  1408  1  0.23450500  0.06984300  0.77116600  1
  H  1415  1  0.76546400  0.02146000  0.97044400  1
  H  1417  1  0.83203700  0.98520600  0.00473800  1
  H  1419  1  0.84549600  0.95121900  0.98934100  1
  H  1420  1  0.75204300  0.05588100  0.98641100  1
  H  1422  1  0.81629000  0.01436300  0.02161400  1
  H  1424  1  0.77857800  0.98558200  0.95430600  1
  H  1431  1  0.66726700  0.98572200  0.47044400  1
  H  1433  1  0.60069600  0.02197700  0.50473900  1
  H  1435  1  0.58723700  0.05596400  0.48934100  1
  H  1436  1  0.68069000  0.95130200  0.48641100  1
  H  1438  1  0.61644300  0.99281800  0.52161600  1
  H  1440  1  0.65415700  0.02160800  0.45430600  1
  H  1447  1  0.69842300  0.05679700  0.72043700  1
  H  1449  1  0.73482200  0.12306000  0.75474900  1
  H  1451  1  0.76896300  0.13647800  0.73934200  1
  H  1452  1  0.66384900  0.04342400  0.73640700  1
  H  1454  1  0.70544900  0.10745000  0.77162800  1
  H  1456  1  0.73451700  0.06982900  0.70430900  1
  H  1463  1  0.73431000  0.95038600  0.22044300  1
  H  1465  1  0.69790300  0.88411000  0.25474000  1
  H  1467  1  0.66376800  0.87070500  0.23934100  1
  H  1468  1  0.76888200  0.96375500  0.23641100  1
  H  1470  1  0.72723900  0.89975600  0.27163400  1
  H  1472  1  0.69822700  0.93734100  0.20430800  1
  H  1479  1  0.66724100  0.48788300  0.50497400  1
  H  1481  1  0.60082800  0.52374300  0.47053900  1
  H  1483  1  0.58728800  0.55799400  0.48607200  1
  H  1484  1  0.68071900  0.45344400  0.48907600  1
  H  1486  1  0.61586800  0.49305300  0.45372600  1
  H  1488  1  0.65413400  0.52378600  0.52111800  1
  H  1495  1  0.76549400  0.51930100  0.00497400  1
  H  1497  1  0.83190500  0.48344100  0.97053900  1
  H  1499  1  0.84544500  0.44918800  0.98607300  1
  H  1500  1  0.75201600  0.55374000  0.98907600  1
  H  1502  1  0.81686900  0.51413300  0.95372500  1
  H  1504  1  0.77859500  0.48339000  0.02111600  1
  H  1511  1  0.73431500  0.45255100  0.75503100  1
  H  1513  1  0.69790900  0.38626700  0.72073200  1
  H  1515  1  0.66377300  0.37286400  0.73613100  1
  H  1516  1  0.76888600  0.46591600  0.73906300  1
  H  1518  1  0.72719200  0.40192100  0.70383600  1
  H  1520  1  0.69827100  0.43950000  0.77116700  1
  H  1527  1  0.69842000  0.55463600  0.25503000  1
  H  1529  1  0.73483200  0.62092100  0.22073500  1
  H  1531  1  0.76896500  0.63432200  0.23613400  1
  H  1532  1  0.66384900  0.54127300  0.23906200  1
  H  1534  1  0.70555200  0.60524000  0.20385900  1
  H  1536  1  0.73445100  0.56769700  0.27116900  1
  H  1543  1  0.26982000  0.51930100  0.47050100  1
  H  1545  1  0.33624100  0.48343900  0.50493300  1
  H  1547  1  0.34977900  0.44918800  0.48940100  1
  H  1548  1  0.25634800  0.55374000  0.48639700  1
  H  1550  1  0.32116900  0.51409100  0.52173300  1
  H  1552  1  0.28294200  0.48344900  0.45435400  1
  H  1559  1  0.16291200  0.48788100  0.97050100  1
  H  1561  1  0.09649100  0.52374300  0.00493300  1
  H  1563  1  0.08295500  0.55799600  0.98940200  1
  H  1564  1  0.17638700  0.45344400  0.98639700  1
  H  1566  1  0.11156200  0.49309100  0.02173500  1
  H  1568  1  0.14979700  0.52374100  0.95435400  1
  H  1575  1  0.19841900  0.55463300  0.22044300  1
  H  1577  1  0.23482200  0.62091500  0.25474200  1
  H  1579  1  0.26896100  0.63431800  0.23934200  1
  H  1580  1  0.16384700  0.54126900  0.23641000  1
  H  1582  1  0.20553500  0.60526100  0.27163900  1
  H  1584  1  0.23446400  0.56768200  0.20430700  1
  H  1591  1  0.23431100  0.45254700  0.72044400  1
  H  1593  1  0.19790300  0.38626300  0.75473900  1
  H  1595  1  0.16376800  0.37286200  0.73934100  1
  H  1596  1  0.26888200  0.46591200  0.73641100  1
  H  1598  1  0.22719100  0.40194700  0.77161700  1
  H  1600  1  0.19828000  0.43948700  0.70430600  1
  H  1607  1  0.23235500  0.99985100  0.11958500  1
  H  1609  1  0.27825300  0.08625700  0.10543700  1
  H  1611  1  0.31465200  0.07692500  0.12108400  1
  H  1612  1  0.19658400  0.00857500  0.10434200  1
  H  1614  1  0.24076900  0.09661700  0.09017500  1
  H  1616  1  0.26890800  0.98608500  0.13173600  1
  H  1623  1  0.20037800  0.00733300  0.61958500  1
  H  1625  1  0.15448200  0.92092800  0.60543700  1
  H  1627  1  0.11808100  0.93026000  0.62108400  1
  H  1628  1  0.23615000  0.99860700  0.60434200  1
  H  1630  1  0.19196400  0.91056700  0.59017600  1
  H  1632  1  0.16382800  0.02109200  0.63173500  1
  H  1639  1  0.22013400  0.01950700  0.36958100  1
  H  1641  1  0.13335200  0.06520100  0.35543900  1
  H  1643  1  0.14272300  0.10144500  0.37108300  1
  H  1644  1  0.21135800  0.98388900  0.35433900  1
  H  1646  1  0.12290600  0.02786200  0.34017300  1
  H  1648  1  0.23385900  0.05590500  0.38174800  1
  H  1655  1  0.21261200  0.98768000  0.86958300  1
  H  1657  1  0.29938800  0.94197600  0.85543700  1
  H  1659  1  0.29001600  0.90573200  0.87108400  1
  H  1660  1  0.22137400  0.02329200  0.85434100  1
  H  1662  1  0.30980000  0.97929800  0.84017200  1
  H  1664  1  0.19880500  0.95128100  0.88173300  1
  H  1671  1  0.69627100  0.00710900  0.85597700  1
  H  1673  1  0.65012600  0.92084700  0.87006300  1
  H  1675  1  0.61372500  0.93022800  0.85439500  1
  H  1676  1  0.73186700  0.99857600  0.87116000  1
  H  1678  1  0.68763500  0.91051100  0.88532100  1
  H  1680  1  0.65878900  0.02135500  0.84482100  1
  H  1687  1  0.73646200  0.00007500  0.35597600  1
  H  1689  1  0.78260700  0.08633700  0.37006200  1
  H  1691  1  0.81900800  0.07695700  0.35439500  1
  H  1692  1  0.70086600  0.00860800  0.37116000  1
  H  1694  1  0.74509800  0.09667400  0.38532000  1
  H  1696  1  0.77394200  0.98583200  0.34482100  1
  H  1703  1  0.71256100  0.98779200  0.60588400  1
  H  1705  1  0.79942600  0.94200000  0.62006700  1
  H  1707  1  0.78999800  0.90574500  0.60438500  1
  H  1708  1  0.72138400  0.02334100  0.62115500  1
  H  1710  1  0.80988100  0.97930500  0.63529900  1
  H  1712  1  0.69890000  0.95072900  0.59375800  1
  H  1719  1  0.72016100  0.01937600  0.10588400  1
  H  1721  1  0.63330500  0.06519000  0.12006600  1
  H  1723  1  0.64273500  0.10144300  0.10438400  1
  H  1724  1  0.71134700  0.98384500  0.12115500  1
  H  1726  1  0.62285200  0.02788300  0.13530200  1
  H  1728  1  0.73388000  0.05641800  0.09375300  1
  H  1735  1  0.73642400  0.50225600  0.61948400  1
  H  1737  1  0.78259400  0.58850000  0.60540500  1
  H  1739  1  0.81900600  0.57911500  0.62107700  1
  H  1740  1  0.70086200  0.51078000  0.60430800  1
  H  1742  1  0.74509800  0.59890300  0.59015800  1
  H  1744  1  0.77390800  0.48799100  0.63056400  1
  H  1751  1  0.69630900  0.50492700  0.11948400  1
  H  1753  1  0.65013900  0.41868500  0.10540500  1
  H  1755  1  0.61372700  0.42807000  0.12107800  1
  H  1756  1  0.73187100  0.49640500  0.10430800  1
  H  1758  1  0.68763500  0.40827900  0.09015800  1
  H  1760  1  0.65883000  0.51918900  0.13056400  1
  H  1767  1  0.72019100  0.52158800  0.86960700  1
  H  1769  1  0.63331300  0.56735100  0.85541200  1
  H  1771  1  0.64273300  0.60359800  0.87108900  1
  H  1772  1  0.71136000  0.48600600  0.85432600  1
  H  1774  1  0.62289300  0.53001900  0.84016500  1
  H  1776  1  0.73384800  0.55870900  0.88178300  1
  H  1783  1  0.71255100  0.48561100  0.36960700  1
  H  1785  1  0.79942000  0.43982200  0.35541400  1
  H  1787  1  0.78999800  0.40358000  0.37109000  1
  H  1788  1  0.72137100  0.52117900  0.35432600  1
  H  1790  1  0.80981100  0.47714200  0.34016500  1
  H  1792  1  0.69884000  0.44851200  0.38178700  1
  H  1799  1  0.20034600  0.50518500  0.35588000  1
  H  1801  1  0.15449500  0.41877800  0.37003700  1
  H  1803  1  0.11808800  0.42810200  0.35439200  1
  H  1804  1  0.23614300  0.49643900  0.37113400  1
  H  1806  1  0.19195000  0.40834100  0.38528900  1
  H  1808  1  0.16374300  0.51895300  0.34367000  1
  H  1815  1  0.23238900  0.50199900  0.85588000  1
  H  1817  1  0.27824000  0.58840600  0.87003700  1
  H  1819  1  0.31464500  0.57908300  0.85439300  1
  H  1820  1  0.19659100  0.51074600  0.87113300  1
  H  1822  1  0.24078400  0.59884400  0.88528900  1
  H  1824  1  0.26899100  0.48823700  0.84367000  1
  H  1831  1  0.21259000  0.48548600  0.10588300  1
  H  1833  1  0.29937300  0.43983300  0.12003500  1
  H  1835  1  0.29001100  0.40358700  0.10439200  1
  H  1836  1  0.22138500  0.52113200  0.12113600  1
  H  1838  1  0.30986400  0.47713200  0.13528600  1
  H  1840  1  0.19886200  0.44903600  0.09365600  1
  H  1847  1  0.22013200  0.52169400  0.60588100  1
  H  1849  1  0.13335400  0.56735300  0.62003700  1
  H  1851  1  0.14271800  0.60360200  0.60439200  1
  H  1852  1  0.21134900  0.48605700  0.62113600  1
  H  1854  1  0.12286600  0.53005900  0.63529200  1
  H  1856  1  0.23394200  0.55814200  0.59367200  1
  C  1  1  0.12434000  0.09153200  0.05230200  1
  C  2  1  0.13170200  0.07331200  0.04092300  1
  C  3  1  0.11141600  0.06353300  0.03118500  1
  C  4  1  0.08339000  0.07376800  0.03242800  1
  C  5  1  0.07447400  0.09262400  0.04322900  1
  C  6  1  0.09530500  0.10118300  0.05349500  1
  C  9  1  0.14722700  0.10027100  0.06156300  1
  C  10  1  0.16726000  0.08150400  0.06832800  1
  C  11  1  0.19037500  0.09242900  0.07666700  1
  C  12  1  0.19213600  0.12209000  0.07841300  1
  C  13  1  0.17240800  0.14007200  0.07180100  1
  C  14  1  0.15086600  0.12966400  0.06329300  1
  C  27  1  0.30839200  0.91565800  0.55230400  1
  C  28  1  0.30103300  0.93386000  0.54091800  1
  C  29  1  0.32132700  0.94366300  0.53118900  1
  C  30  1  0.34935100  0.93341600  0.53243300  1
  C  31  1  0.35824200  0.91452500  0.54322600  1
  C  32  1  0.33742200  0.90599700  0.55349800  1
  C  35  1  0.28549900  0.90690900  0.56155800  1
  C  36  1  0.26547700  0.92568000  0.56832900  1
  C  37  1  0.24236300  0.91475900  0.57666800  1
  C  38  1  0.24059600  0.88510300  0.57842500  1
  C  39  1  0.26031700  0.86711800  0.57182300  1
  C  40  1  0.28186800  0.87751500  0.56330900  1
  C  53  1  0.12814300  0.91189500  0.30229600  1
  C  54  1  0.14637700  0.91927700  0.29090700  1
  C  55  1  0.15616000  0.89907900  0.28116500  1
  C  56  1  0.14589400  0.87117000  0.28241700  1
  C  57  1  0.12699100  0.86231100  0.29323000  1
  C  58  1  0.11837700  0.88301800  0.30349700  1
  C  61  1  0.11930700  0.93467200  0.31151600  1
  C  62  1  0.13811700  0.95464100  0.31830500  1
  C  63  1  0.12705600  0.97759500  0.32664400  1
  C  64  1  0.09728100  0.97928800  0.32835200  1
  C  65  1  0.07921800  0.95954800  0.32229600  1
  C  66  1  0.08972300  0.93828500  0.31321800  1
  C  79  1  0.30469100  0.09522200  0.80230100  1
  C  80  1  0.28639100  0.08789400  0.79092300  1
  C  81  1  0.27655200  0.10809300  0.78118600  1
  C  82  1  0.28684100  0.13599900  0.78242200  1
  C  83  1  0.30574400  0.14485600  0.79323700  1
  C  84  1  0.31438500  0.12413300  0.80349800  1
  C  87  1  0.31346300  0.07243500  0.81156200  1
  C  88  1  0.29461100  0.05248800  0.81832900  1
  C  89  1  0.30560100  0.02949700  0.82667300  1
  C  90  1  0.33541200  0.02779700  0.82839100  1
  C  91  1  0.35345700  0.04823100  0.82210600  1
  C  92  1  0.34298500  0.06890300  0.81328500  1
  C  105  1  0.30868400  0.09165600  0.42302700  1
  C  106  1  0.30104800  0.07383000  0.43443600  1
  C  107  1  0.32087700  0.06453400  0.44441300  1
  C  108  1  0.34931700  0.07381300  0.44306900  1
  C  109  1  0.35842300  0.09251200  0.43219700  1
  C  110  1  0.33767500  0.10125500  0.42192700  1
  C  113  1  0.28595900  0.10038800  0.41376100  1
  C  114  1  0.26575000  0.08152200  0.40717700  1
  C  115  1  0.24238800  0.09299700  0.39916200  1
  C  116  1  0.24135500  0.12240100  0.39692200  1
  C  117  1  0.26082400  0.14030500  0.40359600  1
  C  118  1  0.28216900  0.12984000  0.41219000  1
  C  131  1  0.12404700  0.91553700  0.92302200  1
  C  132  1  0.13167300  0.93334400  0.93443900  1
  C  133  1  0.11185300  0.94267200  0.94441800  1
  C  134  1  0.08341700  0.93337200  0.94306200  1
  C  135  1  0.07433000  0.91464000  0.93219800  1
  C  136  1  0.09506500  0.90592500  0.92192300  1
  C  139  1  0.14678700  0.90679500  0.91376800  1
  C  140  1  0.16698800  0.92566500  0.90717600  1
  C  141  1  0.19037300  0.91417700  0.89917500  1
  C  142  1  0.19135900  0.88478500  0.89690900  1
  C  143  1  0.17188300  0.86688500  0.90357200  1
  C  144  1  0.15055100  0.87734500  0.91217700  1
  C  157  1  0.30480200  0.91167000  0.17302800  1
  C  158  1  0.28692000  0.91926700  0.18445100  1
  C  159  1  0.27753900  0.89951400  0.19442200  1
  C  160  1  0.28690300  0.87121400  0.19307800  1
  C  161  1  0.30565600  0.86217100  0.18219500  1
  C  162  1  0.31446400  0.88281200  0.17192700  1
  C  165  1  0.31357800  0.93431200  0.16376900  1
  C  166  1  0.29462800  0.95441600  0.15717000  1
  C  167  1  0.30617600  0.97775400  0.14921100  1
  C  168  1  0.33568900  0.97869400  0.14690300  1
  C  169  1  0.35366700  0.95930600  0.15357500  1
  C  170  1  0.34315900  0.93805800  0.16217300  1
  C  183  1  0.12791800  0.09551400  0.67302500  1
  C  184  1  0.14582400  0.08791500  0.68443500  1
  C  185  1  0.15516100  0.10764500  0.69442000  1
  C  186  1  0.14584500  0.13596600  0.69307700  1
  C  187  1  0.12710400  0.14501900  0.68218900  1
  C  188  1  0.11827600  0.12437900  0.67192400  1
  C  191  1  0.11915200  0.07287600  0.66376200  1
  C  192  1  0.13810400  0.05275600  0.65717700  1
  C  193  1  0.12656500  0.02947100  0.64917900  1
  C  194  1  0.09704000  0.02846500  0.64692300  1
  C  195  1  0.07906300  0.04785300  0.65359700  1
  C  196  1  0.08957300  0.06911500  0.66218500  1
  C  209  1  0.80401500  0.91593600  0.92303500  1
  C  210  1  0.79660100  0.93403200  0.93448200  1
  C  211  1  0.81690100  0.94412500  0.94413000  1
  C  212  1  0.84492100  0.93411600  0.94278700  1
  C  213  1  0.85355600  0.91466300  0.93224400  1
  C  214  1  0.83296600  0.90602300  0.92188900  1
  C  217  1  0.78109000  0.90693900  0.91389500  1
  C  218  1  0.76108800  0.92569700  0.90713200  1
  C  219  1  0.73799600  0.91474600  0.89880100  1
  C  220  1  0.73622400  0.88509100  0.89704800  1
  C  221  1  0.75549700  0.86708600  0.90384500  1
  C  222  1  0.77747900  0.87752800  0.91217400  1
  C  235  1  0.62871600  0.09124400  0.42303400  1
  C  236  1  0.63613400  0.07316600  0.43448700  1
  C  237  1  0.61583000  0.06304900  0.44412800  1
  C  238  1  0.58781900  0.07308800  0.44279300  1
  C  239  1  0.57916400  0.09248600  0.43222800  1
  C  240  1  0.59977100  0.10117100  0.42189100  1
  C  243  1  0.65164700  0.10024900  0.41390000  1
  C  244  1  0.67163900  0.08148700  0.40713100  1
  C  245  1  0.69473000  0.09243700  0.39880200  1
  C  246  1  0.69647900  0.12209300  0.39704500  1
  C  247  1  0.67675900  0.14007100  0.40364600  1
  C  248  1  0.65522700  0.12966100  0.41217000  1
  C  261  1  0.80485900  0.09507700  0.67312400  1
  C  262  1  0.78645700  0.08786000  0.68451500  1
  C  263  1  0.77660900  0.10806100  0.69427400  1
  C  264  1  0.78685800  0.13597600  0.69304000  1
  C  265  1  0.80575400  0.14482000  0.68222200  1
  C  266  1  0.81441900  0.12406000  0.67196400  1
  C  269  1  0.81396300  0.07217200  0.66383100  1
  C  270  1  0.79504500  0.05238400  0.65709100  1
  C  271  1  0.80637800  0.02955900  0.64876500  1
  C  272  1  0.83642000  0.02786700  0.64703900  1
  C  273  1  0.85573400  0.04698800  0.65334800  1
  C  274  1  0.84365300  0.06839500  0.66190900  1
  C  287  1  0.62786500  0.91210900  0.17312900  1
  C  288  1  0.64627800  0.91932400  0.18451500  1
  C  289  1  0.65616000  0.89912200  0.19426400  1
  C  290  1  0.64588200  0.87121200  0.19304000  1
  C  291  1  0.62698600  0.86236600  0.18222300  1
  C  292  1  0.61831800  0.88312200  0.17196400  1
  C  295  1  0.61877000  0.93500500  0.16382900  1
  C  296  1  0.63769000  0.95479600  0.15709500  1
  C  297  1  0.62635900  0.97761400  0.14876900  1
  C  298  1  0.59631600  0.97932000  0.14703700  1
  C  299  1  0.57700200  0.96019900  0.15334700  1
  C  300  1  0.58908000  0.93879000  0.16190900  1
  C  313  1  0.62840700  0.91584500  0.55258800  1
  C  314  1  0.63610700  0.93350500  0.54110500  1
  C  315  1  0.61627700  0.94310700  0.53121200  1
  C  316  1  0.58782900  0.93411400  0.53266000  1
  C  317  1  0.57901100  0.91478000  0.54327000  1
  C  318  1  0.59951100  0.90596300  0.55363400  1
  C  321  1  0.65117900  0.90683100  0.56170600  1
  C  322  1  0.67144300  0.92563700  0.56822200  1
  C  323  1  0.69502200  0.91380800  0.57592500  1
  C  324  1  0.69580800  0.88455000  0.57841900  1
  C  325  1  0.67616200  0.86679300  0.57184800  1
  C  326  1  0.65488200  0.87734900  0.56325200  1
  C  339  1  0.80432800  0.09133100  0.05259400  1
  C  340  1  0.79663700  0.07368700  0.04110200  1
  C  341  1  0.81645400  0.06405700  0.03120400  1
  C  342  1  0.84489300  0.07309200  0.03265900  1
  C  343  1  0.85373300  0.09236900  0.04329000  1
  C  344  1  0.83321500  0.10123400  0.05363200  1
  C  347  1  0.78154000  0.10035300  0.06170100  1
  C  348  1  0.76127500  0.08154900  0.06822500  1
  C  349  1  0.73767500  0.09339700  0.07591400  1
  C  350  1  0.73692000  0.12263700  0.07843400  1
  C  351  1  0.75632200  0.14034900  0.07199300  1
  C  352  1  0.77784500  0.12983800  0.06326600  1
  C  365  1  0.62769900  0.09542300  0.80246000  1
  C  366  1  0.64574600  0.08791500  0.79105600  1
  C  367  1  0.65520500  0.10767600  0.78108900  1
  C  368  1  0.64582600  0.13596900  0.78241100  1
  C  369  1  0.62708400  0.14500800  0.79329700  1
  C  370  1  0.61822900  0.12434500  0.80355600  1
  C  373  1  0.61848000  0.07272300  0.81170700  1
  C  374  1  0.63752600  0.05279200  0.81816700  1
  C  375  1  0.62557300  0.02971500  0.82600500  1
  C  376  1  0.59583000  0.02852400  0.82844400  1
  C  377  1  0.57659700  0.04756700  0.82220300  1
  C  378  1  0.58873900  0.06877800  0.81352700  1
  C  391  1  0.80504000  0.91176300  0.30246100  1
  C  392  1  0.78698100  0.91928300  0.29106600  1
  C  393  1  0.77758500  0.89955600  0.28107400  1
  C  394  1  0.78689600  0.87123600  0.28240700  1
  C  395  1  0.80563000  0.86218100  0.29329500  1
  C  396  1  0.81450000  0.88283800  0.30355500  1
  C  399  1  0.81425300  0.93445600  0.31171200  1
  C  400  1  0.79520700  0.95439700  0.31816400  1
  C  401  1  0.80715400  0.97744800  0.32602100  1
  C  402  1  0.83690500  0.97867000  0.32843700  1
  C  403  1  0.85614100  0.95961800  0.32220300  1
  C  404  1  0.84399600  0.93840600  0.31352800  1
  C  417  1  0.62882200  0.59386100  0.55234400  1
  C  418  1  0.63606600  0.57552700  0.54095600  1
  C  419  1  0.61578300  0.56570100  0.53119800  1
  C  420  1  0.58775300  0.57593200  0.53243900  1
  C  421  1  0.57884700  0.59478300  0.54324300  1
  C  422  1  0.59971200  0.60336900  0.55350500  1
  C  425  1  0.65181100  0.60292500  0.56164500  1
  C  426  1  0.67169000  0.58409100  0.56838100  1
  C  427  1  0.69462600  0.59536200  0.57669800  1
  C  428  1  0.69630900  0.62527900  0.57843600  1
  C  429  1  0.67711200  0.64451400  0.57212700  1
  C  430  1  0.65561700  0.63248700  0.56356200  1
  C  443  1  0.80391100  0.41332800  0.05234600  1
  C  444  1  0.79666700  0.43164400  0.04095200  1
  C  445  1  0.81695900  0.44149400  0.03120200  1
  C  446  1  0.84498700  0.43125000  0.03244300  1
  C  447  1  0.85386900  0.41236700  0.04324000  1
  C  448  1  0.83301500  0.40381100  0.05350800  1
  C  451  1  0.78091300  0.40425700  0.06164100  1
  C  452  1  0.76104300  0.42309300  0.06838100  1
  C  453  1  0.73810900  0.41182200  0.07669900  1
  C  454  1  0.73642000  0.38190600  0.07843400  1
  C  455  1  0.75562300  0.36267100  0.07212800  1
  C  456  1  0.77711600  0.37469500  0.06356200  1
  C  469  1  0.62843400  0.41409400  0.80243500  1
  C  470  1  0.64653200  0.42153400  0.79097500  1
  C  471  1  0.65663500  0.40131900  0.78132600  1
  C  472  1  0.64659600  0.37341800  0.78268000  1
  C  473  1  0.62704900  0.36482800  0.79322000  1
  C  474  1  0.61840600  0.38530200  0.80358700  1
  C  477  1  0.61934100  0.43691200  0.81152800  1
  C  478  1  0.63813500  0.45685700  0.81831600  1
  C  479  1  0.62704700  0.47979000  0.82664700  1
  C  480  1  0.59726400  0.48145700  0.82833300  1
  C  481  1  0.57919600  0.46199100  0.82174100  1
  C  482  1  0.58973800  0.44045200  0.81316900  1
  C  495  1  0.80440300  0.59302300  0.30243800  1
  C  496  1  0.78623300  0.58563800  0.29099100  1
  C  497  1  0.77607200  0.60585500  0.28135000  1
  C  498  1  0.78614600  0.63374700  0.28268400  1
  C  499  1  0.80568800  0.64233700  0.29322500  1
  C  500  1  0.81435700  0.62184800  0.30358800  1
  C  503  1  0.81343500  0.57019400  0.31157800  1
  C  504  1  0.79459400  0.55027600  0.31834200  1
  C  505  1  0.80560500  0.52730500  0.32667900  1
  C  506  1  0.83540500  0.52557200  0.32840300  1
  C  507  1  0.85346200  0.54533500  0.32174900  1
  C  508  1  0.84297600  0.56667000  0.31328300  1
  C  521  1  0.80415000  0.59384400  0.92312900  1
  C  522  1  0.79668600  0.57576300  0.93456400  1
  C  523  1  0.81642800  0.56586000  0.94454600  1
  C  524  1  0.84477200  0.57565500  0.94316400  1
  C  525  1  0.85389900  0.59449100  0.93229900  1
  C  526  1  0.83320000  0.60330900  0.92200400  1
  C  529  1  0.78136700  0.60297600  0.91377300  1
  C  530  1  0.76125800  0.58412300  0.90722400  1
  C  531  1  0.73786000  0.59626800  0.89950300  1
  C  532  1  0.73708400  0.62580300  0.89708100  1
  C  533  1  0.75626800  0.64481700  0.90330100  1
  C  534  1  0.77750000  0.63262700  0.91196000  1
  C  547  1  0.62858400  0.41334900  0.42312200  1
  C  548  1  0.63603800  0.43141100  0.43456900  1
  C  549  1  0.61629600  0.44136300  0.44454200  1
  C  550  1  0.58795900  0.43152800  0.44315800  1
  C  551  1  0.57885300  0.41266200  0.43229900  1
  C  552  1  0.59953900  0.40387100  0.42200000  1
  C  555  1  0.65138300  0.40421000  0.41377600  1
  C  556  1  0.67149400  0.42305700  0.40722000  1
  C  557  1  0.69491100  0.41089300  0.39951100  1
  C  558  1  0.69565100  0.38136500  0.39708300  1
  C  559  1  0.67645800  0.36236300  0.40330300  1
  C  560  1  0.65523300  0.37455900  0.41196200  1
  C  573  1  0.80455600  0.41380800  0.67292100  1
  C  574  1  0.78678100  0.42149800  0.68439300  1
  C  575  1  0.77706700  0.40174900  0.69427200  1
  C  576  1  0.78615200  0.37344500  0.69281900  1
  C  577  1  0.80557100  0.36466700  0.68221100  1
  C  578  1  0.81443600  0.38505200  0.67184600  1
  C  581  1  0.81372900  0.43643500  0.66383900  1
  C  582  1  0.79477300  0.45650700  0.65736400  1
  C  583  1  0.80641200  0.47974300  0.64951900  1
  C  584  1  0.83587600  0.48094800  0.64701100  1
  C  585  1  0.85382700  0.46145000  0.65360700  1
  C  586  1  0.84331600  0.44018500  0.66222600  1
  C  599  1  0.62816200  0.59337500  0.17291800  1
  C  600  1  0.64596500  0.58568500  0.18437500  1
  C  601  1  0.65563400  0.60540700  0.19426800  1
  C  602  1  0.64658100  0.63373000  0.19281900  1
  C  603  1  0.62716700  0.64251700  0.18220900  1
  C  604  1  0.61829500  0.62213700  0.17184300  1
  C  607  1  0.61900200  0.57075400  0.16383100  1
  C  608  1  0.63795800  0.55067100  0.15736700  1
  C  609  1  0.62632700  0.52746200  0.14950100  1
  C  610  1  0.59685500  0.52622100  0.14701900  1
  C  611  1  0.57890400  0.54574000  0.15361300  1
  C  612  1  0.58941700  0.56699700  0.16222600  1
  C  625  1  0.30819800  0.41360600  0.42299500  1
  C  626  1  0.30090100  0.43181400  0.43444900  1
  C  627  1  0.32119900  0.44195400  0.44411600  1
  C  628  1  0.34922300  0.43195000  0.44277600  1
  C  629  1  0.35785200  0.41250300  0.43223000  1
  C  630  1  0.33722600  0.40383500  0.42188100  1
  C  633  1  0.28517100  0.40428700  0.41381200  1
  C  634  1  0.26532000  0.42311000  0.40707700  1
  C  635  1  0.24240300  0.41182200  0.39876400  1
  C  636  1  0.24073900  0.38190100  0.39703200  1
  C  637  1  0.25994000  0.36266900  0.40334400  1
  C  638  1  0.28141900  0.37470600  0.41191400  1
  C  651  1  0.12453500  0.59357600  0.92299300  1
  C  652  1  0.13183400  0.57538300  0.93445400  1
  C  653  1  0.11153200  0.56521900  0.94411500  1
  C  654  1  0.08351700  0.57525400  0.94278100  1
  C  655  1  0.07487000  0.59464800  0.93221300  1
  C  656  1  0.09551300  0.60336000  0.92188300  1
  C  659  1  0.14756900  0.60289800  0.91381600  1
  C  660  1  0.16741400  0.58407400  0.90707800  1
  C  661  1  0.19033100  0.59536200  0.89876300  1
  C  662  1  0.19199700  0.62528300  0.89703400  1
  C  663  1  0.17279300  0.64451600  0.90334400  1
  C  664  1  0.15131500  0.63248100  0.91191500  1
  C  677  1  0.30457200  0.59287400  0.17298900  1
  C  678  1  0.28630200  0.58560400  0.18444800  1
  C  679  1  0.27613300  0.60582100  0.19411400  1
  C  680  1  0.28615500  0.63372600  0.19277400  1
  C  681  1  0.30569700  0.64230100  0.18223300  1
  C  682  1  0.31439200  0.62177400  0.17187600  1
  C  685  1  0.31393400  0.56993500  0.16381400  1
  C  686  1  0.29502900  0.55017200  0.15707600  1
  C  687  1  0.30638100  0.52736700  0.14875600  1
  C  688  1  0.33642700  0.52569500  0.14703400  1
  C  689  1  0.35573800  0.54481800  0.15334600  1
  C  690  1  0.34364500  0.56620800  0.16191200  1
  C  703  1  0.12815300  0.41431200  0.67299400  1
  C  704  1  0.14643600  0.42158000  0.68444700  1
  C  705  1  0.15664000  0.40136100  0.69410100  1
  C  706  1  0.14657700  0.37346200  0.69277700  1
  C  707  1  0.12703900  0.36488300  0.68223300  1
  C  708  1  0.11834300  0.38540800  0.67187600  1
  C  711  1  0.11879900  0.43724300  0.66381200  1
  C  712  1  0.13770900  0.45700800  0.65707900  1
  C  713  1  0.12635800  0.47980700  0.64875900  1
  C  714  1  0.09631200  0.48148900  0.64703200  1
  C  715  1  0.07699800  0.46236700  0.65334500  1
  C  716  1  0.08908800  0.44097600  0.66191200  1
  C  729  1  0.12431300  0.41359700  0.05247700  1
  C  730  1  0.13181600  0.43156600  0.04097900  1
  C  731  1  0.11206600  0.44179300  0.03108700  1
  C  732  1  0.08372200  0.43223600  0.03256100  1
  C  733  1  0.07487100  0.41279300  0.04317200  1
  C  734  1  0.09533200  0.40390100  0.05355800  1
  C  737  1  0.14712800  0.40422700  0.06173900  1
  C  738  1  0.16712200  0.42311600  0.06835500  1
  C  739  1  0.19028700  0.41127900  0.07635300  1
  C  740  1  0.19125500  0.38159800  0.07853700  1
  C  741  1  0.17222900  0.36244200  0.07221600  1
  C  742  1  0.15098600  0.37457000  0.06353900  1
  C  755  1  0.30841600  0.59358500  0.55247900  1
  C  756  1  0.30092600  0.57562900  0.54097300  1
  C  757  1  0.32067700  0.56535900  0.53108800  1
  C  758  1  0.34901000  0.57497400  0.53256600  1
  C  759  1  0.35787500  0.59434400  0.54321200  1
  C  760  1  0.33738500  0.60329000  0.55356400  1
  C  763  1  0.28559000  0.60295700  0.56173300  1
  C  764  1  0.26560300  0.58406400  0.56835500  1
  C  765  1  0.24241800  0.59591600  0.57634100  1
  C  766  1  0.24148000  0.62559100  0.57853600  1
  C  767  1  0.26050700  0.64474300  0.57221500  1
  C  768  1  0.28174500  0.63261500  0.56353800  1
  C  781  1  0.12804400  0.59315800  0.30262700  1
  C  782  1  0.14589300  0.58562700  0.29112700  1
  C  783  1  0.15563600  0.60539000  0.28122900  1
  C  784  1  0.14656700  0.63370300  0.28267200  1
  C  785  1  0.12715200  0.64245800  0.29328200  1
  C  786  1  0.11827700  0.62201400  0.30364400  1
  C  789  1  0.11869200  0.57037000  0.31180600  1
  C  790  1  0.13770900  0.55045600  0.31838600  1
  C  791  1  0.12579600  0.52731600  0.32631700  1
  C  792  1  0.09599800  0.52642500  0.32854800  1
  C  793  1  0.07675100  0.54535600  0.32222400  1
  C  794  1  0.08891500  0.56651800  0.31355900  1
  C  807  1  0.30470400  0.41402600  0.80262900  1
  C  808  1  0.28682800  0.42155700  0.79114400  1
  C  809  1  0.27713000  0.40181700  0.78123300  1
  C  810  1  0.28616800  0.37349000  0.78267200  1
  C  811  1  0.30557800  0.36472400  0.79328300  1
  C  812  1  0.31446000  0.38516600  0.80364600  1
  C  815  1  0.31404500  0.43681000  0.81181300  1
  C  816  1  0.29502700  0.45673400  0.81838100  1
  C  817  1  0.30693100  0.47983200  0.82634500  1
  C  818  1  0.33673600  0.48077000  0.82854200  1
  C  819  1  0.35598800  0.46183200  0.82222400  1
  C  820  1  0.34382000  0.44066700  0.81356100  1
  C  833  1  0.14925900  0.26500100  0.06234700  1
  C  834  1  0.15066100  0.23510600  0.06308900  1
  C  835  1  0.16980000  0.22270200  0.07275300  1
  C  836  1  0.18698800  0.24118600  0.08115500  1
  C  837  1  0.18559800  0.27087500  0.08039200  1
  C  838  1  0.16633800  0.28336200  0.07077700  1
  C  845  1  0.16281100  0.31263500  0.06884100  1
  C  847  1  0.17480400  0.19371100  0.07467100  1
  C  849  1  0.28348100  0.74218400  0.56235000  1
  C  850  1  0.28209800  0.77207800  0.56310200  1
  C  851  1  0.26293400  0.78448500  0.57275600  1
  C  852  1  0.24576700  0.76599600  0.58116600  1
  C  853  1  0.24714200  0.73630900  0.58039400  1
  C  854  1  0.26640000  0.72382300  0.57078000  1
  C  861  1  0.26993000  0.69454700  0.56884500  1
  C  863  1  0.25788000  0.81347400  0.57466200  1
  C  865  1  0.95395000  0.93666200  0.31230400  1
  C  866  1  0.98407300  0.93819800  0.31308000  1
  C  867  1  0.99654700  0.95783800  0.32265600  1
  C  868  1  0.97765500  0.97423000  0.33110600  1
  C  869  1  0.94788900  0.97280300  0.33034100  1
  C  870  1  0.93543900  0.95363800  0.32072300  1
  C  877  1  0.90605000  0.95020300  0.31882300  1
  C  879  1  0.02574200  0.96256200  0.32599700  1
  C  881  1  0.47889200  0.07041200  0.81234200  1
  C  882  1  0.44887800  0.06900200  0.81308800  1
  C  883  1  0.43643700  0.04978300  0.82271200  1
  C  884  1  0.45498800  0.03283200  0.83116000  1
  C  885  1  0.48480000  0.03422400  0.83039100  1
  C  886  1  0.49731700  0.05341500  0.82077700  1
  C  893  1  0.52668500  0.05695300  0.81884200  1
  C  895  1  0.40716100  0.04653100  0.82502700  1
  C  897  1  0.28347300  0.26503700  0.41312200  1
  C  898  1  0.28207100  0.23513800  0.41238900  1
  C  899  1  0.26289100  0.22276100  0.40274000  1
  C  900  1  0.24573100  0.24122200  0.39432100  1
  C  901  1  0.24713700  0.27090500  0.39508000  1
  C  902  1  0.26641500  0.28341700  0.40468000  1
  C  909  1  0.26989800  0.31273700  0.40660800  1
  C  911  1  0.25793300  0.19381400  0.40077200  1
  C  913  1  0.14925500  0.74214700  0.91311900  1
  C  914  1  0.15063700  0.77204700  0.91237400  1
  C  915  1  0.16983100  0.78442100  0.90273100  1
  C  916  1  0.18697900  0.76596000  0.89430700  1
  C  917  1  0.18559100  0.73628000  0.89507700  1
  C  918  1  0.16631600  0.72376500  0.90467800  1
  C  925  1  0.16282800  0.69444500  0.90660400  1
  C  927  1  0.17484300  0.81336800  0.90079400  1
  C  929  1  0.47894500  0.93677000  0.16311900  1
  C  930  1  0.44891400  0.93814500  0.16237500  1
  C  931  1  0.43648400  0.95726300  0.15273500  1
  C  932  1  0.45502900  0.97433000  0.14430900  1
  C  933  1  0.48483800  0.97294900  0.14507800  1
  C  934  1  0.49740600  0.95375600  0.15467900  1
  C  941  1  0.52685400  0.95028200  0.15660200  1
  C  943  1  0.40741600  0.96226100  0.15078500  1
  C  945  1  0.95378600  0.07040700  0.66312200  1
  C  946  1  0.98381700  0.06901000  0.66239000  1
  C  947  1  0.99624700  0.04991400  0.65274100  1
  C  948  1  0.97770600  0.03282800  0.64432100  1
  C  949  1  0.94789500  0.03422800  0.64508000  1
  C  950  1  0.93532900  0.05342200  0.65468000  1
  C  957  1  0.90587900  0.05690100  0.65660400  1
  C  959  1  0.02532100  0.04497900  0.65077200  1
  C  961  1  0.77914000  0.74218400  0.91312600  1
  C  962  1  0.77773600  0.77207800  0.91238400  1
  C  963  1  0.75859300  0.78448500  0.90271400  1
  C  964  1  0.74141000  0.76599600  0.89431700  1
  C  965  1  0.74280100  0.73630700  0.89508100  1
  C  966  1  0.76206400  0.72382300  0.90469600  1
  C  973  1  0.76560900  0.69456000  0.90663500  1
  C  975  1  0.75305300  0.81345200  0.90097800  1
  C  977  1  0.65358600  0.26500100  0.41312300  1
  C  978  1  0.65496900  0.23510800  0.41237100  1
  C  979  1  0.67413600  0.22270200  0.40271900  1
  C  980  1  0.69130000  0.24119000  0.39430700  1
  C  981  1  0.68992600  0.27087700  0.39507900  1
  C  982  1  0.67066500  0.28336000  0.40469400  1
  C  989  1  0.66711500  0.31262400  0.40663200  1
  C  991  1  0.67918300  0.19371300  0.40080800  1
  C  993  1  0.65359300  0.74214700  0.56235200  1
  C  994  1  0.65499400  0.77204700  0.56308600  1
  C  995  1  0.67418300  0.78442100  0.57273300  1
  C  996  1  0.69133400  0.76596200  0.58115500  1
  C  997  1  0.68992800  0.73628000  0.58039400  1
  C  998  1  0.67065200  0.72376800  0.57079500  1
  C  1005  1  0.66716900  0.69444500  0.56886500  1
  C  1007  1  0.67913800  0.81335300  0.57471400  1
  C  1009  1  0.77914300  0.26503700  0.06235400  1
  C  1010  1  0.77775800  0.23513600  0.06309400  1
  C  1011  1  0.75856700  0.22275500  0.07274200  1
  C  1012  1  0.74141600  0.24122000  0.08116000  1
  C  1013  1  0.74280700  0.27090300  0.08039500  1
  C  1014  1  0.76208300  0.28341700  0.07079500  1
  C  1021  1  0.76557300  0.31273900  0.06886900  1
  C  1023  1  0.75326600  0.19378600  0.07484500  1
  C  1025  1  0.45393200  0.43882100  0.81231000  1
  C  1026  1  0.48405000  0.44033200  0.81307200  1
  C  1027  1  0.49651200  0.45965800  0.82273000  1
  C  1028  1  0.47764700  0.47637700  0.83110000  1
  C  1029  1  0.44788100  0.47495900  0.83034300  1
  C  1030  1  0.43541000  0.45580500  0.82072300  1
  C  1037  1  0.40598900  0.45239000  0.81882700  1
  C  1039  1  0.52547700  0.46570200  0.82532200  1
  C  1041  1  0.97890800  0.56825300  0.31234600  1
  C  1042  1  0.94888600  0.56685900  0.31308700  1
  C  1043  1  0.93643200  0.54785800  0.32276900  1
  C  1044  1  0.95499000  0.53068700  0.33115600  1
  C  1045  1  0.98480800  0.53207000  0.33039100  1
  C  1046  1  0.99734600  0.55124800  0.32077800  1
  C  1053  1  0.02674500  0.55476700  0.31884600  1
  C  1055  1  0.90732400  0.54295900  0.32457200  1
  C  1057  1  0.97895300  0.43893100  0.66312300  1
  C  1058  1  0.94892600  0.44032500  0.66239000  1
  C  1059  1  0.93652200  0.45942900  0.65274000  1
  C  1060  1  0.95504300  0.47651700  0.64431700  1
  C  1061  1  0.98484800  0.47511200  0.64508000  1
  C  1062  1  0.99741000  0.45591800  0.65468000  1
  C  1069  1  0.02685500  0.45244500  0.65660600  1
  C  1071  1  0.90748200  0.46437600  0.65075300  1
  C  1073  1  0.45378200  0.56825300  0.16312400  1
  C  1074  1  0.48380700  0.56685700  0.16239000  1
  C  1075  1  0.49621100  0.54775400  0.15274000  1
  C  1076  1  0.47769000  0.53066800  0.14431800  1
  C  1077  1  0.44788500  0.53207000  0.14508000  1
  C  1078  1  0.43532500  0.55126700  0.15468000  1
  C  1085  1  0.40588000  0.55474600  0.15660400  1
  C  1087  1  0.52524900  0.54281900  0.15076000  1
  C  1089  1  0.97643000  0.10965400  0.02860700  1
  C  1090  1  0.94621200  0.10853800  0.02967300  1
  C  1091  1  0.93340300  0.09599000  0.04180600  1
  C  1092  1  0.95233100  0.08333900  0.05170000  1
  C  1093  1  0.98234700  0.08452000  0.05068800  1
  C  1094  1  0.99514300  0.09880100  0.03913600  1
  C  1101  1  0.02489500  0.10109200  0.03683100  1
  C  1103  1  0.90397500  0.09161900  0.04467500  1
  C  1105  1  0.45630300  0.89753300  0.52860800  1
  C  1106  1  0.48652300  0.89864600  0.52967500  1
  C  1107  1  0.49933000  0.91119200  0.54180900  1
  C  1108  1  0.48040000  0.92384700  0.55170000  1
  C  1109  1  0.45038400  0.92266700  0.55068900  1
  C  1110  1  0.43759000  0.90839000  0.53913400  1
  C  1117  1  0.40783800  0.90610100  0.53682800  1
  C  1119  1  0.52875800  0.91556000  0.54467900  1
  C  1121  1  0.10984800  0.76469200  0.27860800  1
  C  1122  1  0.11096900  0.73460200  0.27967400  1
  C  1123  1  0.12356900  0.72184500  0.29180800  1
  C  1124  1  0.13627700  0.74069600  0.30169900  1
  C  1125  1  0.13508900  0.77058300  0.30068800  1
  C  1126  1  0.12073900  0.78332600  0.28913600  1
  C  1133  1  0.11841800  0.81295000  0.28683200  1
  C  1135  1  0.12796200  0.69253800  0.29467800  1
  C  1137  1  0.32288400  0.24249300  0.77860800  1
  C  1138  1  0.32176400  0.27258300  0.77967300  1
  C  1139  1  0.30916300  0.28533900  0.79180700  1
  C  1140  1  0.29645400  0.26648800  0.80169900  1
  C  1141  1  0.29764300  0.23660100  0.80068700  1
  C  1142  1  0.31199700  0.22385800  0.78913700  1
  C  1149  1  0.31432800  0.19423100  0.78683500  1
  C  1151  1  0.30477200  0.31464600  0.79467800  1
  C  1153  1  0.45632400  0.10965500  0.44686800  1
  C  1154  1  0.48654000  0.10853700  0.44580000  1
  C  1155  1  0.49936700  0.09599000  0.43366800  1
  C  1156  1  0.48042600  0.08334000  0.42377500  1
  C  1157  1  0.45040800  0.08451900  0.42478600  1
  C  1158  1  0.43762400  0.09880900  0.43633800  1
  C  1165  1  0.40788900  0.10111300  0.43863900  1
  C  1167  1  0.52882000  0.09163000  0.43080300  1
  C  1169  1  0.97640900  0.89753100  0.94686900  1
  C  1170  1  0.94619300  0.89864600  0.94579900  1
  C  1171  1  0.93336600  0.91119200  0.93366700  1
  C  1172  1  0.95231000  0.92384500  0.92377500  1
  C  1173  1  0.98232600  0.92266700  0.92478600  1
  C  1174  1  0.99510900  0.90838200  0.93634000  1
  C  1181  1  0.02484400  0.90608000  0.93864200  1
  C  1183  1  0.90391500  0.91555600  0.93080200  1
  C  1185  1  0.32289300  0.76467300  0.19686800  1
  C  1186  1  0.32177000  0.73458200  0.19579900  1
  C  1187  1  0.30916800  0.72180900  0.18366800  1
  C  1188  1  0.29646300  0.74066900  0.17377500  1
  C  1189  1  0.29764700  0.77055700  0.17478500  1
  C  1190  1  0.31199700  0.78329000  0.18633700  1
  C  1197  1  0.31429400  0.81289900  0.18863800  1
  C  1199  1  0.30477600  0.69248100  0.18080300  1
  C  1201  1  0.10984800  0.24251200  0.69686900  1
  C  1202  1  0.11097200  0.27260000  0.69580000  1
  C  1203  1  0.12357200  0.28537300  0.68366800  1
  C  1204  1  0.13627700  0.26651100  0.67377600  1
  C  1205  1  0.13509100  0.23662300  0.67478700  1
  C  1206  1  0.12072900  0.22389000  0.68633700  1
  C  1213  1  0.11838500  0.19428200  0.68863600  1
  C  1215  1  0.12795900  0.31470300  0.68080300  1
  C  1217  1  0.82288600  0.24249000  0.69686600  1
  C  1218  1  0.82176500  0.27258100  0.69580000  1
  C  1219  1  0.80916500  0.28533500  0.68366600  1
  C  1220  1  0.79645600  0.26648600  0.67377400  1
  C  1221  1  0.79764500  0.23659900  0.67478600  1
  C  1222  1  0.81199400  0.22385400  0.68633600  1
  C  1229  1  0.81431200  0.19422400  0.68863800  1
  C  1231  1  0.80477000  0.31463600  0.68079600  1
  C  1233  1  0.60984900  0.76469400  0.19686600  1
  C  1234  1  0.61097000  0.73460400  0.19580000  1
  C  1235  1  0.62357000  0.72185000  0.18366600  1
  C  1236  1  0.63627900  0.74069600  0.17377400  1
  C  1237  1  0.63509000  0.77058500  0.17478600  1
  C  1238  1  0.62073600  0.78333000  0.18633600  1
  C  1245  1  0.61840800  0.81296000  0.18863600  1
  C  1247  1  0.62796300  0.69254900  0.18079600  1
  C  1249  1  0.60984500  0.24251200  0.77860500  1
  C  1250  1  0.61097000  0.27260000  0.77967500  1
  C  1251  1  0.62357000  0.28536900  0.79180600  1
  C  1252  1  0.63627500  0.26651100  0.80169800  1
  C  1253  1  0.63508800  0.23662100  0.80068700  1
  C  1254  1  0.62073000  0.22389000  0.78913600  1
  C  1261  1  0.61839700  0.19428100  0.78683800  1
  C  1263  1  0.62796100  0.31469300  0.79467000  1
  C  1265  1  0.82288600  0.76467300  0.27860500  1
  C  1266  1  0.82176100  0.73458500  0.27967400  1
  C  1267  1  0.80916300  0.72181400  0.29180500  1
  C  1268  1  0.79645600  0.74067300  0.30169800  1
  C  1269  1  0.79764300  0.77056200  0.30068800  1
  C  1270  1  0.81200500  0.78329400  0.28913700  1
  C  1277  1  0.81434900  0.81290500  0.28683900  1
  C  1279  1  0.80477400  0.69248700  0.29467000  1
  C  1281  1  0.48076900  0.61181600  0.52861100  1
  C  1282  1  0.45054800  0.61069800  0.52967200  1
  C  1283  1  0.43771100  0.59814600  0.54179600  1
  C  1284  1  0.45664400  0.58550400  0.55169800  1
  C  1285  1  0.48666800  0.58668400  0.55069200  1
  C  1286  1  0.49947700  0.60095900  0.53914100  1
  C  1293  1  0.52923600  0.60324600  0.53683500  1
  C  1295  1  0.40824500  0.59368700  0.54459600  1
  C  1297  1  0.95197500  0.39537700  0.02860900  1
  C  1298  1  0.98219800  0.39648800  0.02967700  1
  C  1299  1  0.99502800  0.40902600  0.04180900  1
  C  1300  1  0.97608300  0.42168200  0.05169900  1
  C  1301  1  0.94606100  0.42050700  0.05068800  1
  C  1302  1  0.93325800  0.40623400  0.03913500  1
  C  1309  1  0.90350000  0.40394500  0.03683000  1
  C  1311  1  0.02449200  0.41341500  0.04466600  1
  C  1313  1  0.95197700  0.61181200  0.94686500  1
  C  1314  1  0.98220000  0.61069600  0.94579900  1
  C  1315  1  0.99503200  0.59814600  0.93367000  1
  C  1316  1  0.97608900  0.58550000  0.92377600  1
  C  1317  1  0.94606500  0.58668000  0.92478600  1
  C  1318  1  0.93326200  0.60096900  0.93633500  1
  C  1325  1  0.90350000  0.60324100  0.93864700  1
  C  1327  1  0.02449300  0.59378000  0.93080600  1
  C  1329  1  0.48075400  0.39537200  0.44686400  1
  C  1330  1  0.45053100  0.39649000  0.44579800  1
  C  1331  1  0.43770100  0.40903400  0.43366700  1
  C  1332  1  0.45664600  0.42168400  0.42377500  1
  C  1333  1  0.48666800  0.42050500  0.42478600  1
  C  1334  1  0.49947100  0.40622100  0.43633600  1
  C  1341  1  0.52923300  0.40394900  0.43865000  1
  C  1343  1  0.40824100  0.41339800  0.43080200  1
  C  1345  1  0.11067900  0.01389400  0.97786500  1
  C  1346  1  0.11237600  0.02753500  0.99105000  1
  C  1347  1  0.13167000  0.01711300  0.00132700  1
  C  1348  1  0.14876400  0.99342100  0.99773700  1
  C  1349  1  0.14690800  0.97962700  0.98442100  1
  C  1350  1  0.12733600  0.99003900  0.97418100  1
  C  1357  1  0.12182300  0.97962100  0.96053600  1
  C  1359  1  0.13458000  0.02890500  0.01484900  1
  C  1361  1  0.32205400  0.99328900  0.47786400  1
  C  1362  1  0.32035800  0.97964600  0.49104900  1
  C  1363  1  0.30106500  0.99007100  0.50132600  1
  C  1364  1  0.28396700  0.01376000  0.49773600  1
  C  1365  1  0.28582500  0.02755500  0.48442000  1
  C  1366  1  0.30539900  0.01714600  0.47418000  1
  C  1373  1  0.31091300  0.02756700  0.46053400  1
  C  1375  1  0.29816900  0.97829500  0.51485200  1
  C  1377  1  0.20603300  0.89836000  0.22786300  1
  C  1378  1  0.19232700  0.90005300  0.24104700  1
  C  1379  1  0.20279600  0.91926000  0.25132500  1
  C  1380  1  0.22658800  0.93628500  0.24773600  1
  C  1381  1  0.24044500  0.93443300  0.23442000  1
  C  1382  1  0.22999000  0.91494300  0.22417900  1
  C  1389  1  0.24040500  0.90945900  0.21052400  1
  C  1391  1  0.19096800  0.92214500  0.26485100  1
  C  1393  1  0.22671300  0.10882500  0.72786500  1
  C  1394  1  0.24041500  0.10713400  0.74105000  1
  C  1395  1  0.22995000  0.08792100  0.75132500  1
  C  1396  1  0.20615200  0.07090300  0.74773700  1
  C  1397  1  0.19229800  0.07275200  0.73442100  1
  C  1398  1  0.20275400  0.09224100  0.72418100  1
  C  1405  1  0.19229100  0.09772900  0.71053500  1
  C  1407  1  0.24179400  0.08502600  0.76484700  1
  C  1409  1  0.81772600  0.99328900  0.99760700  1
  C  1410  1  0.81602100  0.97964200  0.98442500  1
  C  1411  1  0.79670300  0.99005000  0.97415500  1
  C  1412  1  0.77963300  0.01376000  0.97773900  1
  C  1413  1  0.78149300  0.02755900  0.99105100  1
  C  1414  1  0.80107300  0.01714900  0.00128500  1
  C  1421  1  0.80658100  0.02755900  0.01492500  1
  C  1423  1  0.79376500  0.97825500  0.96064000  1
  C  1425  1  0.61500900  0.01389600  0.49760800  1
  C  1426  1  0.61671400  0.02754200  0.48442700  1
  C  1427  1  0.63603000  0.01713300  0.47415600  1
  C  1428  1  0.65310500  0.99342500  0.47774000  1
  C  1429  1  0.65124000  0.97962500  0.49105200  1
  C  1430  1  0.63166000  0.99003500  0.50128600  1
  C  1437  1  0.62615000  0.97962100  0.51492700  1
  C  1439  1  0.63895300  0.02891300  0.46063700  1
  C  1441  1  0.72670800  0.10882000  0.74761200  1
  C  1442  1  0.74041300  0.10713700  0.73442600  1
  C  1443  1  0.72994500  0.08793000  0.72414500  1
  C  1444  1  0.70615500  0.07090200  0.72773200  1
  C  1445  1  0.69229900  0.07274000  0.74104700  1
  C  1446  1  0.70275600  0.09221600  0.75128900  1
  C  1453  1  0.69230600  0.09764500  0.76493900  1
  C  1455  1  0.74177400  0.08504300  0.71061800  1
  C  1457  1  0.70602000  0.89836000  0.24761000  1
  C  1458  1  0.69231800  0.90004900  0.23442500  1
  C  1459  1  0.70278400  0.91926200  0.22414700  1
  C  1460  1  0.72658100  0.93628000  0.22773700  1
  C  1461  1  0.74043600  0.93443300  0.24105300  1
  C  1462  1  0.72998100  0.91494300  0.25129400  1
  C  1469  1  0.74044900  0.90945300  0.26494100  1
  C  1471  1  0.69093600  0.92215600  0.21062400  1
  C  1473  1  0.61514400  0.51577100  0.47768800  1
  C  1474  1  0.61678000  0.52954800  0.49089900  1
  C  1475  1  0.63598700  0.51921900  0.50124600  1
  C  1476  1  0.65310500  0.49555400  0.49765700  1
  C  1477  1  0.65121900  0.48163100  0.48435600  1
  C  1478  1  0.63156600  0.49163400  0.47404200  1
  C  1485  1  0.62563700  0.48016300  0.46050700  1
  C  1487  1  0.63887900  0.53103900  0.51480100  1
  C  1489  1  0.81758700  0.49141100  0.97768700  1
  C  1490  1  0.81595100  0.47763700  0.99089800  1
  C  1491  1  0.79674600  0.48796600  0.00124500  1
  C  1492  1  0.77962600  0.51162800  0.99765600  1
  C  1493  1  0.78151200  0.52555100  0.98435400  1
  C  1494  1  0.80116700  0.51555100  0.97404100  1
  C  1501  1  0.80709800  0.52702100  0.96050600  1
  C  1503  1  0.79386900  0.47615800  0.01480300  1
  C  1505  1  0.70603100  0.40051300  0.72786500  1
  C  1506  1  0.69232100  0.40221200  0.74104700  1
  C  1507  1  0.70277300  0.42144500  0.75131700  1
  C  1508  1  0.72658500  0.43844600  0.74773400  1
  C  1509  1  0.74044700  0.43658900  0.73442200  1
  C  1510  1  0.72999400  0.41709100  0.72418700  1
  C  1517  1  0.74040000  0.41161000  0.71053800  1
  C  1519  1  0.69094200  0.42435700  0.76483700  1
  C  1521  1  0.72671500  0.60667200  0.22786700  1
  C  1522  1  0.74041900  0.60497500  0.24104900  1
  C  1523  1  0.72997000  0.58573800  0.25131700  1
  C  1524  1  0.70615500  0.56874100  0.24773500  1
  C  1525  1  0.69229500  0.57059500  0.23442200  1
  C  1526  1  0.70275000  0.59009100  0.22418800  1
  C  1533  1  0.69229500  0.59557700  0.21054800  1
  C  1535  1  0.74181900  0.58281400  0.26483400  1
  C  1537  1  0.32192600  0.49141100  0.49778400  1
  C  1538  1  0.32028300  0.47763200  0.48457600  1
  C  1539  1  0.30105200  0.48794200  0.47423700  1
  C  1540  1  0.28395600  0.51162600  0.47781800  1
  C  1541  1  0.28584800  0.52555500  0.49111600  1
  C  1542  1  0.30550700  0.51555300  0.50142500  1
  C  1549  1  0.31143200  0.52701500  0.51495300  1
  C  1551  1  0.29813300  0.47612000  0.46068800  1
  C  1553  1  0.11080900  0.51577300  0.99778500  1
  C  1554  1  0.11245300  0.52955400  0.98457700  1
  C  1555  1  0.13168300  0.51924000  0.97423800  1
  C  1556  1  0.14877900  0.49555800  0.97781900  1
  C  1557  1  0.14688800  0.48163100  0.99111800  1
  C  1558  1  0.12722800  0.49163200  0.00142600  1
  C  1565  1  0.12130000  0.48017000  0.01495500  1
  C  1567  1  0.13458800  0.53104800  0.96068500  1
  C  1569  1  0.22670300  0.60667200  0.24760900  1
  C  1570  1  0.24041300  0.60497200  0.23442700  1
  C  1571  1  0.22996200  0.58574200  0.22415500  1
  C  1572  1  0.20615000  0.56873900  0.22773900  1
  C  1573  1  0.19228700  0.57059500  0.24105100  1
  C  1574  1  0.20273600  0.59009300  0.25128700  1
  C  1581  1  0.19232400  0.59557700  0.26493800  1
  C  1583  1  0.24179600  0.58283100  0.21063400  1
  C  1585  1  0.20602000  0.40051300  0.74760700  1
  C  1586  1  0.19231400  0.40221000  0.73442600  1
  C  1587  1  0.20276200  0.42144500  0.72415500  1
  C  1588  1  0.22657900  0.43844100  0.72773900  1
  C  1589  1  0.24043900  0.43658700  0.74105100  1
  C  1590  1  0.22998800  0.41709100  0.75128600  1
  C  1597  1  0.24044700  0.41160300  0.76492800  1
  C  1599  1  0.19091100  0.42436600  0.71063800  1
  C  1601  1  0.26847700  0.06778900  0.10841900  1
  C  1602  1  0.28185300  0.05106600  0.11905200  1
  C  1603  1  0.26831300  0.02577900  0.12379400  1
  C  1604  1  0.24248800  0.01832600  0.11690400  1
  C  1605  1  0.22923000  0.03474200  0.10636400  1
  C  1606  1  0.24247800  0.05998600  0.10175800  1
  C  1613  1  0.23057400  0.07843500  0.09165800  1
  C  1615  1  0.27889400  0.00440300  0.13296000  1
  C  1617  1  0.16425700  0.93939500  0.60841900  1
  C  1618  1  0.15088100  0.95611800  0.61905200  1
  C  1619  1  0.16442200  0.98140300  0.62379500  1
  C  1620  1  0.19024600  0.98885700  0.61690500  1
  C  1621  1  0.20350400  0.97244200  0.60636300  1
  C  1622  1  0.19025600  0.94719700  0.60175800  1
  C  1629  1  0.20216100  0.92874900  0.59165800  1
  C  1631  1  0.15383800  0.00277300  0.63296300  1
  C  1633  1  0.15189900  0.05546500  0.35841700  1
  C  1634  1  0.16869500  0.06878500  0.36904800  1
  C  1635  1  0.19408700  0.05531000  0.37379200  1
  C  1636  1  0.20157600  0.02959100  0.36690100  1
  C  1637  1  0.18508000  0.01639000  0.35635900  1
  C  1638  1  0.15972100  0.02957400  0.35175000  1
  C  1645  1  0.14116400  0.01770300  0.34165000  1
  C  1647  1  0.21552300  0.06598500  0.38293600  1
  C  1649  1  0.28083900  0.95170700  0.85841800  1
  C  1650  1  0.26404400  0.93839100  0.86905000  1
  C  1651  1  0.23864900  0.95187300  0.87379400  1
  C  1652  1  0.23116400  0.97758600  0.86690200  1
  C  1653  1  0.24765100  0.99078600  0.85636000  1
  C  1654  1  0.27300300  0.97759100  0.85175300  1
  C  1661  1  0.29154100  0.98945100  0.84166100  1
  C  1663  1  0.21721100  0.94135900  0.88298600  1
  C  1665  1  0.65992700  0.93929700  0.86707900  1
  C  1666  1  0.64656200  0.95605000  0.85646200  1
  C  1667  1  0.66029800  0.98123500  0.85172300  1
  C  1668  1  0.68613300  0.98860700  0.85860600  1
  C  1669  1  0.69928500  0.97227600  0.86916500  1
  C  1670  1  0.68593100  0.94709300  0.87374700  1
  C  1677  1  0.69782200  0.92869400  0.88383600  1
  C  1679  1  0.64931900  0.00295100  0.84295800  1
  C  1681  1  0.77280600  0.06788700  0.36707900  1
  C  1682  1  0.78617400  0.05113500  0.35646200  1
  C  1683  1  0.77243800  0.02594900  0.35172300  1
  C  1684  1  0.74660000  0.01857700  0.35860700  1
  C  1685  1  0.73344800  0.03490800  0.36916500  1
  C  1686  1  0.74680200  0.06009100  0.37374800  1
  C  1693  1  0.73491100  0.07849100  0.38383700  1
  C  1695  1  0.78341400  0.00423500  0.34295500  1
  C  1697  1  0.78089800  0.95177100  0.61709500  1
  C  1698  1  0.76417300  0.93851600  0.60645500  1
  C  1699  1  0.73888500  0.95220400  0.60180500  1
  C  1700  1  0.73116100  0.97780100  0.60860900  1
  C  1701  1  0.74767600  0.99088100  0.61915400  1
  C  1702  1  0.77304500  0.97766700  0.62375900  1
  C  1709  1  0.79164900  0.98951700  0.63384700  1
  C  1711  1  0.71796200  0.94188100  0.59256200  1
  C  1713  1  0.65183500  0.05542000  0.11709400  1
  C  1714  1  0.66856200  0.06866900  0.10645000  1
  C  1715  1  0.69385200  0.05497000  0.10180100  1
  C  1716  1  0.70156900  0.02938100  0.10861000  1
  C  1717  1  0.68505700  0.01630800  0.11915700  1
  C  1718  1  0.65968800  0.02952400  0.12375900  1
  C  1725  1  0.64107700  0.01766700  0.13384200  1
  C  1727  1  0.71477500  0.06516100  0.09251700  1
  C  1729  1  0.77278700  0.57005000  0.60838200  1
  C  1730  1  0.78616300  0.55330800  0.61900200  1
  C  1731  1  0.77239900  0.52813700  0.62373100  1
  C  1732  1  0.74657200  0.52075700  0.61685300  1
  C  1733  1  0.73343100  0.53708900  0.60629200  1
  C  1734  1  0.74677000  0.56227500  0.60169900  1
  C  1741  1  0.73484500  0.58075700  0.59161600  1
  C  1743  1  0.78327400  0.50643700  0.63249300  1
  C  1745  1  0.65994600  0.43713200  0.10838200  1
  C  1746  1  0.64657000  0.45387500  0.11900200  1
  C  1747  1  0.66033400  0.47904500  0.12373100  1
  C  1748  1  0.68616100  0.48642600  0.11685200  1
  C  1749  1  0.69930300  0.47009500  0.10629300  1
  C  1750  1  0.68596300  0.44490700  0.10169900  1
  C  1757  1  0.69788800  0.42642800  0.09161600  1
  C  1759  1  0.64946100  0.50074300  0.13249600  1
  C  1761  1  0.65184100  0.55758400  0.85839000  1
  C  1762  1  0.66857300  0.57083500  0.86902900  1
  C  1763  1  0.69386900  0.55717300  0.87369900  1
  C  1764  1  0.70158900  0.53156900  0.86688300  1
  C  1765  1  0.68507600  0.51847600  0.85633500  1
  C  1766  1  0.65970300  0.53169200  0.85173700  1
  C  1773  1  0.64115200  0.51985900  0.84164300  1
  C  1775  1  0.71480500  0.56758300  0.88295800  1
  C  1777  1  0.78089000  0.44958700  0.35839300  1
  C  1778  1  0.76415600  0.43634800  0.36903500  1
  C  1779  1  0.73885700  0.45002200  0.37370300  1
  C  1780  1  0.73114400  0.47561700  0.36688200  1
  C  1781  1  0.74765200  0.48870000  0.35633400  1
  C  1782  1  0.77301700  0.47547100  0.35174100  1
  C  1789  1  0.79155100  0.48729300  0.34165400  1
  C  1791  1  0.71792400  0.43974400  0.38300300  1
  C  1793  1  0.16427400  0.43724700  0.36706000  1
  C  1794  1  0.15088900  0.45396800  0.35642200  1
  C  1795  1  0.16439700  0.47926600  0.35166100  1
  C  1796  1  0.19022900  0.48670600  0.35856200  1
  C  1797  1  0.20350200  0.47028000  0.36911200  1
  C  1798  1  0.19028200  0.44502600  0.37373600  1
  C  1805  1  0.20221200  0.42648700  0.38383000  1
  C  1807  1  0.15371000  0.50066000  0.34248900  1
  C  1809  1  0.26846000  0.56993700  0.86706100  1
  C  1810  1  0.28184500  0.55321600  0.85642200  1
  C  1811  1  0.26833700  0.52791800  0.85166000  1
  C  1812  1  0.24250700  0.52047900  0.85856200  1
  C  1813  1  0.22923200  0.53690500  0.86911200  1
  C  1814  1  0.24245200  0.56215800  0.87373600  1
  C  1821  1  0.23052300  0.58069700  0.88383000  1
  C  1823  1  0.27902600  0.50653000  0.84248500  1
  C  1825  1  0.28082600  0.44957200  0.11706000  1
  C  1826  1  0.26402900  0.43624800  0.10642300  1
  C  1827  1  0.23862500  0.44968900  0.10166100  1
  C  1828  1  0.23115100  0.47541600  0.10856400  1
  C  1829  1  0.24765300  0.48863200  0.11911300  1
  C  1830  1  0.27301600  0.47546600  0.12373800  1
  C  1837  1  0.29163300  0.48734400  0.13383200  1
  C  1839  1  0.21716800  0.43890800  0.09251300  1
  C  1841  1  0.15190400  0.55761600  0.61706200  1
  C  1842  1  0.16869900  0.57094300  0.60642300  1
  C  1843  1  0.19410400  0.55749300  0.60166000  1
  C  1844  1  0.20157500  0.53177300  0.60856500  1
  C  1845  1  0.18507800  0.51855700  0.61911500  1
  C  1846  1  0.15971800  0.53172400  0.62374000  1
  C  1853  1  0.14108700  0.51984000  0.63382700  1
  C  1855  1  0.21556600  0.56811300  0.59246300  1
  N  17  1  0.08708800  0.11787300  0.06457000  1
  N  18  1  0.16391400  0.05293900  0.06723200  1
  N  23  1  0.17375900  0.16709000  0.07332300  1
  N  24  1  0.20646000  0.07560300  0.08513400  1
  N  25  1  0.04578000  0.09477100  0.04527100  1
  N  26  1  0.11733300  0.04752600  0.01990900  1
  N  43  1  0.34564800  0.88931900  0.56457500  1
  N  44  1  0.26881800  0.95424400  0.56723000  1
  N  49  1  0.25901300  0.84008900  0.57329300  1
  N  50  1  0.22627400  0.93157900  0.58513200  1
  N  51  1  0.38694700  0.91243600  0.54526100  1
  N  52  1  0.31541200  0.95967100  0.51991200  1
  N  69  1  0.10160200  0.87485000  0.31457300  1
  N  70  1  0.16681900  0.95137200  0.31722900  1
  N  75  1  0.05154700  0.96191100  0.32183100  1
  N  76  1  0.14393700  0.99368600  0.33511500  1
  N  77  1  0.12479200  0.83374000  0.29526900  1
  N  78  1  0.17225800  0.90498100  0.26990600  1
  N  95  1  0.33114900  0.13231800  0.81457200  1
  N  96  1  0.26592300  0.05581800  0.81723200  1
  N  101  1  0.38063000  0.04388000  0.82283200  1
  N  102  1  0.28869500  0.01345400  0.83513200  1
  N  103  1  0.30794500  0.17343700  0.79526900  1
  N  104  1  0.26049400  0.10220000  0.76990700  1
  N  121  1  0.34578600  0.11795900  0.41085700  1
  N  122  1  0.26866700  0.05296200  0.40842300  1
  N  127  1  0.25929000  0.16724400  0.40213400  1
  N  128  1  0.21782400  0.08184500  0.39393900  1
  N  129  1  0.38708200  0.09476200  0.43017000  1
  N  130  1  0.31095900  0.05355700  0.45655100  1
  N  147  1  0.08694500  0.88923200  0.91085200  1
  N  148  1  0.16406700  0.95422500  0.90842600  1
  N  153  1  0.17343500  0.83993800  0.90214100  1
  N  154  1  0.21492300  0.92525500  0.89389800  1
  N  155  1  0.04565900  0.91244200  0.93018000  1
  N  156  1  0.12177500  0.95362900  0.95655500  1
  N  173  1  0.33123000  0.87472700  0.16085500  1
  N  174  1  0.26594400  0.95152300  0.15843000  1
  N  179  1  0.38073200  0.96084000  0.15214800  1
  N  180  1  0.29500100  0.00214600  0.14389600  1
  N  181  1  0.30793200  0.83362500  0.18017100  1
  N  182  1  0.26651900  0.90943000  0.20655400  1
  N  199  1  0.10149900  0.13245900  0.66085600  1
  N  200  1  0.16678700  0.05566800  0.65842200  1
  N  205  1  0.05200700  0.04632700  0.65213400  1
  N  206  1  0.13772600  0.00504100  0.64389800  1
  N  207  1  0.12479900  0.17356400  0.68017100  1
  N  208  1  0.16618700  0.09778000  0.70655600  1
  N  225  1  0.84119200  0.88891500  0.91099000  1
  N  226  1  0.76446300  0.95426100  0.90822700  1
  N  231  1  0.75561000  0.84008900  0.90190300  1
  N  232  1  0.72193800  0.93156900  0.89034400  1
  N  233  1  0.88019900  0.90399900  0.93473600  1
  N  234  1  0.81108700  0.95975400  0.95554600  1
  N  251  1  0.59153700  0.11825300  0.41098600  1
  N  252  1  0.66827200  0.05292200  0.40822900  1
  N  257  1  0.67804300  0.16710100  0.40218300  1
  N  258  1  0.71079700  0.07561600  0.39034500  1
  N  259  1  0.55254000  0.10317700  0.43474100  1
  N  260  1  0.62163800  0.04742000  0.45554400  1
  N  277  1  0.83115500  0.13229100  0.66089700  1
  N  278  1  0.76622900  0.05573400  0.65821600  1
  N  283  1  0.88425800  0.04380300  0.65112600  1
  N  284  1  0.78914600  0.01357800  0.64036200  1
  N  285  1  0.80794800  0.17342100  0.68020200  1
  N  286  1  0.76049300  0.10218900  0.70555000  1
  N  303  1  0.60157600  0.87489300  0.16089800  1
  N  304  1  0.66650600  0.95144200  0.15821300  1
  N  309  1  0.54847500  0.96338100  0.15112500  1
  N  310  1  0.64357000  0.99360900  0.14036100  1
  N  311  1  0.62478500  0.83376300  0.18020200  1
  N  312  1  0.67222900  0.90499600  0.20555500  1
  N  329  1  0.59139800  0.88882600  0.56452400  1
  N  330  1  0.66842200  0.95424000  0.56705300  1
  N  335  1  0.67768500  0.83989600  0.57330400  1
  N  336  1  0.71838200  0.92507500  0.58195000  1
  N  337  1  0.55245300  0.90396900  0.54076000  1
  N  338  1  0.62616300  0.95367000  0.51896700  1
  N  355  1  0.84133900  0.11834300  0.06453000  1
  N  356  1  0.76430500  0.05294500  0.06705300  1
  N  361  1  0.75557200  0.16737200  0.07305400  1
  N  362  1  0.71435100  0.08218600  0.08199800  1
  N  363  1  0.88027600  0.10320300  0.04075700  1
  N  364  1  0.80656800  0.05351400  0.01896100  1
  N  381  1  0.60148600  0.13244700  0.81462500  1
  N  382  1  0.66638300  0.05568700  0.81704700  1
  N  387  1  0.54821900  0.04394800  0.82439500  1
  N  388  1  0.63835700  0.00552700  0.83054900  1
  N  389  1  0.62478900  0.17356200  0.79530700  1
  N  390  1  0.66621400  0.09775000  0.76895000  1
  N  407  1  0.83125100  0.87473600  0.31462200  1
  N  408  1  0.76635300  0.95149100  0.31705200  1
  N  413  1  0.88452900  0.96322900  0.32439100  1
  N  414  1  0.79438500  0.00165800  0.33054800  1
  N  415  1  0.80793600  0.83362700  0.29530400  1
  N  416  1  0.76655100  0.90941000  0.26892900  1
  N  433  1  0.59144900  0.62003900  0.56457300  1
  N  434  1  0.66832400  0.55539900  0.56726200  1
  N  439  1  0.68031500  0.67291500  0.57434700  1
  N  440  1  0.71067400  0.57823400  0.58510900  1
  N  441  1  0.55013000  0.59693000  0.54527300  1
  N  442  1  0.62167200  0.54968000  0.51989700  1
  N  459  1  0.84128600  0.38715200  0.06457800  1
  N  460  1  0.76440900  0.45178500  0.06726000  1
  N  465  1  0.75242100  0.33426700  0.07434800  1
  N  466  1  0.72205900  0.42895000  0.08511000  1
  N  467  1  0.88259600  0.41027500  0.04526200  1
  N  468  1  0.81107200  0.45751700  0.01990000  1
  N  485  1  0.60121400  0.37712600  0.81448600  1
  N  486  1  0.66683600  0.45355600  0.81724400  1
  N  491  1  0.55192700  0.46307700  0.82312500  1
  N  492  1  0.64393500  0.49584300  0.83511800  1
  N  493  1  0.61634300  0.33830000  0.79073800  1
  N  494  1  0.67235500  0.40711700  0.76992600  1
  N  511  1  0.83154100  0.63003700  0.31448500  1
  N  512  1  0.76590500  0.55363600  0.31724500  1
  N  517  1  0.88051900  0.54349800  0.32350400  1
  N  518  1  0.78869600  0.51129500  0.33513400  1
  N  519  1  0.81638800  0.66887600  0.29073900  1
  N  520  1  0.76039800  0.60006400  0.26992700  1
  N  537  1  0.84138600  0.62002000  0.91091900  1
  N  538  1  0.76427700  0.55540600  0.90840800  1
  N  543  1  0.75260600  0.67307000  0.90109500  1
  N  544  1  0.71451900  0.58470400  0.89346900  1
  N  545  1  0.88260300  0.59680300  0.93023900  1
  N  546  1  0.80677700  0.55319300  0.95653300  1
  N  563  1  0.59134700  0.38717100  0.41091400  1
  N  564  1  0.66846200  0.45177900  0.40840700  1
  N  569  1  0.68012300  0.33411200  0.40109500  1
  N  570  1  0.71821400  0.42240300  0.39342000  1
  N  571  1  0.55013700  0.41040100  0.43024900  1
  N  572  1  0.62595400  0.45398900  0.45653500  1
  N  589  1  0.83163000  0.37698800  0.66094700  1
  N  590  1  0.76603900  0.45361400  0.65845200  1
  N  595  1  0.88083600  0.46293300  0.65216400  1
  N  596  1  0.79392000  0.50396100  0.64496200  1
  N  597  1  0.81641800  0.33822100  0.68471300  1
  N  598  1  0.76647400  0.41164200  0.70651000  1
  N  615  1  0.60109200  0.63019400  0.16094700  1
  N  616  1  0.66666667  0.55357700  0.15844500  1
  N  621  1  0.55190100  0.54423000  0.15215500  1
  N  622  1  0.63880200  0.50322300  0.14496300  1
  N  623  1  0.61631800  0.66896300  0.18471300  1
  N  624  1  0.66623100  0.59557000  0.20651200  1
  N  641  1  0.34549700  0.38674900  0.41098700  1
  N  642  1  0.26871600  0.45180200  0.40819800  1
  N  647  1  0.25674800  0.33426300  0.40112500  1
  N  648  1  0.22637500  0.42896700  0.39035000  1
  N  649  1  0.38451400  0.40184700  0.43473000  1
  N  650  1  0.31541200  0.45760200  0.45555800  1
  N  667  1  0.08723300  0.62042100  0.91098300  1
  N  668  1  0.16401900  0.55538200  0.90820000  1
  N  673  1  0.17598500  0.67292100  0.90112400  1
  N  674  1  0.20635900  0.57821700  0.89035000  1
  N  675  1  0.04822300  0.60532700  0.93473300  1
  N  676  1  0.11731200  0.54957400  0.95555600  1
  N  693  1  0.33154500  0.63001400  0.16098400  1
  N  694  1  0.26621300  0.55355200  0.15820100  1
  N  699  1  0.38426300  0.54164200  0.15112400  1
  N  700  1  0.28914000  0.51140300  0.14035300  1
  N  701  1  0.31638600  0.66885900  0.18472600  1
  N  702  1  0.26039600  0.60005100  0.20553100  1
  N  719  1  0.10118300  0.37717300  0.66098500  1
  N  720  1  0.16652400  0.45362600  0.65819900  1
  N  725  1  0.04847100  0.46554200  0.65112500  1
  N  726  1  0.14358100  0.49578500  0.64035100  1
  N  727  1  0.11635000  0.33832500  0.68472600  1
  N  728  1  0.17232500  0.40713100  0.70553500  1
  N  745  1  0.08714000  0.38677200  0.06446600  1
  N  746  1  0.16415100  0.45179100  0.06709300  1
  N  751  1  0.17584700  0.33412700  0.07438000  1
  N  752  1  0.21478800  0.42275100  0.08159800  1
  N  753  1  0.04824400  0.40197000  0.04070200  1
  N  754  1  0.12169600  0.45403600  0.01898300  1
  N  771  1  0.34558800  0.62039700  0.56447600  1
  N  772  1  0.26858400  0.55538900  0.56709000  1
  N  777  1  0.25688900  0.67305700  0.57438100  1
  N  778  1  0.21793300  0.58451600  0.58164300  1
  N  779  1  0.38447600  0.60524000  0.54073500  1
  N  780  1  0.31104300  0.55315100  0.51897800  1
  N  797  1  0.10110100  0.63014900  0.31452900  1
  N  798  1  0.16651200  0.55341600  0.31709900  1
  N  803  1  0.04831900  0.54177100  0.32438400  1
  N  804  1  0.13730000  0.50298800  0.33164400  1
  N  805  1  0.11632000  0.66893500  0.29077200  1
  N  806  1  0.16625300  0.59553200  0.26897900  1
  N  823  1  0.33164300  0.37703700  0.81452900  1
  N  824  1  0.26622300  0.45376200  0.81710500  1
  N  829  1  0.38443100  0.46540900  0.82438100  1
  N  830  1  0.29544200  0.50419500  0.83164300  1
  N  831  1  0.31641200  0.33824900  0.79077200  1
  N  832  1  0.26650900  0.41162500  0.76897600  1
  O  840  1  0.13416300  0.21780600  0.05483600  1
  O  842  1  0.20233700  0.28778100  0.08872400  1
  O  856  1  0.29856800  0.78937900  0.55483500  1
  O  858  1  0.23039500  0.71940400  0.58872300  1
  O  872  1  0.00139000  0.92169600  0.30479200  1
  O  874  1  0.93100100  0.98955300  0.33868900  1
  O  888  1  0.43150500  0.08544600  0.80483700  1
  O  890  1  0.50178500  0.01756300  0.83872400  1
  O  904  1  0.29856800  0.21781600  0.42063600  1
  O  906  1  0.23039500  0.28779100  0.38674600  1
  O  920  1  0.13417000  0.78936800  0.92063800  1
  O  922  1  0.20234200  0.71939100  0.88674800  1
  O  936  1  0.43152000  0.92174900  0.17063800  1
  O  938  1  0.50179800  0.98962800  0.13674800  1
  O  952  1  0.00121300  0.08543900  0.67063700  1
  O  954  1  0.93093500  0.01756000  0.63674600  1
  O  968  1  0.79423600  0.78937900  0.92063700  1
  O  970  1  0.72606500  0.71940200  0.88674900  1
  O  984  1  0.63849900  0.21780800  0.42063900  1
  O  986  1  0.70667200  0.28778300  0.38675100  1
  O  1000  1  0.63849700  0.78936800  0.55483900  1
  O  1002  1  0.70667200  0.71939300  0.58872600  1
  O  1016  1  0.79423400  0.21781600  0.05483600  1
  O  1018  1  0.72606100  0.28779100  0.08872600  1
  O  1032  1  0.50138400  0.42385900  0.80479100  1
  O  1034  1  0.43099600  0.49171200  0.83869000  1
  O  1048  1  0.93150800  0.58328500  0.30483700  1
  O  1050  1  0.00178600  0.51540400  0.33872400  1
  O  1064  1  0.93152100  0.42390100  0.67063600  1
  O  1066  1  0.00180300  0.49178200  0.63674600  1
  O  1080  1  0.50121200  0.58328100  0.17063600  1
  O  1082  1  0.43093200  0.51540200  0.13674500  1
  O  1096  1  0.92906300  0.11963300  0.01929700  1
  O  1098  1  0.99940700  0.07232500  0.06077000  1
  O  1112  1  0.50367000  0.88755100  0.51929800  1
  O  1114  1  0.43332400  0.93485900  0.56077000  1
  O  1128  1  0.09982300  0.71752800  0.26929700  1
  O  1130  1  0.14733400  0.78756900  0.31077100  1
  O  1144  1  0.33291100  0.28965600  0.76929800  1
  O  1146  1  0.28540300  0.21961500  0.81077200  1
  O  1160  1  0.50367900  0.11963400  0.45617700  1
  O  1162  1  0.43333700  0.07232500  0.41470400  1
  O  1176  1  0.92905400  0.88755100  0.95617700  1
  O  1178  1  0.99939600  0.93485900  0.91470400  1
  O  1192  1  0.33291300  0.71752000  0.20617800  1
  O  1194  1  0.28539700  0.78755400  0.16470500  1
  O  1208  1  0.09982200  0.28966200  0.70617700  1
  O  1210  1  0.14733200  0.21962600  0.66470300  1
  O  1224  1  0.83291100  0.28965600  0.70617600  1
  O  1226  1  0.78540000  0.21961500  0.66470200  1
  O  1240  1  0.59982200  0.71752800  0.20617500  1
  O  1242  1  0.64733300  0.78756900  0.16470100  1
  O  1256  1  0.59982200  0.28966200  0.76929600  1
  O  1258  1  0.64733300  0.21962600  0.81077000  1
  O  1272  1  0.83291100  0.71752200  0.26929600  1
  O  1274  1  0.78540200  0.78755600  0.31077100  1
  O  1288  1  0.43340300  0.62178300  0.51929300  1
  O  1290  1  0.50373400  0.57448100  0.56077100  1
  O  1304  1  0.99933800  0.38539300  0.01929800  1
  O  1306  1  0.92899700  0.43270100  0.06077000  1
  O  1320  1  0.99934100  0.62179100  0.95617700  1
  O  1322  1  0.92900100  0.57448400  0.91470500  1
  O  1336  1  0.43339300  0.38539300  0.45617600  1
  O  1338  1  0.50373400  0.43270100  0.41470400  1
  O  1352  1  0.09563900  0.05066200  0.99396900  1
  O  1354  1  0.16370100  0.95672200  0.98120000  1
  O  1368  1  0.33709800  0.95652300  0.49396900  1
  O  1370  1  0.26903300  0.05046300  0.48120000  1
  O  1384  1  0.16910100  0.88338700  0.24396700  1
  O  1386  1  0.26344500  0.95116000  0.23120000  1
  O  1400  1  0.26364100  0.12379900  0.74396900  1
  O  1402  1  0.16929300  0.05603100  0.73120000  1
  O  1416  1  0.83276100  0.95652100  0.98150500  1
  O  1418  1  0.76470100  0.05046300  0.99427300  1
  O  1432  1  0.59997200  0.05066300  0.48150500  1
  O  1434  1  0.66803200  0.95672000  0.49427300  1
  O  1448  1  0.76363800  0.12380100  0.73150500  1
  O  1450  1  0.66929500  0.05602200  0.74427000  1
  O  1464  1  0.66909300  0.88338500  0.23150400  1
  O  1466  1  0.76344000  0.95115400  0.24427300  1
  O  1480  1  0.60004200  0.55266100  0.49388900  1
  O  1482  1  0.66804000  0.45874300  0.48120500  1
  O  1496  1  0.83269300  0.45452600  0.99389000  1
  O  1498  1  0.76469300  0.54844100  0.98120400  1
  O  1512  1  0.66909700  0.38554600  0.74396700  1
  O  1514  1  0.76344600  0.45331700  0.73120000  1
  O  1528  1  0.76364200  0.62164000  0.24396800  1
  O  1530  1  0.66929100  0.55387400  0.23120000  1
  O  1544  1  0.33702500  0.45452200  0.48158400  1
  O  1546  1  0.26902700  0.54844100  0.49426900  1
  O  1560  1  0.09570800  0.55266100  0.98158400  1
  O  1562  1  0.16370800  0.45874300  0.99427000  1
  O  1576  1  0.26363700  0.62163800  0.23150700  1
  O  1578  1  0.16928700  0.55386800  0.24427300  1
  O  1592  1  0.16909100  0.38554200  0.73150500  1
  O  1594  1  0.26344300  0.45330800  0.74427300  1
  O  1608  1  0.30754000  0.05875900  0.12481900  1
  O  1610  1  0.20374100  0.02665200  0.10055600  1
  O  1624  1  0.12519400  0.94842500  0.62481900  1
  O  1626  1  0.22899300  0.98053100  0.60055600  1
  O  1640  1  0.16096800  0.09436100  0.37481800  1
  O  1642  1  0.19320200  0.99101300  0.35055200  1
  O  1656  1  0.27177300  0.91281700  0.87482000  1
  O  1658  1  0.23952900  0.01616700  0.85055500  1
  O  1672  1  0.62084500  0.94841100  0.85068300  1
  O  1674  1  0.72474000  0.98049500  0.87496200  1
  O  1688  1  0.81188800  0.05877300  0.35068300  1
  O  1690  1  0.70799300  0.02669000  0.37496100  1
  O  1704  1  0.77176400  0.91288500  0.60066800  1
  O  1706  1  0.73953900  0.01622300  0.62495000  1
  O  1720  1  0.66096700  0.09430000  0.10066400  1
  O  1722  1  0.69319200  0.99096400  0.12495000  1
  O  1736  1  0.81188100  0.56093200  0.62478800  1
  O  1738  1  0.70798500  0.52886500  0.60050300  1
  O  1752  1  0.62085200  0.44625200  0.12478800  1
  O  1754  1  0.72474800  0.47832000  0.10050300  1
  O  1768  1  0.66096900  0.59646300  0.87480700  1
  O  1770  1  0.69320700  0.49312900  0.85053200  1
  O  1784  1  0.77176400  0.41071900  0.37481100  1
  O  1786  1  0.73952200  0.51405100  0.35053300  1
  O  1800  1  0.12519900  0.44626700  0.35065700  1
  O  1802  1  0.22899100  0.47836000  0.37492100  1
  O  1816  1  0.30753600  0.56091700  0.85065700  1
  O  1818  1  0.20374300  0.52882400  0.87492100  1
  O  1832  1  0.27176700  0.41067000  0.10065800  1
  O  1834  1  0.23954200  0.51401300  0.12492400  1
  O  1848  1  0.16096200  0.59652100  0.60065700  1
  O  1850  1  0.19319100  0.49317600  0.62492400  1
