# generated using pymatgen
data_Zn4H36C60N6O19
_symmetry_space_group_name_H-M   'P 1'
_cell_length_a   28.28099000
_cell_length_b   34.45908000
_cell_length_c   36.42167000
_cell_angle_alpha   70.71309000
_cell_angle_beta   89.98966000
_cell_angle_gamma   89.98153000
_symmetry_Int_Tables_number   1
_chemical_formula_structural   Zn4H36C60N6O19
_chemical_formula_sum   'Zn32 H288 C480 N48 O152'
_cell_volume   33502.19502591
_cell_formula_units_Z   8
loop_
 _symmetry_equiv_pos_site_id
 _symmetry_equiv_pos_as_xyz
  1  'x, y, z'
loop_
 _atom_site_type_symbol
 _atom_site_label
 _atom_site_symmetry_multiplicity
 _atom_site_fract_x
 _atom_site_fract_y
 _atom_site_fract_z
 _atom_site_occupancy
  Zn  Zn0  1  0.53444000  0.80525000  0.40153000  1
  Zn  Zn1  1  0.50377000  0.71570000  0.39576000  1
  Zn  Zn2  1  0.98250000  0.28967000  0.32118000  1
  Zn  Zn3  1  0.42784000  0.79037000  0.37844000  1
  Zn  Zn4  1  0.99642000  0.36649000  0.87098000  1
  Zn  Zn5  1  0.01533000  0.29014000  0.94368000  1
  Zn  Zn6  1  0.46823000  0.77975000  0.86248000  1
  Zn  Zn7  1  0.92371000  0.28998000  0.89152000  1
  Zn  Zn8  1  0.96563000  0.30528000  0.40148000  1
  Zn  Zn9  1  0.99622000  0.21567000  0.39576000  1
  Zn  Zn10  1  0.51747000  0.78969000  0.32123000  1
  Zn  Zn11  1  0.07213000  0.29037000  0.37837000  1
  Zn  Zn12  1  0.50387000  0.86650000  0.87078000  1
  Zn  Zn13  1  0.48478000  0.79007000  0.94363000  1
  Zn  Zn14  1  0.03214000  0.28000000  0.86254000  1
  Zn  Zn15  1  0.57693000  0.79007000  0.89154000  1
  Zn  Zn16  1  0.03437000  0.69472000  0.59852000  1
  Zn  Zn17  1  0.00378000  0.78433000  0.60425000  1
  Zn  Zn18  1  0.48253000  0.21031000  0.67877000  1
  Zn  Zn19  1  0.92786000  0.70963000  0.62163000  1
  Zn  Zn20  1  0.49613000  0.13350000  0.12923000  1
  Zn  Zn21  1  0.51522000  0.20994000  0.05637000  1
  Zn  Zn22  1  0.96786000  0.72000000  0.13747000  1
  Zn  Zn23  1  0.42307000  0.20993000  0.10846000  1
  Zn  Zn24  1  0.46555000  0.19475000  0.59847000  1
  Zn  Zn25  1  0.49623000  0.28430000  0.60424000  1
  Zn  Zn26  1  0.01750000  0.71033000  0.67882000  1
  Zn  Zn27  1  0.57216000  0.20963000  0.62156000  1
  Zn  Zn28  1  0.00358000  0.63351000  0.12902000  1
  Zn  Zn29  1  0.98467000  0.70986000  0.05632000  1
  Zn  Zn30  1  0.53177000  0.22025000  0.13752000  1
  Zn  Zn31  1  0.07628000  0.71002000  0.10848000  1
  H  H32  1  0.65300000  0.65789000  0.62219000  1
  H  H33  1  0.72303000  0.48762000  0.78502000  1
  H  H34  1  0.59712000  0.63434000  0.73722000  1
  H  H35  1  0.86430000  0.12332000  0.21713000  1
  H  H36  1  0.73686000  0.98252000  0.26637000  1
  H  H37  1  0.89695000  0.09103000  0.12197000  1
  H  H38  1  0.12330000  0.47399000  0.14248000  1
  H  H39  1  0.15893000  0.44439000  0.04470000  1
  H  H40  1  0.27967000  0.58749000  0.99854000  1
  H  H41  1  0.40563000  0.95214000  0.52658000  1
  H  H42  1  0.35083000  0.92906000  0.64358000  1
  H  H43  1  0.22167000  0.05581000  0.50679000  1
  H  H44  1  0.57175000  0.64409000  0.49170000  1
  H  H45  1  0.60363000  0.60454000  0.55743000  1
  H  H46  1  0.63781000  0.71888000  0.57529000  1
  H  H47  1  0.60631000  0.75772000  0.50957000  1
  H  H48  1  0.70500000  0.53598000  0.66150000  1
  H  H49  1  0.71810000  0.55589000  0.77219000  1
  H  H50  1  0.62967000  0.63519000  0.68267000  1
  H  H51  1  0.84224000  0.48807000  0.75144000  1
  H  H52  1  0.90459000  0.44218000  0.79161000  1
  H  H53  1  0.79813000  0.36965000  0.86810000  1
  H  H54  1  0.73601000  0.41665000  0.82978000  1
  H  H55  1  0.67579000  0.67873000  0.79391000  1
  H  H56  1  0.64506000  0.72426000  0.82946000  1
  H  H57  1  0.50343000  0.70686000  0.79594000  1
  H  H58  1  0.53344000  0.66208000  0.75956000  1
  H  H59  1  0.94832000  0.12185000  0.35182000  1
  H  H60  1  0.91114000  0.07738000  0.31766000  1
  H  H61  1  0.89105000  0.18451000  0.21628000  1
  H  H62  1  0.92889000  0.22807000  0.25045000  1
  H  H63  1  0.81035000  0.00019000  0.26644000  1
  H  H64  1  0.77476000  0.01524000  0.14699000  1
  H  H65  1  0.86993000  0.09969000  0.17357000  1
  H  H66  1  0.70473000  0.89478000  0.23341000  1
  H  H67  1  0.64310000  0.84401000  0.26868000  1
  H  H68  1  0.62549000  0.90823000  0.35085000  1
  H  H69  1  0.68475000  0.95936000  0.31549000  1
  H  H70  1  0.95518000  0.13134000  0.08993000  1
  H  H71  1  0.98203000  0.19131000  0.03429000  1
  H  H72  1  0.84426000  0.20094000  0.98277000  1
  H  H73  1  0.81626000  0.14112000  0.03906000  1
  H  H74  1  0.03005000  0.37772000  0.22613000  1
  H  H75  1  0.06373000  0.43335000  0.16994000  1
  H  H76  1  0.19506000  0.42563000  0.23207000  1
  H  H77  1  0.16000000  0.37074000  0.28879000  1
  H  H78  1  0.15053000  0.46592000  0.09081000  1
  H  H79  1  0.21273000  0.56692000  0.00155000  1
  H  H80  1  0.24903000  0.54479000  0.12218000  1
  H  H81  1  0.13142000  0.38486000  0.04292000  1
  H  H82  1  0.08435000  0.34536000  0.00954000  1
  H  H83  1  0.05334000  0.45677000  0.91661000  1
  H  H84  1  0.09978000  0.49734000  0.94999000  1
  H  H85  1  0.32149000  0.61877000  0.94430000  1
  H  H86  1  0.37435000  0.67585000  0.90665000  1
  H  H87  1  0.37581000  0.72273000  0.00206000  1
  H  H88  1  0.32286000  0.66547000  0.04047000  1
  H  H89  1  0.50034000  0.88066000  0.46849000  1
  H  H90  1  0.46889000  0.92445000  0.50535000  1
  H  H91  1  0.32838000  0.91295000  0.46430000  1
  H  H92  1  0.36032000  0.86795000  0.42871000  1
  H  H93  1  0.37390000  0.94960000  0.58186000  1
  H  H94  1  0.31156000  0.05505000  0.60192000  1
  H  H95  1  0.28638000  0.03149000  0.49405000  1
  H  H96  1  0.35496000  0.86940000  0.69487000  1
  H  H97  1  0.38635000  0.83039000  0.76053000  1
  H  H98  1  0.45204000  0.94010000  0.76697000  1
  H  H99  1  0.42100000  0.97982000  0.70106000  1
  H  H100  1  0.15107000  0.07017000  0.47648000  1
  H  H101  1  0.09326000  0.12248000  0.43837000  1
  H  H102  1  0.17651000  0.21811000  0.45755000  1
  H  H103  1  0.23303000  0.16565000  0.49844000  1
  H  H104  1  0.84703000  0.15819000  0.62216000  1
  H  H105  1  0.77748000  0.98724000  0.78408000  1
  H  H106  1  0.90392000  0.13455000  0.73686000  1
  H  H107  1  0.63588000  0.62335000  0.21729000  1
  H  H108  1  0.76269000  0.48226000  0.26666000  1
  H  H109  1  0.60313000  0.59133000  0.12217000  1
  H  H110  1  0.37657000  0.97350000  0.14235000  1
  H  H111  1  0.34203000  0.94443000  0.04484000  1
  H  H112  1  0.22081000  0.08773000  0.99818000  1
  H  H113  1  0.09432000  0.45215000  0.52641000  1
  H  H114  1  0.14915000  0.42902000  0.64339000  1
  H  H115  1  0.27776000  0.55616000  0.50615000  1
  H  H116  1  0.92824000  0.14417000  0.49177000  1
  H  H117  1  0.89630000  0.10475000  0.55755000  1
  H  H118  1  0.86235000  0.21921000  0.57525000  1
  H  H119  1  0.89392000  0.25793000  0.50947000  1
  H  H120  1  0.79413000  0.03702000  0.66125000  1
  H  H121  1  0.78185000  0.05640000  0.77223000  1
  H  H122  1  0.87075000  0.13532000  0.68278000  1
  H  H123  1  0.65734000  0.98807000  0.75146000  1
  H  H124  1  0.59562000  0.94165000  0.79184000  1
  H  H125  1  0.70302000  0.86909000  0.86726000  1
  H  H126  1  0.76464000  0.91658000  0.82871000  1
  H  H127  1  0.82580000  0.17852000  0.79445000  1
  H  H128  1  0.85697000  0.22396000  0.82986000  1
  H  H129  1  0.99831000  0.20624000  0.79583000  1
  H  H130  1  0.96778000  0.16156000  0.75957000  1
  H  H131  1  0.55155000  0.62183000  0.35191000  1
  H  H132  1  0.58886000  0.57735000  0.31781000  1
  H  H133  1  0.60901000  0.68446000  0.21641000  1
  H  H134  1  0.57104000  0.72804000  0.25052000  1
  H  H135  1  0.68949000  0.50020000  0.26661000  1
  H  H136  1  0.72445000  0.51448000  0.14717000  1
  H  H137  1  0.62994000  0.59954000  0.17355000  1
  H  H138  1  0.79527000  0.39464000  0.23364000  1
  H  H139  1  0.85698000  0.34396000  0.26900000  1
  H  H140  1  0.87458000  0.40853000  0.35086000  1
  H  H141  1  0.81522000  0.45947000  0.31553000  1
  H  H142  1  0.54470000  0.63127000  0.08984000  1
  H  H143  1  0.51816000  0.69146000  0.03429000  1
  H  H144  1  0.65598000  0.70074000  0.98284000  1
  H  H145  1  0.68372000  0.64062000  0.03902000  1
  H  H146  1  0.46972000  0.87747000  0.22601000  1
  H  H147  1  0.43605000  0.93311000  0.16982000  1
  H  H148  1  0.30504000  0.92607000  0.23228000  1
  H  H149  1  0.34007000  0.87111000  0.28897000  1
  H  H150  1  0.34927000  0.96559000  0.09090000  1
  H  H151  1  0.28745000  0.06654000  0.00136000  1
  H  H152  1  0.25166000  0.04530000  0.12199000  1
  H  H153  1  0.36882000  0.88470000  0.04257000  1
  H  H154  1  0.41606000  0.84531000  0.00925000  1
  H  H155  1  0.44836000  0.95702000  0.91703000  1
  H  H156  1  0.40148000  0.99739000  0.95041000  1
  H  H157  1  0.17860000  0.11889000  0.94413000  1
  H  H158  1  0.12557000  0.17597000  0.90670000  1
  H  H159  1  0.12425000  0.22255000  0.00231000  1
  H  H160  1  0.17735000  0.16531000  0.04049000  1
  H  H161  1  0.99958000  0.38051000  0.46836000  1
  H  H162  1  0.03091000  0.42435000  0.50523000  1
  H  H163  1  0.17153000  0.41281000  0.46427000  1
  H  H164  1  0.13968000  0.36778000  0.42868000  1
  H  H165  1  0.12605000  0.44934000  0.58169000  1
  H  H166  1  0.18833000  0.55487000  0.60175000  1
  H  H167  1  0.21355000  0.53136000  0.49398000  1
  H  H168  1  0.14517000  0.36943000  0.69465000  1
  H  H169  1  0.11375000  0.33033000  0.76040000  1
  H  H170  1  0.04804000  0.44012000  0.76680000  1
  H  H171  1  0.07910000  0.47979000  0.70092000  1
  H  H172  1  0.34873000  0.57018000  0.47680000  1
  H  H173  1  0.40660000  0.62238000  0.43863000  1
  H  H174  1  0.32378000  0.71816000  0.45794000  1
  H  H175  1  0.26724000  0.66581000  0.49907000  1
  H  H176  1  0.15297000  0.84181000  0.37784000  1
  H  H177  1  0.22252000  0.01276000  0.21592000  1
  H  H178  1  0.09608000  0.86545000  0.26314000  1
  H  H179  1  0.36411000  0.37665000  0.78271000  1
  H  H180  1  0.23730000  0.51774000  0.73335000  1
  H  H181  1  0.39687000  0.40867000  0.87784000  1
  H  H182  1  0.62343000  0.02650000  0.85766000  1
  H  H183  1  0.65797000  0.05557000  0.95516000  1
  H  H184  1  0.77919000  0.91227000  0.00182000  1
  H  H185  1  0.90567000  0.54785000  0.47359000  1
  H  H186  1  0.85085000  0.57098000  0.35661000  1
  H  H187  1  0.72224000  0.44384000  0.49385000  1
  H  H188  1  0.07175000  0.85583000  0.50823000  1
  H  H189  1  0.10370000  0.89525000  0.44245000  1
  H  H190  1  0.13765000  0.78079000  0.42475000  1
  H  H191  1  0.10608000  0.74207000  0.49053000  1
  H  H192  1  0.20587000  0.96298000  0.33876000  1
  H  H193  1  0.21815000  0.94360000  0.22778000  1
  H  H194  1  0.12925000  0.86468000  0.31722000  1
  H  H195  1  0.34265000  0.01193000  0.24854000  1
  H  H196  1  0.40438000  0.05835000  0.20816000  1
  H  H197  1  0.29698000  0.13091000  0.13274000  1
  H  H198  1  0.23536000  0.08342000  0.17129000  1
  H  H199  1  0.17419000  0.82148000  0.20555000  1
  H  H200  1  0.14303000  0.77605000  0.17015000  1
  H  H201  1  0.00169000  0.79376000  0.20417000  1
  H  H202  1  0.03222000  0.83844000  0.24044000  1
  H  H203  1  0.44845000  0.37817000  0.64809000  1
  H  H204  1  0.41113000  0.42265000  0.68219000  1
  H  H205  1  0.39099000  0.31555000  0.78360000  1
  H  H206  1  0.42896000  0.27196000  0.74948000  1
  H  H207  1  0.31050000  0.49980000  0.73339000  1
  H  H208  1  0.27555000  0.48552000  0.85284000  1
  H  H209  1  0.37006000  0.40046000  0.82645000  1
  H  H210  1  0.20473000  0.60536000  0.76636000  1
  H  H211  1  0.14301000  0.65604000  0.73100000  1
  H  H212  1  0.12542000  0.59147000  0.64914000  1
  H  H213  1  0.18478000  0.54054000  0.68447000  1
  H  H214  1  0.45530000  0.36873000  0.91017000  1
  H  H215  1  0.48183000  0.30854000  0.96572000  1
  H  H216  1  0.34401000  0.29926000  0.01716000  1
  H  H217  1  0.31628000  0.35938000  0.96098000  1
  H  H218  1  0.53027000  0.12253000  0.77400000  1
  H  H219  1  0.56395000  0.06689000  0.83018000  1
  H  H220  1  0.69496000  0.07393000  0.76772000  1
  H  H221  1  0.65993000  0.12889000  0.71103000  1
  H  H222  1  0.65073000  0.03441000  0.90910000  1
  H  H223  1  0.71254000  0.93346000  0.99864000  1
  H  H224  1  0.74834000  0.95470000  0.87801000  1
  H  H225  1  0.63118000  0.11530000  0.95743000  1
  H  H226  1  0.58393000  0.15469000  0.99075000  1
  H  H227  1  0.55164000  0.04298000  0.08297000  1
  H  H228  1  0.59852000  0.00261000  0.04959000  1
  H  H229  1  0.82140000  0.88111000  0.05587000  1
  H  H230  1  0.87442000  0.82403000  0.09330000  1
  H  H231  1  0.87575000  0.77746000  0.99769000  1
  H  H232  1  0.82265000  0.83469000  0.95951000  1
  H  H233  1  0.00041000  0.61949000  0.53165000  1
  H  H234  1  0.96908000  0.57565000  0.49477000  1
  H  H235  1  0.82847000  0.58719000  0.53573000  1
  H  H236  1  0.86032000  0.63222000  0.57132000  1
  H  H237  1  0.87395000  0.55066000  0.41832000  1
  H  H238  1  0.81166000  0.44513000  0.39825000  1
  H  H239  1  0.78645000  0.46864000  0.50602000  1
  H  H240  1  0.85482000  0.63057000  0.30535000  1
  H  H241  1  0.88624000  0.66967000  0.23960000  1
  H  H242  1  0.95195000  0.55988000  0.23320000  1
  H  H243  1  0.92090000  0.52021000  0.29908000  1
  H  H244  1  0.65127000  0.42982000  0.52320000  1
  H  H245  1  0.59339000  0.37762000  0.56137000  1
  H  H246  1  0.67621000  0.28185000  0.54206000  1
  H  H247  1  0.73275000  0.33419000  0.50093000  1
  H  H248  1  0.34700000  0.34211000  0.37781000  1
  H  H249  1  0.27697000  0.51238000  0.21498000  1
  H  H250  1  0.40288000  0.36566000  0.26278000  1
  H  H251  1  0.13569000  0.87668000  0.78288000  1
  H  H252  1  0.26314000  0.01748000  0.73364000  1
  H  H253  1  0.10305000  0.90897000  0.87803000  1
  H  H254  1  0.87669000  0.52601000  0.85752000  1
  H  H255  1  0.84107000  0.55561000  0.95530000  1
  H  H256  1  0.72033000  0.41252000  0.00146000  1
  H  H257  1  0.59437000  0.04786000  0.47343000  1
  H  H258  1  0.64917000  0.07094000  0.35642000  1
  H  H259  1  0.77832000  0.94419000  0.49321000  1
  H  H260  1  0.42825000  0.35591000  0.50831000  1
  H  H261  1  0.39636000  0.39546000  0.44257000  1
  H  H262  1  0.36218000  0.28112000  0.42472000  1
  H  H263  1  0.39369000  0.24228000  0.49043000  1
  H  H264  1  0.29500000  0.46402000  0.33851000  1
  H  H265  1  0.28190000  0.44411000  0.22781000  1
  H  H266  1  0.37032000  0.36482000  0.31733000  1
  H  H267  1  0.15776000  0.51193000  0.24856000  1
  H  H268  1  0.09540000  0.55782000  0.20840000  1
  H  H269  1  0.20187000  0.63035000  0.13190000  1
  H  H270  1  0.26398000  0.58336000  0.17022000  1
  H  H271  1  0.32420000  0.32127000  0.20609000  1
  H  H272  1  0.35494000  0.27574000  0.17055000  1
  H  H273  1  0.49657000  0.29314000  0.20406000  1
  H  H274  1  0.46656000  0.33792000  0.24045000  1
  H  H275  1  0.05168000  0.87815000  0.64818000  1
  H  H276  1  0.08886000  0.92262000  0.68235000  1
  H  H277  1  0.10894000  0.81549000  0.78372000  1
  H  H278  1  0.07111000  0.77193000  0.74955000  1
  H  H279  1  0.18965000  0.99981000  0.73356000  1
  H  H280  1  0.22523000  0.98476000  0.85302000  1
  H  H281  1  0.13006000  0.90031000  0.82643000  1
  H  H282  1  0.29527000  0.10522000  0.76660000  1
  H  H283  1  0.35689000  0.15599000  0.73132000  1
  H  H284  1  0.37451000  0.09177000  0.64915000  1
  H  H285  1  0.31525000  0.04064000  0.68451000  1
  H  H286  1  0.04481000  0.86866000  0.91007000  1
  H  H287  1  0.01797000  0.80869000  0.96571000  1
  H  H288  1  0.15573000  0.79906000  0.01724000  1
  H  H289  1  0.18374000  0.85889000  0.96094000  1
  H  H290  1  0.96995000  0.62228000  0.77387000  1
  H  H291  1  0.93626000  0.56666000  0.83006000  1
  H  H292  1  0.80493000  0.57437000  0.76794000  1
  H  H293  1  0.84000000  0.62926000  0.71121000  1
  H  H294  1  0.84946000  0.53408000  0.90919000  1
  H  H295  1  0.78726000  0.43308000  0.99845000  1
  H  H296  1  0.75097000  0.45521000  0.87782000  1
  H  H297  1  0.86858000  0.61514000  0.95708000  1
  H  H298  1  0.91565000  0.65464000  0.99046000  1
  H  H299  1  0.94666000  0.54324000  0.08339000  1
  H  H300  1  0.90022000  0.50266000  0.05001000  1
  H  H301  1  0.67850000  0.38124000  0.05570000  1
  H  H302  1  0.62565000  0.32415000  0.09335000  1
  H  H303  1  0.62419000  0.27727000  0.99795000  1
  H  H304  1  0.67713000  0.33453000  0.95954000  1
  H  H305  1  0.49966000  0.11934000  0.53151000  1
  H  H306  1  0.53111000  0.07555000  0.49466000  1
  H  H307  1  0.67162000  0.08706000  0.53570000  1
  H  H308  1  0.63968000  0.13206000  0.57129000  1
  H  H309  1  0.62610000  0.05040000  0.41814000  1
  H  H310  1  0.68843000  0.94496000  0.39808000  1
  H  H311  1  0.71362000  0.96851000  0.50595000  1
  H  H312  1  0.64504000  0.13060000  0.30514000  1
  H  H313  1  0.61365000  0.16962000  0.23947000  1
  H  H314  1  0.54795000  0.05990000  0.23303000  1
  H  H315  1  0.57899000  0.02019000  0.29894000  1
  H  H316  1  0.84893000  0.92983000  0.52352000  1
  H  H317  1  0.90674000  0.87752000  0.56163000  1
  H  H318  1  0.82348000  0.78190000  0.54245000  1
  H  H319  1  0.76696000  0.83435000  0.50156000  1
  C  C320  1  0.56626000  0.72578000  0.45766000  1
  C  C321  1  0.58693000  0.70325000  0.49648000  1
  C  C322  1  0.58641000  0.66009000  0.51029000  1
  C  C323  1  0.60390000  0.63786000  0.54689000  1
  C  C324  1  0.62241000  0.65915000  0.57062000  1
  C  C325  1  0.62333000  0.70247000  0.55691000  1
  C  C326  1  0.60580000  0.72429000  0.52023000  1
  C  C327  1  0.64622000  0.59725000  0.62724000  1
  C  C328  1  0.66487000  0.58659000  0.66792000  1
  C  C329  1  0.69522000  0.55275000  0.68097000  1
  C  C330  1  0.71400000  0.54099000  0.71864000  1
  C  C331  1  0.70242000  0.56316000  0.74334000  1
  C  C332  1  0.67192000  0.59709000  0.73054000  1
  C  C333  1  0.65307000  0.60865000  0.69290000  1
  C  C334  1  0.75044000  0.50747000  0.72967000  1
  C  C335  1  0.78528000  0.45541000  0.78820000  1
  C  C336  1  0.83290000  0.46240000  0.77704000  1
  C  C337  1  0.86750000  0.43668000  0.79939000  1
  C  C338  1  0.85544000  0.40298000  0.83219000  1
  C  C339  1  0.80773000  0.39567000  0.84276000  1
  C  C340  1  0.77294000  0.42202000  0.82116000  1
  C  C341  1  0.89351000  0.37542000  0.85452000  1
  C  C342  1  0.66474000  0.62105000  0.75774000  1
  C  C343  1  0.60670000  0.66750000  0.77454000  1
  C  C344  1  0.63834000  0.68525000  0.79419000  1
  C  C345  1  0.62096000  0.71041000  0.81411000  1
  C  C346  1  0.57239000  0.71825000  0.81510000  1
  C  C347  1  0.54105000  0.70075000  0.79507000  1
  C  C348  1  0.55797000  0.67573000  0.77485000  1
  C  C349  1  0.55434000  0.74421000  0.83764000  1
  C  C350  1  0.96211000  0.20447000  0.32396000  1
  C  C351  1  0.94097000  0.17772000  0.30339000  1
  C  C352  1  0.93583000  0.13521000  0.32206000  1
  C  C353  1  0.91510000  0.11022000  0.30326000  1
  C  C354  1  0.89860000  0.12810000  0.26493000  1
  C  C355  1  0.90379000  0.17071000  0.24599000  1
  C  C356  1  0.92486000  0.19517000  0.26494000  1
  C  C357  1  0.86559000  0.06430000  0.25458000  1
  C  C358  1  0.84155000  0.05180000  0.22337000  1
  C  C359  1  0.81246000  0.01692000  0.23536000  1
  C  C360  1  0.78814000  0.00387000  0.20802000  1
  C  C361  1  0.79366000  0.02537000  0.16822000  1
  C  C362  1  0.82337000  0.05967000  0.15581000  1
  C  C363  1  0.84710000  0.07278000  0.18350000  1
  C  C364  1  0.75633000  0.96680000  0.21923000  1
  C  C365  1  0.69914000  0.92995000  0.27242000  1
  C  C366  1  0.68742000  0.89723000  0.25910000  1
  C  C367  1  0.65312000  0.86913000  0.27891000  1
  C  C368  1  0.63076000  0.87244000  0.31219000  1
  C  C369  1  0.64309000  0.90495000  0.32551000  1
  C  C370  1  0.67666000  0.93355000  0.30561000  1
  C  C371  1  0.59333000  0.84270000  0.33216000  1
  C  C372  1  0.82669000  0.08350000  0.11310000  1
  C  C373  1  0.88384000  0.13291000  0.06811000  1
  C  C374  1  0.93088000  0.14669000  0.06642000  1
  C  C375  1  0.94598000  0.18007000  0.03548000  1
  C  C376  1  0.91460000  0.20000000  0.00520000  1
  C  C377  1  0.86814000  0.18543000  0.00648000  1
  C  C378  1  0.85233000  0.15218000  0.03766000  1
  C  C379  1  0.93147000  0.23615000  0.97262000  1
  C  C380  1  0.07157000  0.33706000  0.29399000  1
  C  C381  1  0.09303000  0.37044000  0.26093000  1
  C  C382  1  0.06593000  0.38853000  0.22725000  1
  C  C383  1  0.08487000  0.41954000  0.19600000  1
  C  C384  1  0.13169000  0.43286000  0.19737000  1
  C  C385  1  0.15901000  0.41535000  0.23104000  1
  C  C386  1  0.13932000  0.38449000  0.26251000  1
  C  C387  1  0.19319000  0.47855000  0.15345000  1
  C  C388  1  0.19841000  0.50311000  0.11109000  1
  C  C389  1  0.17438000  0.49220000  0.08224000  1
  C  C390  1  0.18061000  0.51476000  0.04279000  1
  C  C391  1  0.21086000  0.54883000  0.03234000  1
  C  C392  1  0.23627000  0.55924000  0.06080000  1
  C  C393  1  0.22983000  0.53626000  0.10014000  1
  C  C394  1  0.15519000  0.50481000  0.01077000  1
  C  C395  1  0.11815000  0.44365000  0.99859000  1
  C  C396  1  0.11401000  0.40067000  0.01533000  1
  C  C397  1  0.08788000  0.37852000  0.99690000  1
  C  C398  1  0.06570000  0.39870000  0.96117000  1
  C  C399  1  0.07031000  0.44148000  0.94444000  1
  C  C400  1  0.09612000  0.46425000  0.96280000  1
  C  C401  1  0.03883000  0.37407000  0.94158000  1
  C  C402  1  0.27028000  0.59474000  0.05146000  1
  C  C403  1  0.31869000  0.63873000  0.99476000  1
  C  C404  1  0.33333333  0.64164000  0.95695000  1
  C  C405  1  0.36280000  0.67346000  0.93580000  1
  C  C406  1  0.37824000  0.70296000  0.95205000  1
  C  C407  1  0.36354000  0.69976000  0.98977000  1
  C  C408  1  0.33406000  0.66808000  0.01128000  1
  C  C409  1  0.41091000  0.73660000  0.93053000  1
  C  C410  1  0.45048000  0.84436000  0.42486000  1
  C  C411  1  0.43220000  0.87134000  0.44641000  1
  C  C412  1  0.46278000  0.88758000  0.46802000  1
  C  C413  1  0.44507000  0.91208000  0.48848000  1
  C  C414  1  0.39647000  0.92121000  0.48742000  1
  C  C415  1  0.36568000  0.90543000  0.46553000  1
  C  C416  1  0.38379000  0.88058000  0.44553000  1
  C  C417  1  0.33794000  0.96596000  0.50653000  1
  C  C418  1  0.33141000  0.98884000  0.53486000  1
  C  C419  1  0.35172000  0.97695000  0.57201000  1
  C  C420  1  0.34392000  0.00029000  0.59661000  1
  C  C421  1  0.31629000  0.03596000  0.58360000  1
  C  C422  1  0.29410000  0.04706000  0.54717000  1
  C  C423  1  0.30180000  0.02338000  0.52302000  1
  C  C424  1  0.36532000  0.98914000  0.63647000  1
  C  C425  1  0.38615000  0.92712000  0.69373000  1
  C  C426  1  0.37631000  0.88491000  0.71068000  1
  C  C427  1  0.39370000  0.86301000  0.74738000  1
  C  C428  1  0.42109000  0.88289000  0.76795000  1
  C  C429  1  0.43061000  0.92501000  0.75091000  1
  C  C430  1  0.41358000  0.94729000  0.71412000  1
  C  C431  1  0.44095000  0.85977000  0.80698000  1
  C  C432  1  0.26407000  0.08531000  0.53464000  1
  C  C433  1  0.19596000  0.11479000  0.48951000  1
  C  C434  1  0.15642000  0.10259000  0.47257000  1
  C  C435  1  0.12427000  0.13165000  0.45111000  1
  C  C436  1  0.13157000  0.17359000  0.44525000  1
  C  C437  1  0.17116000  0.18561000  0.46205000  1
  C  C438  1  0.20300000  0.15660000  0.48463000  1
  C  C439  1  0.09679000  0.20418000  0.42178000  1
  C  C440  1  0.93377000  0.22586000  0.45763000  1
  C  C441  1  0.91314000  0.20339000  0.49647000  1
  C  C442  1  0.91360000  0.16023000  0.51032000  1
  C  C443  1  0.89610000  0.13807000  0.54694000  1
  C  C444  1  0.87763000  0.15941000  0.57063000  1
  C  C445  1  0.87678000  0.20274000  0.55689000  1
  C  C446  1  0.89433000  0.22450000  0.52019000  1
  C  C447  1  0.85369000  0.09753000  0.62729000  1
  C  C448  1  0.83488000  0.08711000  0.66794000  1
  C  C449  1  0.80408000  0.05358000  0.68085000  1
  C  C450  1  0.78526000  0.04187000  0.71850000  1
  C  C451  1  0.79738000  0.06377000  0.74333000  1
  C  C452  1  0.82834000  0.09742000  0.73072000  1
  C  C453  1  0.84704000  0.10900000  0.69299000  1
  C  C454  1  0.74842000  0.00864000  0.72942000  1
  C  C455  1  0.71481000  0.95545000  0.78771000  1
  C  C456  1  0.66707000  0.96233000  0.77687000  1
  C  C457  1  0.63281000  0.93631000  0.79933000  1
  C  C458  1  0.64528000  0.90250000  0.83189000  1
  C  C459  1  0.69311000  0.89523000  0.84210000  1
  C  C460  1  0.72760000  0.92187000  0.82038000  1
  C  C461  1  0.60724000  0.87509000  0.85441000  1
  C  C462  1  0.83657000  0.12082000  0.75832000  1
  C  C463  1  0.89473000  0.16725000  0.77467000  1
  C  C464  1  0.86328000  0.18496000  0.79453000  1
  C  C465  1  0.88089000  0.21004000  0.81442000  1
  C  C466  1  0.92949000  0.21784000  0.81522000  1
  C  C467  1  0.96065000  0.20025000  0.79513000  1
  C  C468  1  0.94347000  0.17531000  0.77494000  1
  C  C469  1  0.94764000  0.24393000  0.83756000  1
  C  C470  1  0.53785000  0.70449000  0.32401000  1
  C  C471  1  0.55897000  0.67770000  0.30347000  1
  C  C472  1  0.56409000  0.63519000  0.32215000  1
  C  C473  1  0.58488000  0.61018000  0.30338000  1
  C  C474  1  0.60144000  0.62806000  0.26506000  1
  C  C475  1  0.59622000  0.67067000  0.24610000  1
  C  C476  1  0.57509000  0.69514000  0.26502000  1
  C  C477  1  0.63439000  0.56427000  0.25464000  1
  C  C478  1  0.65828000  0.55167000  0.22342000  1
  C  C479  1  0.68733000  0.51675000  0.23548000  1
  C  C480  1  0.71150000  0.50352000  0.20820000  1
  C  C481  1  0.70576000  0.52480000  0.16838000  1
  C  C482  1  0.67615000  0.55916000  0.15589000  1
  C  C483  1  0.65264000  0.57254000  0.18353000  1
  C  C484  1  0.74352000  0.46659000  0.21939000  1
  C  C485  1  0.80075000  0.42989000  0.27261000  1
  C  C486  1  0.81255000  0.39717000  0.25931000  1
  C  C487  1  0.84693000  0.36915000  0.27911000  1
  C  C488  1  0.86937000  0.37257000  0.31230000  1
  C  C489  1  0.85701000  0.40510000  0.32558000  1
  C  C490  1  0.82330000  0.43361000  0.30571000  1
  C  C491  1  0.90674000  0.34276000  0.33224000  1
  C  C492  1  0.67299000  0.58272000  0.11311000  1
  C  C493  1  0.61614000  0.63273000  0.06810000  1
  C  C494  1  0.56913000  0.64667000  0.06642000  1
  C  C495  1  0.55419000  0.68015000  0.03550000  1
  C  C496  1  0.58564000  0.70001000  0.00525000  1
  C  C497  1  0.63205000  0.68528000  0.00653000  1
  C  C498  1  0.64772000  0.65191000  0.03769000  1
  C  C499  1  0.56869000  0.73609000  0.97262000  1
  C  C500  1  0.42839000  0.83709000  0.29403000  1
  C  C501  1  0.40690000  0.87048000  0.26097000  1
  C  C502  1  0.43391000  0.88841000  0.22720000  1
  C  C503  1  0.41498000  0.91941000  0.19595000  1
  C  C504  1  0.36824000  0.93291000  0.19741000  1
  C  C505  1  0.34100000  0.91560000  0.23117000  1
  C  C506  1  0.36070000  0.88472000  0.26263000  1
  C  C507  1  0.30694000  0.97904000  0.15346000  1
  C  C508  1  0.30176000  0.00322000  0.11102000  1
  C  C509  1  0.32561000  0.99200000  0.08226000  1
  C  C510  1  0.31951000  0.01452000  0.04278000  1
  C  C511  1  0.28928000  0.04862000  0.03220000  1
  C  C512  1  0.26398000  0.05927000  0.06058000  1
  C  C513  1  0.27056000  0.03653000  0.09996000  1
  C  C514  1  0.34523000  0.00470000  0.01081000  1
  C  C515  1  0.38276000  0.94362000  0.99868000  1
  C  C516  1  0.38662000  0.90060000  0.01520000  1
  C  C517  1  0.41289000  0.87852000  0.99677000  1
  C  C518  1  0.43553000  0.89882000  0.96125000  1
  C  C519  1  0.43112000  0.94163000  0.94472000  1
  C  C520  1  0.40509000  0.96430000  0.96307000  1
  C  C521  1  0.46235000  0.87416000  0.94164000  1
  C  C522  1  0.22995000  0.09476000  0.05125000  1
  C  C523  1  0.18150000  0.13874000  0.99465000  1
  C  C524  1  0.16672000  0.14172000  0.95686000  1
  C  C525  1  0.13722000  0.17353000  0.93583000  1
  C  C526  1  0.12179000  0.20296000  0.95218000  1
  C  C527  1  0.13654000  0.19967000  0.98991000  1
  C  C528  1  0.16611000  0.16800000  0.01130000  1
  C  C529  1  0.08913000  0.23661000  0.93065000  1
  C  C530  1  0.04950000  0.34430000  0.42480000  1
  C  C531  1  0.06777000  0.37125000  0.44633000  1
  C  C532  1  0.03712000  0.38749000  0.46790000  1
  C  C533  1  0.05477000  0.41201000  0.48836000  1
  C  C534  1  0.10338000  0.42112000  0.48730000  1
  C  C535  1  0.13422000  0.40532000  0.46545000  1
  C  C536  1  0.11618000  0.38046000  0.44546000  1
  C  C537  1  0.16200000  0.46582000  0.50637000  1
  C  C538  1  0.16849000  0.48868000  0.53470000  1
  C  C539  1  0.14811000  0.47677000  0.57182000  1
  C  C540  1  0.15583000  0.50016000  0.59638000  1
  C  C541  1  0.18349000  0.53578000  0.58346000  1
  C  C542  1  0.20580000  0.54681000  0.54712000  1
  C  C543  1  0.19813000  0.52320000  0.52294000  1
  C  C544  1  0.13459000  0.48912000  0.63625000  1
  C  C545  1  0.11396000  0.42710000  0.69356000  1
  C  C546  1  0.12381000  0.38488000  0.71054000  1
  C  C547  1  0.10641000  0.36298000  0.74726000  1
  C  C548  1  0.07901000  0.38291000  0.76784000  1
  C  C549  1  0.06950000  0.42502000  0.75074000  1
  C  C550  1  0.08653000  0.44727000  0.71395000  1
  C  C551  1  0.05912000  0.35984000  0.80689000  1
  C  C552  1  0.23600000  0.58487000  0.53513000  1
  C  C553  1  0.30400000  0.61487000  0.48987000  1
  C  C554  1  0.34349000  0.60262000  0.47290000  1
  C  C555  1  0.37567000  0.63161000  0.45141000  1
  C  C556  1  0.36845000  0.67357000  0.44553000  1
  C  C557  1  0.32900000  0.68563000  0.46251000  1
  C  C558  1  0.29716000  0.65666000  0.48516000  1
  C  C559  1  0.40321000  0.70414000  0.42193000  1
  C  C560  1  0.06623000  0.77414000  0.54237000  1
  C  C561  1  0.08686000  0.79661000  0.50353000  1
  C  C562  1  0.08639000  0.83977000  0.48968000  1
  C  C563  1  0.10390000  0.86193000  0.45306000  1
  C  C564  1  0.12237000  0.84059000  0.42938000  1
  C  C565  1  0.12322000  0.79726000  0.44311000  1
  C  C566  1  0.10566000  0.77550000  0.47981000  1
  C  C567  1  0.14630000  0.90247000  0.37271000  1
  C  C568  1  0.16512000  0.91289000  0.33206000  1
  C  C569  1  0.19591000  0.94642000  0.31915000  1
  C  C570  1  0.21474000  0.95813000  0.28151000  1
  C  C571  1  0.20261000  0.93623000  0.25667000  1
  C  C572  1  0.17166000  0.90258000  0.26928000  1
  C  C573  1  0.15296000  0.89100000  0.30701000  1
  C  C574  1  0.25158000  0.99136000  0.27058000  1
  C  C575  1  0.28519000  0.04455000  0.21229000  1
  C  C576  1  0.33293000  0.03767000  0.22313000  1
  C  C577  1  0.36719000  0.06369000  0.20067000  1
  C  C578  1  0.35472000  0.09750000  0.16811000  1
  C  C579  1  0.30689000  0.10477000  0.15790000  1
  C  C580  1  0.27239000  0.07813000  0.17962000  1
  C  C581  1  0.39276000  0.12491000  0.14559000  1
  C  C582  1  0.16343000  0.87918000  0.24168000  1
  C  C583  1  0.10527000  0.83275000  0.22533000  1
  C  C584  1  0.13672000  0.81504000  0.20548000  1
  C  C585  1  0.11911000  0.78996000  0.18558000  1
  C  C586  1  0.07051000  0.78216000  0.18478000  1
  C  C587  1  0.03935000  0.79975000  0.20488000  1
  C  C588  1  0.05652000  0.82469000  0.22506000  1
  C  C589  1  0.05236000  0.75607000  0.16244000  1
  C  C590  1  0.46214000  0.29551000  0.67599000  1
  C  C591  1  0.44103000  0.32230000  0.69653000  1
  C  C592  1  0.43591000  0.36481000  0.67785000  1
  C  C593  1  0.41512000  0.38982000  0.69662000  1
  C  C594  1  0.39856000  0.37194000  0.73494000  1
  C  C595  1  0.40378000  0.32933000  0.75390000  1
  C  C596  1  0.42490000  0.30486000  0.73498000  1
  C  C597  1  0.36561000  0.43573000  0.74536000  1
  C  C598  1  0.34172000  0.44833000  0.77659000  1
  C  C599  1  0.31267000  0.48325000  0.76452000  1
  C  C600  1  0.28849000  0.49648000  0.79180000  1
  C  C601  1  0.29424000  0.47520000  0.83162000  1
  C  C602  1  0.32385000  0.44084000  0.84411000  1
  C  C603  1  0.34735000  0.42747000  0.81648000  1
  C  C604  1  0.25648000  0.53341000  0.78062000  1
  C  C605  1  0.19924000  0.57011000  0.72739000  1
  C  C606  1  0.18744000  0.60283000  0.74069000  1
  C  C607  1  0.15306000  0.63085000  0.72089000  1
  C  C608  1  0.13063000  0.62743000  0.68770000  1
  C  C609  1  0.14299000  0.59490000  0.67442000  1
  C  C610  1  0.17670000  0.56639000  0.69429000  1
  C  C611  1  0.09325000  0.65724000  0.66777000  1
  C  C612  1  0.32700000  0.41729000  0.88690000  1
  C  C613  1  0.38386000  0.36727000  0.93190000  1
  C  C614  1  0.43086000  0.35333000  0.93358000  1
  C  C615  1  0.44580000  0.31985000  0.96450000  1
  C  C616  1  0.41436000  0.29999000  0.99475000  1
  C  C617  1  0.36794000  0.31472000  0.99347000  1
  C  C618  1  0.35227000  0.34809000  0.96232000  1
  C  C619  1  0.43130000  0.26391000  0.02738000  1
  C  C620  1  0.57161000  0.16291000  0.70598000  1
  C  C621  1  0.59310000  0.12952000  0.73904000  1
  C  C622  1  0.56609000  0.11159000  0.77280000  1
  C  C623  1  0.58502000  0.08059000  0.80405000  1
  C  C624  1  0.63176000  0.06709000  0.80260000  1
  C  C625  1  0.65899000  0.08440000  0.76883000  1
  C  C626  1  0.63930000  0.11528000  0.73737000  1
  C  C627  1  0.69306000  0.02097000  0.84654000  1
  C  C628  1  0.69824000  0.99678000  0.88899000  1
  C  C629  1  0.67439000  0.00800000  0.91774000  1
  C  C630  1  0.68049000  0.98548000  0.95722000  1
  C  C631  1  0.71072000  0.95138000  0.96780000  1
  C  C632  1  0.73601000  0.94073000  0.93942000  1
  C  C633  1  0.72943000  0.96348000  0.90004000  1
  C  C634  1  0.65477000  0.99531000  0.98919000  1
  C  C635  1  0.61723000  0.05638000  0.00132000  1
  C  C636  1  0.61338000  0.09940000  0.98481000  1
  C  C637  1  0.58711000  0.12149000  0.00323000  1
  C  C638  1  0.56447000  0.10118000  0.03875000  1
  C  C639  1  0.56887000  0.05837000  0.05529000  1
  C  C640  1  0.59490000  0.03570000  0.03693000  1
  C  C641  1  0.53765000  0.12584000  0.05836000  1
  C  C642  1  0.77005000  0.90524000  0.94875000  1
  C  C643  1  0.81850000  0.86126000  0.00535000  1
  C  C644  1  0.83327000  0.85828000  0.04315000  1
  C  C645  1  0.86278000  0.82647000  0.06417000  1
  C  C646  1  0.87821000  0.79704000  0.04782000  1
  C  C647  1  0.86346000  0.80033000  0.01009000  1
  C  C648  1  0.83389000  0.83200000  0.98871000  1
  C  C649  1  0.91087000  0.76339000  0.06936000  1
  C  C650  1  0.95049000  0.65570000  0.57520000  1
  C  C651  1  0.93223000  0.62875000  0.55368000  1
  C  C652  1  0.96287000  0.61251000  0.53210000  1
  C  C653  1  0.94522000  0.58799000  0.51165000  1
  C  C654  1  0.89661000  0.57888000  0.51270000  1
  C  C655  1  0.86577000  0.59468000  0.53455000  1
  C  C656  1  0.88382000  0.61954000  0.55454000  1
  C  C657  1  0.83800000  0.53418000  0.49363000  1
  C  C658  1  0.83151000  0.51132000  0.46531000  1
  C  C659  1  0.85189000  0.52323000  0.42818000  1
  C  C660  1  0.84417000  0.49984000  0.40362000  1
  C  C661  1  0.81650000  0.46423000  0.41654000  1
  C  C662  1  0.79420000  0.45319000  0.45288000  1
  C  C663  1  0.80187000  0.47680000  0.47706000  1
  C  C664  1  0.86541000  0.51088000  0.36376000  1
  C  C665  1  0.88603000  0.57290000  0.30644000  1
  C  C666  1  0.87619000  0.61513000  0.28947000  1
  C  C667  1  0.89359000  0.63702000  0.25274000  1
  C  C668  1  0.92099000  0.61709000  0.23217000  1
  C  C669  1  0.93050000  0.57498000  0.24926000  1
  C  C670  1  0.91346000  0.55273000  0.28606000  1
  C  C671  1  0.94087000  0.64016000  0.19311000  1
  C  C672  1  0.76399000  0.41513000  0.46488000  1
  C  C673  1  0.69600000  0.38514000  0.51013000  1
  C  C674  1  0.65651000  0.39739000  0.52711000  1
  C  C675  1  0.62432000  0.36839000  0.54859000  1
  C  C676  1  0.63154000  0.32643000  0.55447000  1
  C  C677  1  0.67099000  0.31438000  0.53750000  1
  C  C678  1  0.70284000  0.34334000  0.51484000  1
  C  C679  1  0.59679000  0.29586000  0.57807000  1
  C  C680  1  0.43373000  0.27422000  0.54234000  1
  C  C681  1  0.41306000  0.29675000  0.50352000  1
  C  C682  1  0.41358000  0.33991000  0.48972000  1
  C  C683  1  0.39609000  0.36214000  0.45311000  1
  C  C684  1  0.37759000  0.34085000  0.42938000  1
  C  C685  1  0.37667000  0.29753000  0.44309000  1
  C  C686  1  0.39420000  0.27571000  0.47978000  1
  C  C687  1  0.35378000  0.40276000  0.37277000  1
  C  C688  1  0.33513000  0.41341000  0.33208000  1
  C  C689  1  0.30477000  0.44725000  0.31903000  1
  C  C690  1  0.28599000  0.45901000  0.28136000  1
  C  C691  1  0.29757000  0.43684000  0.25666000  1
  C  C692  1  0.32808000  0.40291000  0.26946000  1
  C  C693  1  0.34693000  0.39135000  0.30711000  1
  C  C694  1  0.24955000  0.49253000  0.27033000  1
  C  C695  1  0.21471000  0.54459000  0.21180000  1
  C  C696  1  0.16710000  0.53760000  0.22296000  1
  C  C697  1  0.13249000  0.56332000  0.20061000  1
  C  C698  1  0.14456000  0.59702000  0.16782000  1
  C  C699  1  0.19227000  0.60434000  0.15724000  1
  C  C700  1  0.22706000  0.57798000  0.17884000  1
  C  C701  1  0.10648000  0.62459000  0.14548000  1
  C  C702  1  0.33525000  0.37896000  0.24226000  1
  C  C703  1  0.39330000  0.33251000  0.22547000  1
  C  C704  1  0.36165000  0.31475000  0.20582000  1
  C  C705  1  0.37903000  0.28960000  0.18589000  1
  C  C706  1  0.42761000  0.28175000  0.18490000  1
  C  C707  1  0.45895000  0.29925000  0.20494000  1
  C  C708  1  0.44203000  0.32427000  0.22515000  1
  C  C709  1  0.44566000  0.25579000  0.16236000  1
  C  C710  1  0.03789000  0.79553000  0.67604000  1
  C  C711  1  0.05903000  0.82228000  0.69661000  1
  C  C712  1  0.06417000  0.86479000  0.67794000  1
  C  C713  1  0.08490000  0.88978000  0.69675000  1
  C  C714  1  0.10140000  0.87191000  0.73507000  1
  C  C715  1  0.09621000  0.82930000  0.75401000  1
  C  C716  1  0.07514000  0.80483000  0.73507000  1
  C  C717  1  0.13441000  0.93570000  0.74542000  1
  C  C718  1  0.15845000  0.94820000  0.77663000  1
  C  C719  1  0.18754000  0.98308000  0.76465000  1
  C  C720  1  0.21185000  0.99613000  0.79198000  1
  C  C721  1  0.20634000  0.97463000  0.83178000  1
  C  C722  1  0.17662000  0.94033000  0.84419000  1
  C  C723  1  0.15290000  0.92722000  0.81650000  1
  C  C724  1  0.24366000  0.03321000  0.78078000  1
  C  C725  1  0.30086000  0.07005000  0.72758000  1
  C  C726  1  0.31258000  0.10277000  0.74090000  1
  C  C727  1  0.34687000  0.13087000  0.72109000  1
  C  C728  1  0.36923000  0.12756000  0.68781000  1
  C  C729  1  0.35691000  0.09505000  0.67450000  1
  C  C730  1  0.32333000  0.06645000  0.69440000  1
  C  C731  1  0.40667000  0.15730000  0.66784000  1
  C  C732  1  0.17331000  0.91650000  0.88690000  1
  C  C733  1  0.11616000  0.86710000  0.93190000  1
  C  C734  1  0.06912000  0.85331000  0.93358000  1
  C  C735  1  0.05402000  0.81993000  0.96452000  1
  C  C736  1  0.08539000  0.80000000  0.99480000  1
  C  C737  1  0.13185000  0.81457000  0.99353000  1
  C  C738  1  0.14767000  0.84782000  0.96234000  1
  C  C739  1  0.06852000  0.76385000  0.02738000  1
  C  C740  1  0.92843000  0.66295000  0.70601000  1
  C  C741  1  0.90697000  0.62957000  0.73907000  1
  C  C742  1  0.93406000  0.61147000  0.77275000  1
  C  C743  1  0.91513000  0.58047000  0.80400000  1
  C  C744  1  0.86831000  0.56714000  0.80263000  1
  C  C745  1  0.84098000  0.58465000  0.76896000  1
  C  C746  1  0.86068000  0.61551000  0.73749000  1
  C  C747  1  0.80681000  0.52146000  0.84655000  1
  C  C748  1  0.80158000  0.49689000  0.88892000  1
  C  C749  1  0.82562000  0.50780000  0.91776000  1
  C  C750  1  0.81938000  0.48524000  0.95721000  1
  C  C751  1  0.78914000  0.45117000  0.96766000  1
  C  C752  1  0.76372000  0.44076000  0.93921000  1
  C  C753  1  0.77016000  0.46374000  0.89986000  1
  C  C754  1  0.84480000  0.49519000  0.98923000  1
  C  C755  1  0.88184000  0.55635000  0.00142000  1
  C  C756  1  0.88598000  0.59933000  0.98467000  1
  C  C757  1  0.91212000  0.62149000  0.00310000  1
  C  C758  1  0.93430000  0.60130000  0.03883000  1
  C  C759  1  0.92969000  0.55852000  0.05556000  1
  C  C760  1  0.90387000  0.53575000  0.03720000  1
  C  C761  1  0.96117000  0.62593000  0.05843000  1
  C  C762  1  0.72971000  0.40526000  0.94854000  1
  C  C763  1  0.68131000  0.36128000  0.00524000  1
  C  C764  1  0.66662000  0.35836000  0.04305000  1
  C  C765  1  0.63720000  0.32654000  0.06420000  1
  C  C766  1  0.62176000  0.29704000  0.04795000  1
  C  C767  1  0.63646000  0.30024000  0.01023000  1
  C  C768  1  0.66594000  0.33192000  0.98873000  1
  C  C769  1  0.58909000  0.26340000  0.06947000  1
  C  C770  1  0.54952000  0.15565000  0.57514000  1
  C  C771  1  0.56780000  0.12866000  0.55360000  1
  C  C772  1  0.53722000  0.11242000  0.53199000  1
  C  C773  1  0.55493000  0.08793000  0.51152000  1
  C  C774  1  0.60353000  0.07879000  0.51259000  1
  C  C775  1  0.63431000  0.09457000  0.53447000  1
  C  C776  1  0.61621000  0.11942000  0.55448000  1
  C  C777  1  0.66206000  0.03404000  0.49347000  1
  C  C778  1  0.66858000  0.01116000  0.46514000  1
  C  C779  1  0.64828000  0.02305000  0.42800000  1
  C  C780  1  0.65607000  0.99972000  0.40339000  1
  C  C781  1  0.68371000  0.96404000  0.41640000  1
  C  C782  1  0.70590000  0.95294000  0.45283000  1
  C  C783  1  0.69820000  0.97662000  0.47698000  1
  C  C784  1  0.63468000  0.01086000  0.36353000  1
  C  C785  1  0.61385000  0.07288000  0.30627000  1
  C  C786  1  0.62369000  0.11509000  0.28933000  1
  C  C787  1  0.60630000  0.13699000  0.25262000  1
  C  C788  1  0.57891000  0.11711000  0.23205000  1
  C  C789  1  0.56939000  0.07499000  0.24909000  1
  C  C790  1  0.58641000  0.05271000  0.28588000  1
  C  C791  1  0.55905000  0.14023000  0.19302000  1
  C  C792  1  0.73593000  0.91469000  0.46536000  1
  C  C793  1  0.80404000  0.88521000  0.51049000  1
  C  C794  1  0.84358000  0.89742000  0.52743000  1
  C  C795  1  0.87573000  0.86835000  0.54889000  1
  C  C796  1  0.86843000  0.82641000  0.55476000  1
  C  C797  1  0.82883000  0.81439000  0.53795000  1
  C  C798  1  0.79700000  0.84341000  0.51537000  1
  C  C799  1  0.90321000  0.79582000  0.57822000  1
  N  N800  1  0.63993000  0.63905000  0.60828000  1
  N  N801  1  0.74952000  0.48273000  0.76822000  1
  N  N802  1  0.62210000  0.64198000  0.75366000  1
  N  N803  1  0.87656000  0.10572000  0.24360000  1
  N  N804  1  0.73265000  0.96032000  0.25394000  1
  N  N805  1  0.87078000  0.10094000  0.10194000  1
  N  N806  1  0.14830000  0.46293000  0.16338000  1
  N  N807  1  0.14439000  0.46358000  0.01982000  1
  N  N808  1  0.28833000  0.60610000  0.01407000  1
  N  N809  1  0.38068000  0.94551000  0.50947000  1
  N  N810  1  0.36818000  0.94728000  0.65613000  1
  N  N811  1  0.22775000  0.08370000  0.50972000  1
  N  N812  1  0.86010000  0.13931000  0.60829000  1
  N  N813  1  0.75032000  0.98294000  0.76758000  1
  N  N814  1  0.87908000  0.14204000  0.75355000  1
  N  N815  1  0.62354000  0.60572000  0.24372000  1
  N  N816  1  0.76713000  0.46017000  0.25413000  1
  N  N817  1  0.62916000  0.60075000  0.10195000  1
  N  N818  1  0.35163000  0.96289000  0.16337000  1
  N  N819  1  0.35653000  0.96355000  0.01992000  1
  N  N820  1  0.21197000  0.10618000  0.01384000  1
  N  N821  1  0.11923000  0.44542000  0.50933000  1
  N  N822  1  0.13183000  0.44726000  0.65594000  1
  N  N823  1  0.27201000  0.58379000  0.50976000  1
  N  N824  1  0.13990000  0.86069000  0.39171000  1
  N  N825  1  0.24967000  0.01706000  0.23242000  1
  N  N826  1  0.12091000  0.85796000  0.24645000  1
  N  N827  1  0.37646000  0.39428000  0.75628000  1
  N  N828  1  0.23286000  0.53983000  0.74587000  1
  N  N829  1  0.37084000  0.39925000  0.89805000  1
  N  N830  1  0.64837000  0.03711000  0.83664000  1
  N  N831  1  0.64347000  0.03645000  0.98008000  1
  N  N832  1  0.78803000  0.89382000  0.98616000  1
  N  N833  1  0.88076000  0.55458000  0.49067000  1
  N  N834  1  0.86816000  0.55274000  0.34407000  1
  N  N835  1  0.72799000  0.41621000  0.49024000  1
  N  N836  1  0.36007000  0.36095000  0.39172000  1
  N  N837  1  0.25048000  0.51728000  0.23179000  1
  N  N838  1  0.37789000  0.35802000  0.24635000  1
  N  N839  1  0.12344000  0.89428000  0.75640000  1
  N  N840  1  0.26735000  0.03968000  0.74606000  1
  N  N841  1  0.12922000  0.89906000  0.89806000  1
  N  N842  1  0.85169000  0.53707000  0.83662000  1
  N  N843  1  0.85561000  0.53642000  0.98018000  1
  N  N844  1  0.71167000  0.39390000  0.98593000  1
  N  N845  1  0.61932000  0.05449000  0.49053000  1
  N  N846  1  0.63182000  0.05272000  0.34387000  1
  N  N847  1  0.77225000  0.91630000  0.49028000  1
  O  O848  1  0.56658000  0.76519000  0.44647000  1
  O  O849  1  0.54966000  0.70344000  0.43872000  1
  O  O850  1  0.93527000  0.39069000  0.85029000  1
  O  O851  1  0.88195000  0.33890000  0.87579000  1
  O  O852  1  0.50939000  0.74812000  0.83883000  1
  O  O853  1  0.58530000  0.76016000  0.85400000  1
  O  O854  1  0.63800000  0.57035000  0.61273000  1
  O  O855  1  0.77884000  0.50361000  0.70547000  1
  O  O856  1  0.69541000  0.62162000  0.78157000  1
  O  O857  1  0.96900000  0.24221000  0.30373000  1
  O  O858  1  0.97150000  0.18779000  0.36019000  1
  O  O859  1  0.57848000  0.81830000  0.31462000  1
  O  O860  1  0.57846000  0.84370000  0.36506000  1
  O  O861  1  0.90500000  0.25011000  0.94262000  1
  O  O862  1  0.97184000  0.25032000  0.97787000  1
  O  O863  1  0.87370000  0.03923000  0.28703000  1
  O  O864  1  0.75220000  0.94528000  0.19827000  1
  O  O865  1  0.79281000  0.08773000  0.09090000  1
  O  O866  1  0.03094000  0.32436000  0.28726000  1
  O  O867  1  0.09501000  0.32390000  0.32582000  1
  O  O868  1  0.02374000  0.39246000  0.90700000  1
  O  O869  1  0.03311000  0.33598000  0.96112000  1
  O  O870  1  0.42379000  0.76145000  0.94813000  1
  O  O871  1  0.42400000  0.73835000  0.89630000  1
  O  O872  1  0.22677000  0.47266000  0.17624000  1
  O  O873  1  0.14543000  0.53145000  0.97961000  1
  O  O874  1  0.28090000  0.61127000  0.07567000  1
  O  O875  1  0.49535000  0.83973000  0.42411000  1
  O  O876  1  0.41946000  0.82798000  0.40900000  1
  O  O877  1  0.43353000  0.82089000  0.82023000  1
  O  O878  1  0.46394000  0.88097000  0.82390000  1
  O  O879  1  0.05685000  0.18958000  0.41621000  1
  O  O880  1  0.10944000  0.24202000  0.40911000  1
  O  O881  1  0.30693000  0.96630000  0.48269000  1
  O  O882  1  0.37851000  0.01570000  0.65003000  1
  O  O883  1  0.27179000  0.11477000  0.54580000  1
  O  O884  1  0.49483000  0.77550000  0.37499000  1
  O  O885  1  0.99058000  0.30653000  0.89079000  1
  O  O886  1  0.93344000  0.26527000  0.44641000  1
  O  O887  1  0.95035000  0.20348000  0.43870000  1
  O  O888  1  0.56559000  0.89059000  0.85038000  1
  O  O889  1  0.61876000  0.83853000  0.87565000  1
  O  O890  1  0.99257000  0.24799000  0.83858000  1
  O  O891  1  0.91673000  0.25992000  0.85396000  1
  O  O892  1  0.86194000  0.07051000  0.61290000  1
  O  O893  1  0.71902000  0.00578000  0.70549000  1
  O  O894  1  0.80693000  0.12095000  0.78308000  1
  O  O895  1  0.53098000  0.74224000  0.30377000  1
  O  O896  1  0.52848000  0.68782000  0.36025000  1
  O  O897  1  0.92147000  0.31827000  0.31474000  1
  O  O898  1  0.92164000  0.34375000  0.36512000  1
  O  O899  1  0.59510000  0.74999000  0.94258000  1
  O  O900  1  0.52829000  0.75024000  0.97787000  1
  O  O901  1  0.62626000  0.53921000  0.28708000  1
  O  O902  1  0.74787000  0.44519000  0.19834000  1
  O  O903  1  0.70682000  0.58606000  0.09097000  1
  O  O904  1  0.46902000  0.82437000  0.28728000  1
  O  O905  1  0.40496000  0.82393000  0.32586000  1
  O  O906  1  0.47836000  0.89256000  0.90735000  1
  O  O907  1  0.46703000  0.83591000  0.96102000  1
  O  O908  1  0.07624000  0.26150000  0.94820000  1
  O  O909  1  0.07608000  0.23836000  0.89641000  1
  O  O910  1  0.27350000  0.97401000  0.17629000  1
  O  O911  1  0.35475000  0.03142000  0.97964000  1
  O  O912  1  0.21918000  0.11120000  0.07550000  1
  O  O913  1  0.00464000  0.33970000  0.42409000  1
  O  O914  1  0.08052000  0.32792000  0.40892000  1
  O  O915  1  0.06658000  0.32095000  0.82012000  1
  O  O916  1  0.03608000  0.38095000  0.82386000  1
  O  O917  1  0.44311000  0.68953000  0.41626000  1
  O  O918  1  0.39055000  0.74199000  0.40921000  1
  O  O919  1  0.19304000  0.46606000  0.48255000  1
  O  O920  1  0.12155000  0.51569000  0.64985000  1
  O  O921  1  0.22855000  0.61369000  0.54727000  1
  O  O922  1  0.00518000  0.27546000  0.37493000  1
  O  O923  1  0.50964000  0.80643000  0.89074000  1
  O  O924  1  0.06656000  0.73474000  0.55359000  1
  O  O925  1  0.04965000  0.79652000  0.56130000  1
  O  O926  1  0.43440000  0.10941000  0.14962000  1
  O  O927  1  0.38124000  0.16147000  0.12435000  1
  O  O928  1  0.00743000  0.75201000  0.16142000  1
  O  O929  1  0.08326000  0.74008000  0.14605000  1
  O  O930  1  0.13806000  0.92949000  0.38710000  1
  O  O931  1  0.28098000  0.99422000  0.29451000  1
  O  O932  1  0.19307000  0.87905000  0.21692000  1
  O  O933  1  0.46902000  0.25777000  0.69623000  1
  O  O934  1  0.47152000  0.31218000  0.63975000  1
  O  O935  1  0.07852000  0.68173000  0.68526000  1
  O  O936  1  0.07835000  0.65625000  0.63488000  1
  O  O937  1  0.40489000  0.25001000  0.05742000  1
  O  O938  1  0.47170000  0.24976000  0.02213000  1
  O  O939  1  0.37374000  0.46079000  0.71292000  1
  O  O940  1  0.25213000  0.55481000  0.80167000  1
  O  O941  1  0.29318000  0.41394000  0.90903000  1
  O  O942  1  0.53098000  0.17563000  0.71272000  1
  O  O943  1  0.59504000  0.17608000  0.67414000  1
  O  O944  1  0.52164000  0.10744000  0.09265000  1
  O  O945  1  0.53297000  0.16409000  0.03898000  1
  O  O946  1  0.92376000  0.73850000  0.05181000  1
  O  O947  1  0.92391000  0.76164000  0.10359000  1
  O  O948  1  0.72649000  0.02599000  0.82372000  1
  O  O949  1  0.64525000  0.96858000  0.02036000  1
  O  O950  1  0.78082000  0.88880000  0.92450000  1
  O  O951  1  0.99536000  0.66031000  0.57591000  1
  O  O952  1  0.91948000  0.67208000  0.59108000  1
  O  O953  1  0.93342000  0.67905000  0.17988000  1
  O  O954  1  0.96392000  0.61905000  0.17614000  1
  O  O955  1  0.55688000  0.31047000  0.58374000  1
  O  O956  1  0.60944000  0.25801000  0.59079000  1
  O  O957  1  0.80696000  0.53394000  0.51745000  1
  O  O958  1  0.87844000  0.48431000  0.35015000  1
  O  O959  1  0.77144000  0.38631000  0.45273000  1
  O  O960  1  0.99482000  0.72454000  0.62507000  1
  O  O961  1  0.49036000  0.19357000  0.10926000  1
  O  O962  1  0.43341000  0.23481000  0.55353000  1
  O  O963  1  0.45034000  0.29656000  0.56128000  1
  O  O964  1  0.06473000  0.60931000  0.14972000  1
  O  O965  1  0.11805000  0.66111000  0.12421000  1
  O  O966  1  0.49061000  0.25188000  0.16117000  1
  O  O967  1  0.41469000  0.23984000  0.14601000  1
  O  O968  1  0.36200000  0.42966000  0.38728000  1
  O  O969  1  0.22115000  0.49639000  0.29454000  1
  O  O970  1  0.30459000  0.37838000  0.21843000  1
  O  O971  1  0.03100000  0.75779000  0.69628000  1
  O  O972  1  0.02850000  0.81221000  0.63981000  1
  O  O973  1  0.42151000  0.18170000  0.68538000  1
  O  O974  1  0.42154000  0.15631000  0.63495000  1
  O  O975  1  0.09500000  0.74990000  0.05738000  1
  O  O976  1  0.02816000  0.74968000  0.02213000  1
  O  O977  1  0.12629000  0.96077000  0.71298000  1
  O  O978  1  0.24780000  0.05473000  0.80173000  1
  O  O979  1  0.20719000  0.91227000  0.90910000  1
  O  O980  1  0.96906000  0.67564000  0.71274000  1
  O  O981  1  0.90498000  0.67610000  0.67419000  1
  O  O982  1  0.97626000  0.60754000  0.09301000  1
  O  O983  1  0.96689000  0.66403000  0.03888000  1
  O  O984  1  0.57621000  0.23855000  0.05187000  1
  O  O985  1  0.57600000  0.26165000  0.10370000  1
  O  O986  1  0.77323000  0.52734000  0.82377000  1
  O  O987  1  0.85457000  0.46855000  0.02039000  1
  O  O988  1  0.71910000  0.38873000  0.92433000  1
  O  O989  1  0.50465000  0.16028000  0.57589000  1
  O  O990  1  0.58054000  0.17202000  0.59100000  1
  O  O991  1  0.56646000  0.17912000  0.17977000  1
  O  O992  1  0.53606000  0.11903000  0.17610000  1
  O  O993  1  0.94314000  0.81042000  0.58380000  1
  O  O994  1  0.89056000  0.75798000  0.59089000  1
  O  O995  1  0.69306000  0.03370000  0.51731000  1
  O  O996  1  0.62148000  0.98430000  0.34997000  1
  O  O997  1  0.72821000  0.88523000  0.45420000  1
  O  O998  1  0.50517000  0.22450000  0.62501000  1
  O  O999  1  0.00942000  0.69347000  0.10921000  1
