# generated using pymatgen
data_H7C11N2
_symmetry_space_group_name_H-M   'P 1'
_cell_length_a   53.88570000
_cell_length_b   61.78230000
_cell_length_c   61.77940000
_cell_angle_alpha   89.97280000
_cell_angle_beta   90.06660000
_cell_angle_gamma   90.03330000
_symmetry_Int_Tables_number   1
_chemical_formula_structural   H7C11N2
_chemical_formula_sum   'H336 C528 N96'
_cell_volume   205674.69950082
_cell_formula_units_Z   48
loop_
 _symmetry_equiv_pos_site_id
 _symmetry_equiv_pos_as_xyz
  1  'x, y, z'
loop_
 _atom_site_type_symbol
 _atom_site_label
 _atom_site_symmetry_multiplicity
 _atom_site_fract_x
 _atom_site_fract_y
 _atom_site_fract_z
 _atom_site_occupancy
  H  49  1  0.88507100  0.04099200  0.89693400  1
  H  50  1  0.91286800  0.02202300  0.92022300  1
  H  51  1  0.93675600  0.09216200  0.89165900  1
  H  52  1  0.96456300  0.07299000  0.91513900  1
  H  53  1  0.97309600  0.02183700  0.89379600  1
  H  54  1  0.00578200  0.99233600  0.89329400  1
  H  55  1  0.98842300  0.00512500  0.95628600  1
  H  56  1  0.98988600  0.00606800  0.99447900  1
  H  57  1  0.92199100  0.06399600  0.95558900  1
  H  58  1  0.92245800  0.06398900  0.99657800  1
  H  59  1  0.91756700  0.01991200  0.03641000  1
  H  60  1  0.89017100  0.03866400  0.06020300  1
  H  61  1  0.96296900  0.07532300  0.03229200  1
  H  62  1  0.93547900  0.09431100  0.05610900  1
  H  63  1  0.97349700  0.01991900  0.05745900  1
  H  64  1  0.00555100  0.98982400  0.05703200  1
  H  65  1  0.05084200  0.94320200  0.95422500  1
  H  66  1  0.05117000  0.94312200  0.99521100  1
  H  67  1  0.06633600  0.97891000  0.03344200  1
  H  68  1  0.08604200  0.95400200  0.05772800  1
  H  69  1  0.00195900  0.94012500  0.03317700  1
  H  70  1  0.02139400  0.91525900  0.05734900  1
  H  71  1  0.00055900  0.94631800  0.90841300  1
  H  72  1  0.02019900  0.92557800  0.88054500  1
  H  73  1  0.08864200  0.95562800  0.89483000  1
  H  74  1  0.06877400  0.97674700  0.92242700  1
  H  79  1  0.05758600  0.90278500  0.07629900  1
  H  80  1  0.87539800  0.07331400  0.07410700  1
  H  81  1  0.87312700  0.07422900  0.87926300  1
  H  82  1  0.05897600  0.92970900  0.85341400  1
  H  131  1  0.38460600  0.97298600  0.55353800  1
  H  132  1  0.41238100  0.99199800  0.53030200  1
  H  133  1  0.43654200  0.92210500  0.55927700  1
  H  134  1  0.46432500  0.94132000  0.53584100  1
  H  135  1  0.47283000  0.99231000  0.55701800  1
  H  136  1  0.50553100  0.02183300  0.55757400  1
  H  137  1  0.48799000  0.00919500  0.49456100  1
  H  138  1  0.48975300  0.00816000  0.45636800  1
  H  139  1  0.42167000  0.95019100  0.49506700  1
  H  140  1  0.42215400  0.95029600  0.45407600  1
  H  141  1  0.41707100  0.99442600  0.41458800  1
  H  142  1  0.38963100  0.97566500  0.39075400  1
  H  143  1  0.46281400  0.93923000  0.41827300  1
  H  144  1  0.43529100  0.92023200  0.39442400  1
  H  145  1  0.47307700  0.99454900  0.39336200  1
  H  146  1  0.50524100  0.02458600  0.39384300  1
  H  147  1  0.55072400  0.07096100  0.49680600  1
  H  148  1  0.55116400  0.07106300  0.45581400  1
  H  149  1  0.56607500  0.03523700  0.41734500  1
  H  150  1  0.58582500  0.06011500  0.39307100  1
  H  151  1  0.50200300  0.07432900  0.41788100  1
  H  152  1  0.52148500  0.09916800  0.39372900  1
  H  153  1  0.50032100  0.06796900  0.54235900  1
  H  154  1  0.52002400  0.08864600  0.57030400  1
  H  155  1  0.58831000  0.05830600  0.55631700  1
  H  156  1  0.56838400  0.03725300  0.52864700  1
  H  161  1  0.55757600  0.11145800  0.37458700  1
  H  162  1  0.37506900  0.94113100  0.37647500  1
  H  163  1  0.37278300  0.93980200  0.57135000  1
  H  164  1  0.55889400  0.08419900  0.59760600  1
  H  213  1  0.63373400  0.18229200  0.68778000  1
  H  214  1  0.66186700  0.20394500  0.70842500  1
  H  215  1  0.68831600  0.17427100  0.63949900  1
  H  216  1  0.71644400  0.19618400  0.66022700  1
  H  217  1  0.72189100  0.17580900  0.71186800  1
  H  218  1  0.75452100  0.17533700  0.74150900  1
  H  219  1  0.73994200  0.23833000  0.72625900  1
  H  220  1  0.74094000  0.27656800  0.72592500  1
  H  221  1  0.67336000  0.23778000  0.66742900  1
  H  222  1  0.67389100  0.27875000  0.66751700  1
  H  223  1  0.66768000  0.31774100  0.71213900  1
  H  224  1  0.64027200  0.34154800  0.69335400  1
  H  225  1  0.71410600  0.31500200  0.65734500  1
  H  226  1  0.68659900  0.33881500  0.63830900  1
  H  227  1  0.72336800  0.33951200  0.71297500  1
  H  228  1  0.75544300  0.33908500  0.74310100  1
  H  229  1  0.80221600  0.23617400  0.78853000  1
  H  230  1  0.80261000  0.27716400  0.78868100  1
  H  231  1  0.81660600  0.31615300  0.75320400  1
  H  232  1  0.83625600  0.34042900  0.77815900  1
  H  233  1  0.75287500  0.31455400  0.79266400  1
  H  234  1  0.77225700  0.33870200  0.81757700  1
  H  235  1  0.74994300  0.19423500  0.78812100  1
  H  236  1  0.76830000  0.16813800  0.81163300  1
  H  237  1  0.83680600  0.17557600  0.77927800  1
  H  238  1  0.81814600  0.20166100  0.75559700  1
  H  243  1  0.80789700  0.35857800  0.82956900  1
  H  244  1  0.62604000  0.35613100  0.65898800  1
  H  245  1  0.62395900  0.17306300  0.64804900  1
  H  246  1  0.80274500  0.14475400  0.82068700  1
  H  295  1  0.13383800  0.83172500  0.76318100  1
  H  296  1  0.16186400  0.81007800  0.74252500  1
  H  297  1  0.18859800  0.83979600  0.81140800  1
  H  298  1  0.21662800  0.81788500  0.79066600  1
  H  299  1  0.22195800  0.83823100  0.73900700  1
  H  300  1  0.25452300  0.83871800  0.70937500  1
  H  301  1  0.23995300  0.77572100  0.72462000  1
  H  302  1  0.24093700  0.73747400  0.72488800  1
  H  303  1  0.17350900  0.77620200  0.78342600  1
  H  304  1  0.17402100  0.73523200  0.78329400  1
  H  305  1  0.16768700  0.69623100  0.73869700  1
  H  306  1  0.14030500  0.67244300  0.75751100  1
  H  307  1  0.21423600  0.69907700  0.79349800  1
  H  308  1  0.18675000  0.67527800  0.81256300  1
  H  309  1  0.22341600  0.67452300  0.73787100  1
  H  310  1  0.25546800  0.67496200  0.70778800  1
  H  311  1  0.30203100  0.77792900  0.66231300  1
  H  312  1  0.30245600  0.73694500  0.66215500  1
  H  313  1  0.31676200  0.69810500  0.69756500  1
  H  314  1  0.33638300  0.67385700  0.67262100  1
  H  315  1  0.25278400  0.69928300  0.65828600  1
  H  316  1  0.27213300  0.67516800  0.63338600  1
  H  317  1  0.24980800  0.81982700  0.66276600  1
  H  318  1  0.26811100  0.84591400  0.63922900  1
  H  319  1  0.33672300  0.83850500  0.67153300  1
  H  320  1  0.31811700  0.81242800  0.69524100  1
  H  325  1  0.30776900  0.65539900  0.62134400  1
  H  326  1  0.12610100  0.65798400  0.79192200  1
  H  327  1  0.12416900  0.84102300  0.80283700  1
  H  328  1  0.30254900  0.86926500  0.63008900  1
  H  377  1  0.34828300  0.83220900  0.26326200  1
  H  378  1  0.32018400  0.81040200  0.24274200  1
  H  379  1  0.29332200  0.84120400  0.31105200  1
  H  380  1  0.26523700  0.81911800  0.29046400  1
  H  381  1  0.25989200  0.83888700  0.23912900  1
  H  382  1  0.22720000  0.83926300  0.20953600  1
  H  383  1  0.24184800  0.77631900  0.22497200  1
  H  384  1  0.24128400  0.73808100  0.22521800  1
  H  385  1  0.30863000  0.77711400  0.28364300  1
  H  386  1  0.30829600  0.73614200  0.28363300  1
  H  387  1  0.31437800  0.69684300  0.23897200  1
  H  388  1  0.34188000  0.67303300  0.25765500  1
  H  389  1  0.26844100  0.69986200  0.29405500  1
  H  390  1  0.29604800  0.67602800  0.31298500  1
  H  391  1  0.25869100  0.67516600  0.23851000  1
  H  392  1  0.22655100  0.67551100  0.20843300  1
  H  393  1  0.17981500  0.77821700  0.16253700  1
  H  394  1  0.17958800  0.73724600  0.16248000  1
  H  395  1  0.16525300  0.69876300  0.19787100  1
  H  396  1  0.14564800  0.67453600  0.17285400  1
  H  397  1  0.22947900  0.69964000  0.15899900  1
  H  398  1  0.21014600  0.67552000  0.13402400  1
  H  399  1  0.23192900  0.82023100  0.16302400  1
  H  400  1  0.21360100  0.84604200  0.13919000  1
  H  401  1  0.14490600  0.83859000  0.17122300  1
  H  402  1  0.16353800  0.81278800  0.19523000  1
  H  407  1  0.17409400  0.65637700  0.12153500  1
  H  408  1  0.35643700  0.65859400  0.29211700  1
  H  409  1  0.35773800  0.84206000  0.30295800  1
  H  410  1  0.17907800  0.86911100  0.12961000  1
  H  459  1  0.84832500  0.18172900  0.18786800  1
  H  460  1  0.82024200  0.20348700  0.20835400  1
  H  461  1  0.79348900  0.17302600  0.13980200  1
  H  462  1  0.76541800  0.19506500  0.16037200  1
  H  463  1  0.75990100  0.17515500  0.21179000  1
  H  464  1  0.72726300  0.17477900  0.24136500  1
  H  465  1  0.74213900  0.23772200  0.22609800  1
  H  466  1  0.74143400  0.27597700  0.22576700  1
  H  467  1  0.80878000  0.23697100  0.16745200  1
  H  468  1  0.80846500  0.27794000  0.16748900  1
  H  469  1  0.81458500  0.31729600  0.21206400  1
  H  470  1  0.84206100  0.34108900  0.19334000  1
  H  471  1  0.76852500  0.31414600  0.15697500  1
  H  472  1  0.79610000  0.33796100  0.13800800  1
  H  473  1  0.75889300  0.33888700  0.21250100  1
  H  474  1  0.72674900  0.33854600  0.24251100  1
  H  475  1  0.68003000  0.23579900  0.28836200  1
  H  476  1  0.67976800  0.27677500  0.28840400  1
  H  477  1  0.66539300  0.31528000  0.25305700  1
  H  478  1  0.64582800  0.33949200  0.27805800  1
  H  479  1  0.72967200  0.31446400  0.29198200  1
  H  480  1  0.71037600  0.33856200  0.31693700  1
  H  481  1  0.73210500  0.19372600  0.28792900  1
  H  482  1  0.71371200  0.16794200  0.31173800  1
  H  483  1  0.64499800  0.17553700  0.27965200  1
  H  484  1  0.66369300  0.20131000  0.25566900  1
  H  489  1  0.67442000  0.35777100  0.32936300  1
  H  490  1  0.85656400  0.35544300  0.15884300  1
  H  491  1  0.85794000  0.17201400  0.14825300  1
  H  492  1  0.67911300  0.14495200  0.32130700  1
  H  541  1  0.38414900  0.54410400  0.39956800  1
  H  542  1  0.41231100  0.52359200  0.42131400  1
  H  543  1  0.43846800  0.59274000  0.39181900  1
  H  544  1  0.46661700  0.57215400  0.41384600  1
  H  545  1  0.47257400  0.52062000  0.39351300  1
  H  546  1  0.50522600  0.49104100  0.39321200  1
  H  547  1  0.49012600  0.50616000  0.45612700  1
  H  548  1  0.49013900  0.50605300  0.49430100  1
  H  549  1  0.42278300  0.56425400  0.45516000  1
  H  550  1  0.42295600  0.56420400  0.49612900  1
  H  551  1  0.42053600  0.51928400  0.53908600  1
  H  552  1  0.39519900  0.53722000  0.56514300  1
  H  553  1  0.46185800  0.57651900  0.53007300  1
  H  554  1  0.43635600  0.59470800  0.55609900  1
  H  555  1  0.47465200  0.52084900  0.55723700  1
  H  556  1  0.50680900  0.49089200  0.55692900  1
  H  557  1  0.55217400  0.44381000  0.45438900  1
  H  558  1  0.55246100  0.44387900  0.49538500  1
  H  559  1  0.56705500  0.47967100  0.53384700  1
  H  560  1  0.58607000  0.45548900  0.55932000  1
  H  561  1  0.50272300  0.44082100  0.53329700  1
  H  562  1  0.52149400  0.41666500  0.55856500  1
  H  563  1  0.50014700  0.44441800  0.41218600  1
  H  564  1  0.51844700  0.42055600  0.38645000  1
  H  565  1  0.58727800  0.45241400  0.39411000  1
  H  566  1  0.56867200  0.47644700  0.41984600  1
  H  571  1  0.55465300  0.40819700  0.58324400  1
  H  572  1  0.38810200  0.56826100  0.58864300  1
  H  573  1  0.37425300  0.58396800  0.39050100  1
  H  574  1  0.55299400  0.41073300  0.36364200  1
  H  623  1  0.88396700  0.46960200  0.05092800  1
  H  624  1  0.91204100  0.49015600  0.02918000  1
  H  625  1  0.93857700  0.42134000  0.05917400  1
  H  626  1  0.96664400  0.44196600  0.03714100  1
  H  627  1  0.97241400  0.49339300  0.05728300  1
  H  628  1  0.00507400  0.52299500  0.05765400  1
  H  629  1  0.99008200  0.50782200  0.99470700  1
  H  630  1  0.99018300  0.50803400  0.95654200  1
  H  631  1  0.92274900  0.44967200  0.99545600  1
  H  632  1  0.92296100  0.44982600  0.95448500  1
  H  633  1  0.92039000  0.49483600  0.91179300  1
  H  634  1  0.89506500  0.47689900  0.88565100  1
  H  635  1  0.96201200  0.43774500  0.92055200  1
  H  636  1  0.93652900  0.41955700  0.89444500  1
  H  637  1  0.97459200  0.49336100  0.89357100  1
  H  638  1  0.00681500  0.52329600  0.89394900  1
  H  639  1  0.05212600  0.57026100  0.99666400  1
  H  640  1  0.05251900  0.57023900  0.95566800  1
  H  641  1  0.06708900  0.53441700  0.91705100  1
  H  642  1  0.08612400  0.55862100  0.89163100  1
  H  643  1  0.00291400  0.57338900  0.91770700  1
  H  644  1  0.02170800  0.59756700  0.89249600  1
  H  645  1  0.00000400  0.56967800  0.03848300  1
  H  646  1  0.01824900  0.59354700  0.06430800  1
  H  647  1  0.08699800  0.56152000  0.05714600  1
  H  648  1  0.06845500  0.53749000  0.03132400  1
  H  653  1  0.05485400  0.60612200  0.86792300  1
  H  654  1  0.88819400  0.44590600  0.86193900  1
  H  655  1  0.87426300  0.42981300  0.06027800  1
  H  656  1  0.05271200  0.60316400  0.08745900  1
  H  667  1  0.92239700  0.14550500  0.16517600  1
  H  668  1  0.82416300  0.12674600  0.10446200  1
  H  669  1  0.84864100  0.10488400  0.08079300  1
  H  671  1  0.96420500  0.11195200  0.12897300  1
  H  672  1  0.95885800  0.11428000  0.15717200  1
  H  673  1  0.96588700  0.13767400  0.14156900  1
  H  686  1  0.42226500  0.86857000  0.28597300  1
  H  687  1  0.32386400  0.88757900  0.34618900  1
  H  688  1  0.34830900  0.90951000  0.36989400  1
  H  690  1  0.46402800  0.90221400  0.32225800  1
  H  691  1  0.45877800  0.89979100  0.29404200  1
  H  692  1  0.46569100  0.87644600  0.30976100  1
  H  705  1  0.67123200  0.44344400  0.58061000  1
  H  706  1  0.57407000  0.38356100  0.60513000  1
  H  707  1  0.59909200  0.36158700  0.62784700  1
  H  709  1  0.71393100  0.41011800  0.61636500  1
  H  710  1  0.70843400  0.43803800  0.61189000  1
  H  711  1  0.71497000  0.42065100  0.58970000  1
  H  724  1  0.17127500  0.57056300  0.87026100  1
  H  725  1  0.07420800  0.63055000  0.84577300  1
  H  726  1  0.09922200  0.65250300  0.82305400  1
  H  728  1  0.21395400  0.60383600  0.83448200  1
  H  729  1  0.20838700  0.57592300  0.83895800  1
  H  730  1  0.21505200  0.59330000  0.86114600  1
  H  743  1  0.56217300  0.14976600  0.28946900  1
  H  744  1  0.65949600  0.12774900  0.35016400  1
  H  745  1  0.63488400  0.10446500  0.37217600  1
  H  747  1  0.52027500  0.11318600  0.32270100  1
  H  748  1  0.52598900  0.11751700  0.29479100  1
  H  749  1  0.51838600  0.13969400  0.31186400  1
  H  762  1  0.06220300  0.86447700  0.16143000  1
  H  763  1  0.15946300  0.88635900  0.10076300  1
  H  764  1  0.13488300  0.90970200  0.07876300  1
  H  766  1  0.02035900  0.90115000  0.12821000  1
  H  767  1  0.02612300  0.89679100  0.15611900  1
  H  768  1  0.01839700  0.87463900  0.13903000  1
  H  781  1  0.81169600  0.44366900  0.86704400  1
  H  782  1  0.90921600  0.38224600  0.84862400  1
  H  783  1  0.88517000  0.36004800  0.82469000  1
  H  785  1  0.77107300  0.41095200  0.82891400  1
  H  786  1  0.77691100  0.43879700  0.83354000  1
  H  787  1  0.76817600  0.42168100  0.85538400  1
  H  800  1  0.31169000  0.57040200  0.58371200  1
  H  801  1  0.40919100  0.63198500  0.60214900  1
  H  802  1  0.38517900  0.65415600  0.62605500  1
  H  804  1  0.27111700  0.60307900  0.62180200  1
  H  805  1  0.27696900  0.57523900  0.61719100  1
  H  806  1  0.26817400  0.59233100  0.59533500  1
  H  819  1  0.06048600  0.86809900  0.78509500  1
  H  820  1  0.15723700  0.88494800  0.84804500  1
  H  821  1  0.13229800  0.90612500  0.87200100  1
  H  823  1  0.01757900  0.89976500  0.82209000  1
  H  824  1  0.02330900  0.89856600  0.79387800  1
  H  825  1  0.01645800  0.87451800  0.80852000  1
  H  838  1  0.56029300  0.14591900  0.66582700  1
  H  839  1  0.65698300  0.12913700  0.60299000  1
  H  840  1  0.63198700  0.10799300  0.57897000  1
  H  842  1  0.51730400  0.11433800  0.62871000  1
  H  843  1  0.52304900  0.11548900  0.65693400  1
  H  844  1  0.51624200  0.13956300  0.64231800  1
  H  857  1  0.30957300  0.56739100  0.36427700  1
  H  858  1  0.40784800  0.62789100  0.34522900  1
  H  859  1  0.38329200  0.65166900  0.32348900  1
  H  861  1  0.26763000  0.60377500  0.33092800  1
  H  862  1  0.27291000  0.57555700  0.33321000  1
  H  863  1  0.26610100  0.59113600  0.35664700  1
  H  876  1  0.80970100  0.44658300  0.08656100  1
  H  877  1  0.90789900  0.38605200  0.10566300  1
  H  878  1  0.88336000  0.36232100  0.12744800  1
  H  880  1  0.76778600  0.41028100  0.11998700  1
  H  881  1  0.77312500  0.43849100  0.11766300  1
  H  882  1  0.76619700  0.42288500  0.09425300  1
  H  895  1  0.42023500  0.86303400  0.66022300  1
  H  896  1  0.32197000  0.88657100  0.60133900  1
  H  897  1  0.34638800  0.90948000  0.57902500  1
  H  899  1  0.46212400  0.89887900  0.62627000  1
  H  900  1  0.45716100  0.89442200  0.65426800  1
  H  901  1  0.46349300  0.87223200  0.63682100  1
  H  914  1  0.92035200  0.15120000  0.79059700  1
  H  915  1  0.82223300  0.12750000  0.84945200  1
  H  916  1  0.84671300  0.10459800  0.87174800  1
  H  918  1  0.96233100  0.11537600  0.82452700  1
  H  919  1  0.95729900  0.11984700  0.79653100  1
  H  920  1  0.96367100  0.14203200  0.81399600  1
  H  933  1  0.16963000  0.57130600  0.08311900  1
  H  934  1  0.07228000  0.63188400  0.10488600  1
  H  935  1  0.09681700  0.65383700  0.12830900  1
  H  937  1  0.21140600  0.60445700  0.11993000  1
  H  938  1  0.20567700  0.57655700  0.11552200  1
  H  939  1  0.21340100  0.59369700  0.09340700  1
  H  952  1  0.66994000  0.44274800  0.36792100  1
  H  953  1  0.57252100  0.38212800  0.34608700  1
  H  954  1  0.59700600  0.36017400  0.32270200  1
  H  956  1  0.71163600  0.40960700  0.33115800  1
  H  957  1  0.70592700  0.43750500  0.33555100  1
  H  958  1  0.71368300  0.42037800  0.35767700  1
  C  1  1  0.98037700  0.01472500  0.90732400  1
  C  2  1  0.99821500  0.99863800  0.90707500  1
  C  3  1  0.00356000  0.99273800  0.92842800  1
  C  5  1  0.97450200  0.01932900  0.92884700  1
  C  6  1  0.95664000  0.03494400  0.93563500  1
  C  7  1  0.95140900  0.03997200  0.95765500  1
  C  9  1  0.95195400  0.04007900  0.99407600  1
  C  10  1  0.93395000  0.05481700  0.98716800  1
  C  11  1  0.93365700  0.05478900  0.96483600  1
  C  12  1  0.95768800  0.03498700  0.01600800  1
  C  13  1  0.97537100  0.01899600  0.02234400  1
  C  15  1  0.00406300  0.99214200  0.02195700  1
  C  16  1  0.99845300  0.99704200  0.04348500  1
  C  17  1  0.98096500  0.01342600  0.04372100  1
  C  18  1  0.02092500  0.97570400  0.01513900  1
  C  19  1  0.02625100  0.97073700  0.99311200  1
  C  21  1  0.02612500  0.97092400  0.95665600  1
  C  22  1  0.04155400  0.95413300  0.96360700  1
  C  23  1  0.04170400  0.95406800  0.98594700  1
  C  24  1  0.02068700  0.97622300  0.93470700  1
  C  25  1  0.03268700  0.96368800  0.91808300  1
  C  26  1  0.05841000  0.96581000  0.91386900  1
  C  27  1  0.07015700  0.95322300  0.89778600  1
  C  28  1  0.05650600  0.93817300  0.88528200  1
  C  29  1  0.03079700  0.93605500  0.88948200  1
  C  30  1  0.01916400  0.94837400  0.90578800  1
  C  31  1  0.03208000  0.96214900  0.03131400  1
  C  32  1  0.05656500  0.96573900  0.03876900  1
  C  33  1  0.06816500  0.95097400  0.05301700  1
  C  34  1  0.05578200  0.93202100  0.06019200  1
  C  35  1  0.03113300  0.92874500  0.05278000  1
  C  36  1  0.01951100  0.94345700  0.03859900  1
  C  37  1  0.94329800  0.04559400  0.03245800  1
  C  38  1  0.92196100  0.03538000  0.04096000  1
  C  39  1  0.90572200  0.04657200  0.05488800  1
  C  40  1  0.91008600  0.06840400  0.06087400  1
  C  41  1  0.93177000  0.07844600  0.05262000  1
  C  42  1  0.94803700  0.06726900  0.03861000  1
  C  43  1  0.94166900  0.04542000  0.91950700  1
  C  44  1  0.91840200  0.03653400  0.91382600  1
  C  45  1  0.94811900  0.06586800  0.91087400  1
  C  46  1  0.93165800  0.07715400  0.89708100  1
  C  47  1  0.90808300  0.06850000  0.89161700  1
  C  48  1  0.90197400  0.04786400  0.90016400  1
  C  75  1  0.06687200  0.91645700  0.07360200  1
  C  76  1  0.89248400  0.07939900  0.07341400  1
  C  77  1  0.89047600  0.07974700  0.87924700  1
  C  78  1  0.06696500  0.92744900  0.86772200  1
  C  83  1  0.48011200  0.99942700  0.54350300  1
  C  84  1  0.49797800  0.01550700  0.54378000  1
  C  85  1  0.50326700  0.02144900  0.52243600  1
  C  87  1  0.47419900  0.99484900  0.52197100  1
  C  88  1  0.45629100  0.97925600  0.51515300  1
  C  89  1  0.45106500  0.97426800  0.49311400  1
  C  91  1  0.45163100  0.97425200  0.45669900  1
  C  92  1  0.43362800  0.95947200  0.46353300  1
  C  93  1  0.43331300  0.95945300  0.48586400  1
  C  94  1  0.45736400  0.97940600  0.43479400  1
  C  95  1  0.47508500  0.99537300  0.42848100  1
  C  97  1  0.50385300  0.02218500  0.42891300  1
  C  98  1  0.49816300  0.01734800  0.40737700  1
  C  99  1  0.48064300  0.00097200  0.40711200  1
  C  100  1  0.52078500  0.03858400  0.43576000  1
  C  101  1  0.52604300  0.04356000  0.45780600  1
  C  103  1  0.52582000  0.04334700  0.49425600  1
  C  104  1  0.54131800  0.06012300  0.48737800  1
  C  105  1  0.54153500  0.06020100  0.46503900  1
  C  106  1  0.52036600  0.03799400  0.51617800  1
  C  107  1  0.53238400  0.05048900  0.53283200  1
  C  108  1  0.55807200  0.04824100  0.53715400  1
  C  109  1  0.56984800  0.06078300  0.55328000  1
  C  110  1  0.55625500  0.07590400  0.56569800  1
  C  111  1  0.53057100  0.07812100  0.56141300  1
  C  112  1  0.51890900  0.06585600  0.54505500  1
  C  113  1  0.53196600  0.05215800  0.41962000  1
  C  114  1  0.55637900  0.04847800  0.41209400  1
  C  115  1  0.56800600  0.06322300  0.39784800  1
  C  116  1  0.55572800  0.08225300  0.39075000  1
  C  117  1  0.53114600  0.08562200  0.39823200  1
  C  118  1  0.51950300  0.07093400  0.41241800  1
  C  119  1  0.44294600  0.96884200  0.41832100  1
  C  120  1  0.42150500  0.97900200  0.40994700  1
  C  121  1  0.40525000  0.96780600  0.39600100  1
  C  122  1  0.40971100  0.94603100  0.38989000  1
  C  123  1  0.43152200  0.93606300  0.39799600  1
  C  124  1  0.44780500  0.94723900  0.41202800  1
  C  125  1  0.44131100  0.96875700  0.53124500  1
  C  126  1  0.41796900  0.97753700  0.53677800  1
  C  127  1  0.44781800  0.94836600  0.53998100  1
  C  128  1  0.43137400  0.93705500  0.55375300  1
  C  129  1  0.40773800  0.94561300  0.55908300  1
  C  130  1  0.40154900  0.96617900  0.55040800  1
  C  157  1  0.56683800  0.09778600  0.37731500  1
  C  158  1  0.39213300  0.93502900  0.37729800  1
  C  159  1  0.39014900  0.93434600  0.57144300  1
  C  160  1  0.56675100  0.08657500  0.58327400  1
  C  165  1  0.72976500  0.18933800  0.71847000  1
  C  166  1  0.74757100  0.18909900  0.73461700  1
  C  167  1  0.75371700  0.21047300  0.73978300  1
  C  169  1  0.72469100  0.21085800  0.71315000  1
  C  170  1  0.70705900  0.21767300  0.69732000  1
  C  171  1  0.70210400  0.23972000  0.69212800  1
  C  173  1  0.70273500  0.27614400  0.69206600  1
  C  174  1  0.68509800  0.26930100  0.67694600  1
  C  175  1  0.68476900  0.24697400  0.67693300  1
  C  176  1  0.70832900  0.29805400  0.69733500  1
  C  177  1  0.72581400  0.30441100  0.71348900  1
  C  179  1  0.75450600  0.30402900  0.74036900  1
  C  180  1  0.74852300  0.32554800  0.73574600  1
  C  181  1  0.73104500  0.32578100  0.71932800  1
  C  182  1  0.77158100  0.29720700  0.75666500  1
  C  183  1  0.77702400  0.27516800  0.76149200  1
  C  185  1  0.77679000  0.23872100  0.76125900  1
  C  186  1  0.79259600  0.24560100  0.77783300  1
  C  187  1  0.79280800  0.26793900  0.77792600  1
  C  188  1  0.77103900  0.21680400  0.75611800  1
  C  189  1  0.78213500  0.20026200  0.76933600  1
  C  190  1  0.80744200  0.19451300  0.76726200  1
  C  191  1  0.81844300  0.17923400  0.78133300  1
  C  192  1  0.80453000  0.16909500  0.79796200  1
  C  193  1  0.77915600  0.17490100  0.79983100  1
  C  194  1  0.76820400  0.19024800  0.78591500  1
  C  195  1  0.78268100  0.31333200  0.77031700  1
  C  196  1  0.80696000  0.32117200  0.76654700  1
  C  197  1  0.81852900  0.33542000  0.78133500  1
  C  198  1  0.80633200  0.34219600  0.80050200  1
  C  199  1  0.78187000  0.33441600  0.80394700  1
  C  200  1  0.77027100  0.32024900  0.78920700  1
  C  201  1  0.69389200  0.31449200  0.68676700  1
  C  202  1  0.67225800  0.32257800  0.69680100  1
  C  203  1  0.65604800  0.33654500  0.68560200  1
  C  204  1  0.66072000  0.34293000  0.66393400  1
  C  205  1  0.68268700  0.33506900  0.65407800  1
  C  206  1  0.69894900  0.32104300  0.66527100  1
  C  207  1  0.69214800  0.20162000  0.68664000  1
  C  208  1  0.66801900  0.19705000  0.69435400  1
  C  209  1  0.69943200  0.19253400  0.66661100  1
  C  210  1  0.68284500  0.17966300  0.65441100  1
  C  211  1  0.65841000  0.17563000  0.66180000  1
  C  212  1  0.65141900  0.18437900  0.68208100  1
  C  239  1  0.81737600  0.35565300  0.81605900  1
  C  240  1  0.64309200  0.35538900  0.65286100  1
  C  241  1  0.64044200  0.16587200  0.64881400  1
  C  242  1  0.81455300  0.15370200  0.81217200  1
  C  247  1  0.22980000  0.82470500  0.73239900  1
  C  248  1  0.24755800  0.82495100  0.71624700  1
  C  249  1  0.25368800  0.80358200  0.71108200  1
  C  251  1  0.22471700  0.80318400  0.73772000  1
  C  252  1  0.20711200  0.79637200  0.75355200  1
  C  253  1  0.20217000  0.77431000  0.75871500  1
  C  255  1  0.20279300  0.73787700  0.75874100  1
  C  256  1  0.18521300  0.74469700  0.77387800  1
  C  257  1  0.18487200  0.76702500  0.77390000  1
  C  258  1  0.20836800  0.71596900  0.75346500  1
  C  259  1  0.22584600  0.70962500  0.73733400  1
  C  261  1  0.25452900  0.71001700  0.71048600  1
  C  262  1  0.24854600  0.68849800  0.71512000  1
  C  263  1  0.23108100  0.68825800  0.73151500  1
  C  264  1  0.27159800  0.71683800  0.69420700  1
  C  265  1  0.27702100  0.73889200  0.68939900  1
  C  267  1  0.27673500  0.77534900  0.68962300  1
  C  268  1  0.29248500  0.76848800  0.67303600  1
  C  269  1  0.29274700  0.74615000  0.67296100  1
  C  270  1  0.27098900  0.79726400  0.69476400  1
  C  271  1  0.28205500  0.81381500  0.68153800  1
  C  272  1  0.30737800  0.81957300  0.68358700  1
  C  273  1  0.31834700  0.83484500  0.66949600  1
  C  274  1  0.30439200  0.84497500  0.65286900  1
  C  275  1  0.27900300  0.83916200  0.65102700  1
  C  276  1  0.26808000  0.82382000  0.66496100  1
  C  277  1  0.28270100  0.70071300  0.68056600  1
  C  278  1  0.30704900  0.69299200  0.68427200  1
  C  279  1  0.31861300  0.67877200  0.66947800  1
  C  280  1  0.30634000  0.67187700  0.65035900  1
  C  281  1  0.28181600  0.67953600  0.64697500  1
  C  282  1  0.27023800  0.69369300  0.66170900  1
  C  283  1  0.19397800  0.69951200  0.76405900  1
  C  284  1  0.17232100  0.69138900  0.75402800  1
  C  285  1  0.15610900  0.67745400  0.76525500  1
  C  286  1  0.16081500  0.67111200  0.78694000  1
  C  287  1  0.18281000  0.67900200  0.79678900  1
  C  288  1  0.19908300  0.69298700  0.78556300  1
  C  289  1  0.19224700  0.81241900  0.76426500  1
  C  290  1  0.16809600  0.81700200  0.75657200  1
  C  291  1  0.19959400  0.82151600  0.78429400  1
  C  292  1  0.18308100  0.83443500  0.79648400  1
  C  293  1  0.15860900  0.83843900  0.78913600  1
  C  294  1  0.15154600  0.82966100  0.76886400  1
  C  321  1  0.31734900  0.65841200  0.63480000  1
  C  322  1  0.14318000  0.65868700  0.79803400  1
  C  323  1  0.14066900  0.84819800  0.80213200  1
  C  324  1  0.31438100  0.86036000  0.63863600  1
  C  329  1  0.25201600  0.82533500  0.23257500  1
  C  330  1  0.23419900  0.82552300  0.21643800  1
  C  331  1  0.22804900  0.80413600  0.21134800  1
  C  333  1  0.25712700  0.80383000  0.23794200  1
  C  334  1  0.27482300  0.79706000  0.25373700  1
  C  335  1  0.27986800  0.77503400  0.25897400  1
  C  337  1  0.27940500  0.73860100  0.25911600  1
  C  338  1  0.29703300  0.74553400  0.27419900  1
  C  339  1  0.29724100  0.76786400  0.27417700  1
  C  340  1  0.27387300  0.71666000  0.25392600  1
  C  341  1  0.25632700  0.71026700  0.23783200  1
  C  343  1  0.22756400  0.71057600  0.21100200  1
  C  344  1  0.23350800  0.68907000  0.21572100  1
  C  345  1  0.25103800  0.68888000  0.23209800  1
  C  346  1  0.21048900  0.71735400  0.19468700  1
  C  347  1  0.20491800  0.73936900  0.18984500  1
  C  349  1  0.20499600  0.77581500  0.18999200  1
  C  350  1  0.18927800  0.76885000  0.17339300  1
  C  351  1  0.18917200  0.74651500  0.17334300  1
  C  352  1  0.21072500  0.79775900  0.19503100  1
  C  353  1  0.19965300  0.81423900  0.18171000  1
  C  354  1  0.17429600  0.81989900  0.18358100  1
  C  355  1  0.16331000  0.83500800  0.16931200  1
  C  356  1  0.17727600  0.84505700  0.15265900  1
  C  357  1  0.20270000  0.83935400  0.15100300  1
  C  358  1  0.21363700  0.82417300  0.16511300  1
  C  359  1  0.19942700  0.70118500  0.18107700  1
  C  360  1  0.17502000  0.69357200  0.18466000  1
  C  361  1  0.16347500  0.67936200  0.16982800  1
  C  362  1  0.17584500  0.67238500  0.15081700  1
  C  363  1  0.20042300  0.67994500  0.14755100  1
  C  364  1  0.21198700  0.69409400  0.16232600  1
  C  365  1  0.28839500  0.70025600  0.26450100  1
  C  366  1  0.30991600  0.69206900  0.25435700  1
  C  367  1  0.32621000  0.67812800  0.26550800  1
  C  368  1  0.32172300  0.67182100  0.28722900  1
  C  369  1  0.29986200  0.67976900  0.29719700  1
  C  370  1  0.28352900  0.69378600  0.28605800  1
  C  371  1  0.28974800  0.81316300  0.26431100  1
  C  372  1  0.31396200  0.81752100  0.25667700  1
  C  373  1  0.28233600  0.82257600  0.28415000  1
  C  374  1  0.29887400  0.83559000  0.29624600  1
  C  375  1  0.32341300  0.83934400  0.28897400  1
  C  376  1  0.33052900  0.83030300  0.26885900  1
  C  403  1  0.16480000  0.65901300  0.13520000  1
  C  404  1  0.33935500  0.65924400  0.29818800  1
  C  405  1  0.34129600  0.84928200  0.30189600  1
  C  406  1  0.16727200  0.86026900  0.13823600  1
  C  411  1  0.75204200  0.18870700  0.21832900  1
  C  412  1  0.73423900  0.18851800  0.23444600  1
  C  413  1  0.72818700  0.20990600  0.23958900  1
  C  415  1  0.75722500  0.21021100  0.21300500  1
  C  416  1  0.77494700  0.21697600  0.19725000  1
  C  417  1  0.78000600  0.23901200  0.19205200  1
  C  419  1  0.77956300  0.27545400  0.19194000  1
  C  420  1  0.79719500  0.26853700  0.17689500  1
  C  421  1  0.79740600  0.24620700  0.17691000  1
  C  422  1  0.77404700  0.29739800  0.19712000  1
  C  423  1  0.75650500  0.30378900  0.21318200  1
  C  425  1  0.72774200  0.30348100  0.23997100  1
  C  426  1  0.73370500  0.32498600  0.23525000  1
  C  427  1  0.75121400  0.32517400  0.21888800  1
  C  428  1  0.71065000  0.29671000  0.25625700  1
  C  429  1  0.70516100  0.27468300  0.26113500  1
  C  431  1  0.70526700  0.23822600  0.26099600  1
  C  432  1  0.68957800  0.24517800  0.27758400  1
  C  433  1  0.68945200  0.26751500  0.27762700  1
  C  434  1  0.71093000  0.21628000  0.25592500  1
  C  435  1  0.69982500  0.19979200  0.26921800  1
  C  436  1  0.67444400  0.19417100  0.26732100  1
  C  437  1  0.66342100  0.17908000  0.28157900  1
  C  438  1  0.67736700  0.16900500  0.29824800  1
  C  439  1  0.70281700  0.17465700  0.29992000  1
  C  440  1  0.71379800  0.18981100  0.28581200  1
  C  441  1  0.69960100  0.31287900  0.26986700  1
  C  442  1  0.67518100  0.32047100  0.26627900  1
  C  443  1  0.66365600  0.33467800  0.28110200  1
  C  444  1  0.67604500  0.34167800  0.30012600  1
  C  445  1  0.70063300  0.33413700  0.30339800  1
  C  446  1  0.71217000  0.31998500  0.28863800  1
  C  447  1  0.78855000  0.31380800  0.18653400  1
  C  448  1  0.81010000  0.32202800  0.19666600  1
  C  449  1  0.82637600  0.33596000  0.18549000  1
  C  450  1  0.82184600  0.34222500  0.16375400  1
  C  451  1  0.79993400  0.33427400  0.15381100  1
  C  452  1  0.78362300  0.32025900  0.16497000  1
  C  453  1  0.78984200  0.20087200  0.18666800  1
  C  454  1  0.81403200  0.19644300  0.19436100  1
  C  455  1  0.78249700  0.19157200  0.16673200  1
  C  456  1  0.79903000  0.17858000  0.15464700  1
  C  457  1  0.82353000  0.17473100  0.16200600  1
  C  458  1  0.83060000  0.18369000  0.18219000  1
  C  485  1  0.66503900  0.35506600  0.31573700  1
  C  486  1  0.83946300  0.35479400  0.15277500  1
  C  487  1  0.84145600  0.16482900  0.14912000  1
  C  488  1  0.66732100  0.15381200  0.31267000  1
  C  493  1  0.48038800  0.51404300  0.40708500  1
  C  494  1  0.49820200  0.49792600  0.40693800  1
  C  495  1  0.50419100  0.49272700  0.42834000  1
  C  497  1  0.47512700  0.51930800  0.42858200  1
  C  498  1  0.45732300  0.53500100  0.43530400  1
  C  499  1  0.45209500  0.54013100  0.45732200  1
  C  501  1  0.45246500  0.54030000  0.49377300  1
  C  502  1  0.43449500  0.55502000  0.48677900  1
  C  503  1  0.43436900  0.55501000  0.46444500  1
  C  504  1  0.45813900  0.53527400  0.51573300  1
  C  505  1  0.47593300  0.51936700  0.52210500  1
  C  507  1  0.50481400  0.49264800  0.52184000  1
  C  508  1  0.49940500  0.49779700  0.54334400  1
  C  509  1  0.48186600  0.51413200  0.54350500  1
  C  510  1  0.52181000  0.47626500  0.51513900  1
  C  511  1  0.52718600  0.47123000  0.49314600  1
  C  513  1  0.52705400  0.47127600  0.45670200  1
  C  514  1  0.54265200  0.45462700  0.46372500  1
  C  515  1  0.54280200  0.45464800  0.48606400  1
  C  516  1  0.52142500  0.47636000  0.43474200  1
  C  517  1  0.53249000  0.46302500  0.41828400  1
  C  518  1  0.55787800  0.46483300  0.41270100  1
  C  519  1  0.56885000  0.45054500  0.39762900  1
  C  520  1  0.55484400  0.43392600  0.38753700  1
  C  521  1  0.52939000  0.43233200  0.39317300  1
  C  522  1  0.51846200  0.44647100  0.40830100  1
  C  523  1  0.53291100  0.46277600  0.53140400  1
  C  524  1  0.55723300  0.46653400  0.53918300  1
  C  525  1  0.56844900  0.45218100  0.55408500  1
  C  526  1  0.55580000  0.43351700  0.56163800  1
  C  527  1  0.53140600  0.42996000  0.55372800  1
  C  528  1  0.52018900  0.44423900  0.53887600  1
  C  529  1  0.44393500  0.54603300  0.53224300  1
  C  530  1  0.42426200  0.53512200  0.54271800  1
  C  531  1  0.40928000  0.54580200  0.55805200  1
  C  532  1  0.41308100  0.56789000  0.56336900  1
  C  533  1  0.43279500  0.57878300  0.55277800  1
  C  534  1  0.44795900  0.56805000  0.53753300  1
  C  535  1  0.44245800  0.54557800  0.41914800  1
  C  536  1  0.41841100  0.53770900  0.41444900  1
  C  537  1  0.44967000  0.56566300  0.41010400  1
  C  538  1  0.43307000  0.57778000  0.39716900  1
  C  539  1  0.40870000  0.57024600  0.39303800  1
  C  540  1  0.40179400  0.54990100  0.40172600  1
  C  567  1  0.56606200  0.41885500  0.57647600  1
  C  568  1  0.39771700  0.57781400  0.57873700  1
  C  569  1  0.39069100  0.58315000  0.38325800  1
  C  570  1  0.56482800  0.41947100  0.37236000  1
  C  575  1  0.98024600  0.49996600  0.04373000  1
  C  576  1  0.99804700  0.51611100  0.04391500  1
  C  577  1  0.00406300  0.52129500  0.02252400  1
  C  579  1  0.97500600  0.49468900  0.02222200  1
  C  580  1  0.95719500  0.47898600  0.01546300  1
  C  581  1  0.95199600  0.47389000  0.99342300  1
  C  583  1  0.95241000  0.47381100  0.95698000  1
  C  584  1  0.93447100  0.45901700  0.96389000  1
  C  585  1  0.93430000  0.45899000  0.98622400  1
  C  586  1  0.95810800  0.47889400  0.93504900  1
  C  587  1  0.97592800  0.49479100  0.92870800  1
  C  589  1  0.00486500  0.52148500  0.92903300  1
  C  590  1  0.99941400  0.51637600  0.90751700  1
  C  591  1  0.98184200  0.50005100  0.90732000  1
  C  592  1  0.02190300  0.53784800  0.93577300  1
  C  593  1  0.02725300  0.54285200  0.95778500  1
  C  595  1  0.02700600  0.54277600  0.99422200  1
  C  596  1  0.04263500  0.55944100  0.98728000  1
  C  597  1  0.04287900  0.55942500  0.96494100  1
  C  598  1  0.02131600  0.53766000  0.01615300  1
  C  599  1  0.03232500  0.55100600  0.03263800  1
  C  600  1  0.05766900  0.54913800  0.03838300  1
  C  601  1  0.06860200  0.56342600  0.05349800  1
  C  602  1  0.05459000  0.58008200  0.06346400  1
  C  603  1  0.02917900  0.58173500  0.05767000  1
  C  604  1  0.01828900  0.56759900  0.04249300  1
  C  605  1  0.03301500  0.55136400  0.91954400  1
  C  606  1  0.05730000  0.54758200  0.91174400  1
  C  607  1  0.06853300  0.56195100  0.89687600  1
  C  608  1  0.05594000  0.58065700  0.88936500  1
  C  609  1  0.03158400  0.58424300  0.89729900  1
  C  610  1  0.02035500  0.56995200  0.91212300  1
  C  611  1  0.94392400  0.46815100  0.91850000  1
  C  612  1  0.92418400  0.47903400  0.90807900  1
  C  613  1  0.90921100  0.46835700  0.89270400  1
  C  614  1  0.91311400  0.44631200  0.88730300  1
  C  615  1  0.93290600  0.43545300  0.89783500  1
  C  616  1  0.94806200  0.44618400  0.91311800  1
  C  617  1  0.94233200  0.46836700  0.03158000  1
  C  618  1  0.91823100  0.47612700  0.03616100  1
  C  619  1  0.94964000  0.44837100  0.04076100  1
  C  620  1  0.93310900  0.43625100  0.05374800  1
  C  621  1  0.90866800  0.44364700  0.05771800  1
  C  622  1  0.90165300  0.46389500  0.04887300  1
  C  649  1  0.06621900  0.59534800  0.87456400  1
  C  650  1  0.89776600  0.43637900  0.87191300  1
  C  651  1  0.89071200  0.43070700  0.06753000  1
  C  652  1  0.06454500  0.59451200  0.07868800  1
  C  657  1  0.85324100  0.13550800  0.12581600  1
  C  658  1  0.87893400  0.13219800  0.12980000  1
  C  659  1  0.89351400  0.11914300  0.11564900  1
  C  660  1  0.88274900  0.10866600  0.09757100  1
  C  661  1  0.85708800  0.11191100  0.09384800  1
  C  662  1  0.84266400  0.12490300  0.10777200  1
  C  664  1  0.92945900  0.12572000  0.13768200  1
  C  665  1  0.91490800  0.13834700  0.15176800  1
  C  670  1  0.95615000  0.12218100  0.14154500  1
  C  676  1  0.35300400  0.87877400  0.32498600  1
  C  677  1  0.37871400  0.88203900  0.32109800  1
  C  678  1  0.39327100  0.89513000  0.33526800  1
  C  679  1  0.38245100  0.90566800  0.35325500  1
  C  680  1  0.35677900  0.90244500  0.35689200  1
  C  681  1  0.34237800  0.88941500  0.34295300  1
  C  683  1  0.42927800  0.88844800  0.31343200  1
  C  684  1  0.41474800  0.87578300  0.29931900  1
  C  689  1  0.45599200  0.89194900  0.30968400  1
  C  695  1  0.60249900  0.40526400  0.59511500  1
  C  696  1  0.62820000  0.40939200  0.59769300  1
  C  697  1  0.64318500  0.39618000  0.61141200  1
  C  698  1  0.63282400  0.37865100  0.62305400  1
  C  699  1  0.60720700  0.37446300  0.62022400  1
  C  700  1  0.59240200  0.38747600  0.60663100  1
  C  702  1  0.67883300  0.41769600  0.60251600  1
  C  703  1  0.66392900  0.43068300  0.58898500  1
  C  708  1  0.70559300  0.42183900  0.60530100  1
  C  714  1  0.10260700  0.60882500  0.85579700  1
  C  715  1  0.12828700  0.60466900  0.85320000  1
  C  716  1  0.14326700  0.61786400  0.83947300  1
  C  717  1  0.13292300  0.63540500  0.82782900  1
  C  718  1  0.10732600  0.63962100  0.83067700  1
  C  719  1  0.09252600  0.62662400  0.84427900  1
  C  721  1  0.17888000  0.59630200  0.84835100  1
  C  722  1  0.16398300  0.58333300  0.86188900  1
  C  727  1  0.20561800  0.59212500  0.84555100  1
  C  733  1  0.63084000  0.13718900  0.32844600  1
  C  734  1  0.60520500  0.13421400  0.32429500  1
  C  735  1  0.59047500  0.12036400  0.33757100  1
  C  736  1  0.60100300  0.10939500  0.35554000  1
  C  737  1  0.62660900  0.11223100  0.35942800  1
  C  738  1  0.64116400  0.12596400  0.34633100  1
  C  740  1  0.55493700  0.12793100  0.31534400  1
  C  741  1  0.56954600  0.14175300  0.30243700  1
  C  746  1  0.52835500  0.12435300  0.31094600  1
  C  752  1  0.13081900  0.87695500  0.12246600  1
  C  753  1  0.10520700  0.87997200  0.12661900  1
  C  754  1  0.09049800  0.89385600  0.11335200  1
  C  755  1  0.10102600  0.90481200  0.09539200  1
  C  756  1  0.12661300  0.90194100  0.09150400  1
  C  757  1  0.14114600  0.88817300  0.10459300  1
  C  759  1  0.05498400  0.88633900  0.13556500  1
  C  760  1  0.06957400  0.87248300  0.14846600  1
  C  765  1  0.02842600  0.88996100  0.13996000  1
  C  771  1  0.88052400  0.40428800  0.85643800  1
  C  772  1  0.85506600  0.40876500  0.85263500  1
  C  773  1  0.84076000  0.39552300  0.83841900  1
  C  774  1  0.85144700  0.37727700  0.82807800  1
  C  775  1  0.87681300  0.37302200  0.83195500  1
  C  776  1  0.89095600  0.38606000  0.84609700  1
  C  778  1  0.80516000  0.41799300  0.84481300  1
  C  779  1  0.81927600  0.43071500  0.85919300  1
  C  784  1  0.77880200  0.42259600  0.84038500  1
  C  790  1  0.38052100  0.60987900  0.59432800  1
  C  791  1  0.35506600  0.60538200  0.59812400  1
  C  792  1  0.34077200  0.61861500  0.61232700  1
  C  793  1  0.35145200  0.63688800  0.62267400  1
  C  794  1  0.37681400  0.64116300  0.61880100  1
  C  795  1  0.39094000  0.62813800  0.60466700  1
  C  797  1  0.30517900  0.59608400  0.60592200  1
  C  798  1  0.31927300  0.58337900  0.59155400  1
  C  803  1  0.27883200  0.59144000  0.61033900  1
  C  809  1  0.12867500  0.87711100  0.82583600  1
  C  810  1  0.10310400  0.88066900  0.82152800  1
  C  811  1  0.08818900  0.89323200  0.83588400  1
  C  812  1  0.09861100  0.90307300  0.85458200  1
  C  813  1  0.12408600  0.89944300  0.85862400  1
  C  814  1  0.13883000  0.88698300  0.84446200  1
  C  816  1  0.05264200  0.88674400  0.81320800  1
  C  817  1  0.06763500  0.87488800  0.79883200  1
  C  822  1  0.02594800  0.89011100  0.80922100  1
  C  828  1  0.62843900  0.13692400  0.62517000  1
  C  829  1  0.60286600  0.13338400  0.62944700  1
  C  830  1  0.58792200  0.12085300  0.61505100  1
  C  831  1  0.59832900  0.11105000  0.59635600  1
  C  832  1  0.62380300  0.11466400  0.59234500  1
  C  833  1  0.63857500  0.12709800  0.60654100  1
  C  835  1  0.55239700  0.12732300  0.63767300  1
  C  836  1  0.56742100  0.13914800  0.65209200  1
  C  841  1  0.52569700  0.12396500  0.64160800  1
  C  847  1  0.37876800  0.60658900  0.35405400  1
  C  848  1  0.35304300  0.60267300  0.35083700  1
  C  849  1  0.33841400  0.61689000  0.33785500  1
  C  850  1  0.34916200  0.63496200  0.32736400  1
  C  851  1  0.37485400  0.63861900  0.33052500  1
  C  852  1  0.38932700  0.62463000  0.34344200  1
  C  854  1  0.30245100  0.59494300  0.34454700  1
  C  855  1  0.31705000  0.58079100  0.35710100  1
  C  860  1  0.27572400  0.59116200  0.34111200  1
  C  866  1  0.87883700  0.40735500  0.09680500  1
  C  867  1  0.85313200  0.41128600  0.10002900  1
  C  868  1  0.83851300  0.39709800  0.11304200  1
  C  869  1  0.84925200  0.37903500  0.12356000  1
  C  870  1  0.87492600  0.37536300  0.12039200  1
  C  871  1  0.88938900  0.38932400  0.10744600  1
  C  873  1  0.80258000  0.41906500  0.10633600  1
  C  874  1  0.81716900  0.43318700  0.09375200  1
  C  879  1  0.77587300  0.42287300  0.10978100  1
  C  885  1  0.35076000  0.87717800  0.62293100  1
  C  886  1  0.37651500  0.87985900  0.62668900  1
  C  887  1  0.39116400  0.89362600  0.61325300  1
  C  888  1  0.38043400  0.90514000  0.59578900  1
  C  889  1  0.35478000  0.90206000  0.59188600  1
  C  890  1  0.34030100  0.88842900  0.60513400  1
  C  892  1  0.42724300  0.88492200  0.63433800  1
  C  893  1  0.41265600  0.87135400  0.64754100  1
  C  898  1  0.45406000  0.88780200  0.63811700  1
  C  904  1  0.85097700  0.13695400  0.82788200  1
  C  905  1  0.87672100  0.13430300  0.82411700  1
  C  906  1  0.89140400  0.12054200  0.83754100  1
  C  907  1  0.88071500  0.10900900  0.85499500  1
  C  908  1  0.85506900  0.11204300  0.85889500  1
  C  909  1  0.84055700  0.12567000  0.84566000  1
  C  911  1  0.92742800  0.12930100  0.81646800  1
  C  912  1  0.91280700  0.14286200  0.80327200  1
  C  917  1  0.95423600  0.12645300  0.81268900  1
  C  923  1  0.10095900  0.61022100  0.09550600  1
  C  924  1  0.12657400  0.60606500  0.09856700  1
  C  925  1  0.14125500  0.61930400  0.11250000  1
  C  926  1  0.13069600  0.63723700  0.12345200  1
  C  927  1  0.10510900  0.64112400  0.12053800  1
  C  928  1  0.09060000  0.62806200  0.10672500  1
  C  930  1  0.17680100  0.59712300  0.10503400  1
  C  931  1  0.16223700  0.58424600  0.09112800  1
  C  936  1  0.20335900  0.59272900  0.10870700  1
  C  942  1  0.60122000  0.40380700  0.35550500  1
  C  943  1  0.62683800  0.40795900  0.35245500  1
  C  944  1  0.64149300  0.39471500  0.33854100  1
  C  945  1  0.63091800  0.37676900  0.32757600  1
  C  946  1  0.60532500  0.37289200  0.33047400  1
  C  947  1  0.59084300  0.38595500  0.34427300  1
  C  949  1  0.67706100  0.41692300  0.34602900  1
  C  950  1  0.66252800  0.42979500  0.35991900  1
  C  955  1  0.70361500  0.42133300  0.34237000  1
  N  4  1  0.98902800  0.00583100  0.94076500  1
  N  8  1  0.96192600  0.03170000  0.97578200  1
  N  14  1  0.98996900  0.00595400  0.01002300  1
  N  20  1  0.01744000  0.98035500  0.97495000  1
  N  86  1  0.48873200  0.00835000  0.51007200  1
  N  90  1  0.46159300  0.98259800  0.47503300  1
  N  96  1  0.48975100  0.00836800  0.44082400  1
  N  102  1  0.51715300  0.03394000  0.47592500  1
  N  168  1  0.73969500  0.22278800  0.72623900  1
  N  172  1  0.71241900  0.25781500  0.70065800  1
  N  178  1  0.74058800  0.29210100  0.72641400  1
  N  184  1  0.76798100  0.25705000  0.75196000  1
  N  250  1  0.23967900  0.79126200  0.72462200  1
  N  254  1  0.21245800  0.75622600  0.75017100  1
  N  260  1  0.24060300  0.72193900  0.72441100  1
  N  266  1  0.26798100  0.75700000  0.69892500  1
  N  332  1  0.24210000  0.79186100  0.22491300  1
  N  336  1  0.26961100  0.75688400  0.25051000  1
  N  342  1  0.24152900  0.72254300  0.22488800  1
  N  348  1  0.21385000  0.75753400  0.19935900  1
  N  414  1  0.74224700  0.22217900  0.22604100  1
  N  418  1  0.76975900  0.25715600  0.20050800  1
  N  424  1  0.74170900  0.29151600  0.22611900  1
  N  430  1  0.71408500  0.25652200  0.25163100  1
  N  496  1  0.49007600  0.50624100  0.44058400  1
  N  500  1  0.46247300  0.53185400  0.47551400  1
  N  506  1  0.49043900  0.50618900  0.50984200  1
  N  512  1  0.51831300  0.48074200  0.47495200  1
  N  578  1  0.98996000  0.50776800  0.01025100  1
  N  582  1  0.96238500  0.48223200  0.97528300  1
  N  588  1  0.99047200  0.50794200  0.94100200  1
  N  594  1  0.01830800  0.53332400  0.97593300  1
  N  663  1  0.91804000  0.11660800  0.12031000  1
  N  666  1  0.89046800  0.14100700  0.14730500  1
  N  674  1  0.83792000  0.14715400  0.13845100  1
  N  675  1  0.89721100  0.09647100  0.08470700  1
  N  682  1  0.41782100  0.89763100  0.33071700  1
  N  685  1  0.39028500  0.87315700  0.30367800  1
  N  693  1  0.33772900  0.86706700  0.31234900  1
  N  694  1  0.39688000  0.91789500  0.36613200  1
  N  701  1  0.66774800  0.40102700  0.61312400  1
  N  704  1  0.63941200  0.42606600  0.58710700  1
  N  712  1  0.58924100  0.41803000  0.58171400  1
  N  713  1  0.64760200  0.36625300  0.63546400  1
  N  720  1  0.16781000  0.61298400  0.83774900  1
  N  723  1  0.13948700  0.58798000  0.86377900  1
  N  731  1  0.08935300  0.59606200  0.86919900  1
  N  732  1  0.14770600  0.64779000  0.81541500  1
  N  739  1  0.56613300  0.11786700  0.33228700  1
  N  742  1  0.59392000  0.14428200  0.30732700  1
  N  750  1  0.64388500  0.15056500  0.31551300  1
  N  751  1  0.58847500  0.09586700  0.36859900  1
  N  758  1  0.06617800  0.89639300  0.11863100  1
  N  761  1  0.09392600  0.86991400  0.14358100  1
  N  769  1  0.14384100  0.86355500  0.13539100  1
  N  770  1  0.08852000  0.91836700  0.08234400  1
  N  777  1  0.81659100  0.40097500  0.83513400  1
  N  780  1  0.84346700  0.42565700  0.86247400  1
  N  788  1  0.89499400  0.41572300  0.86997000  1
  N  789  1  0.83916100  0.36418600  0.81439100  1
  N  796  1  0.31661600  0.61312600  0.61559900  1
  N  799  1  0.34345800  0.58846700  0.58829100  1
  N  807  1  0.39498700  0.59846500  0.58079000  1
  N  808  1  0.33919100  0.64997600  0.63637200  1
  N  815  1  0.06369300  0.89535200  0.83099400  1
  N  818  1  0.09201200  0.87232700  0.80357500  1
  N  826  1  0.14415800  0.86571000  0.81309700  1
  N  827  1  0.08610500  0.91499700  0.86920600  1
  N  834  1  0.56342200  0.11873700  0.61989100  1
  N  837  1  0.59180200  0.14170300  0.64739400  1
  N  845  1  0.64392900  0.14833300  0.63791400  1
  N  846  1  0.58579500  0.09913900  0.58173100  1
  N  853  1  0.31385600  0.61230400  0.33540800  1
  N  856  1  0.34152000  0.58518400  0.35967200  1
  N  864  1  0.39413900  0.59389900  0.36561800  1
  N  865  1  0.33466300  0.64787000  0.31521400  1
  N  872  1  0.81397500  0.40171000  0.11549500  1
  N  875  1  0.84162100  0.42877200  0.09117500  1
  N  883  1  0.89419300  0.42003600  0.08521900  1
  N  884  1  0.83475700  0.36614700  0.13572900  1
  N  891  1  0.41579800  0.89544900  0.61779100  1
  N  894  1  0.38807600  0.86936400  0.64324700  1
  N  902  1  0.33780900  0.86366600  0.63579100  1
  N  903  1  0.39498900  0.91763400  0.58325000  1
  N  910  1  0.91602600  0.11874900  0.83300600  1
  N  913  1  0.88823700  0.14482500  0.80756800  1
  N  921  1  0.83799000  0.15045400  0.81503200  1
  N  922  1  0.89529200  0.09651800  0.86752300  1
  N  929  1  0.16557900  0.61403000  0.11508400  1
  N  932  1  0.13788300  0.58913200  0.08851200  1
  N  940  1  0.08796500  0.59731600  0.08207200  1
  N  941  1  0.14317200  0.65024300  0.13706000  1
  N  948  1  0.66581400  0.40000500  0.33597500  1
  N  951  1  0.63817400  0.42490100  0.36251200  1
  N  959  1  0.58824100  0.41673000  0.36892400  1
  N  960  1  0.64336100  0.36375800  0.31395900  1
