# generated using pymatgen
data_ZnH14(C13O2)2
_symmetry_space_group_name_H-M   'P 1'
_cell_length_a   33.10563000
_cell_length_b   33.10563000
_cell_length_c   33.10563000
_cell_angle_alpha   90.00771000
_cell_angle_beta   89.99229000
_cell_angle_gamma   89.99229000
_symmetry_Int_Tables_number   1
_chemical_formula_structural   ZnH14(C13O2)2
_chemical_formula_sum   'Zn24 H336 C624 O96'
_cell_volume   36283.19801498
_cell_formula_units_Z   24
loop_
 _symmetry_equiv_pos_site_id
 _symmetry_equiv_pos_as_xyz
  1  'x, y, z'
loop_
 _atom_site_type_symbol
 _atom_site_label
 _atom_site_symmetry_multiplicity
 _atom_site_fract_x
 _atom_site_fract_y
 _atom_site_fract_z
 _atom_site_occupancy
  Zn  Zn0  1  0.24965000  0.24993000  0.03982000  1
  Zn  Zn1  1  0.24974000  0.24985000  0.45982000  1
  Zn  Zn2  1  0.75007000  0.03982000  0.75035000  1
  Zn  Zn3  1  0.75015000  0.45982000  0.75026000  1
  Zn  Zn4  1  0.96018000  0.75035000  0.24993000  1
  Zn  Zn5  1  0.54018000  0.75026000  0.24985000  1
  Zn  Zn6  1  0.24962000  0.24950000  0.54039000  1
  Zn  Zn7  1  0.24982000  0.24986000  0.96019000  1
  Zn  Zn8  1  0.03981000  0.75018000  0.24986000  1
  Zn  Zn9  1  0.45961000  0.75037000  0.24950000  1
  Zn  Zn10  1  0.75014000  0.96019000  0.75018000  1
  Zn  Zn11  1  0.75050000  0.54039000  0.75037000  1
  Zn  Zn12  1  0.75037000  0.75050000  0.45961000  1
  Zn  Zn13  1  0.75017000  0.75015000  0.03981000  1
  Zn  Zn14  1  0.96019000  0.24983000  0.75015000  1
  Zn  Zn15  1  0.54039000  0.24963000  0.75050000  1
  Zn  Zn16  1  0.24985000  0.03981000  0.24983000  1
  Zn  Zn17  1  0.24950000  0.45961000  0.24963000  1
  Zn  Zn18  1  0.75034000  0.75007000  0.96018000  1
  Zn  Zn19  1  0.75026000  0.75016000  0.54018000  1
  Zn  Zn20  1  0.24993000  0.96018000  0.24966000  1
  Zn  Zn21  1  0.24984000  0.54019000  0.24974000  1
  Zn  Zn22  1  0.03981000  0.24966000  0.75007000  1
  Zn  Zn23  1  0.45981000  0.24975000  0.75016000  1
  H  H24  1  0.14744000  0.18084000  0.05098000  1
  H  H25  1  0.09336000  0.14647000  0.09104000  1
  H  H26  1  0.03456000  0.10044000  0.09356000  1
  H  H27  1  0.03418000  0.09233000  0.96357000  1
  H  H28  1  0.08423000  0.13097000  0.92380000  1
  H  H29  1  0.14572000  0.17456000  0.92150000  1
  H  H30  1  0.96674000  0.08375000  0.97774000  1
  H  H31  1  0.35306000  0.31874000  0.05078000  1
  H  H32  1  0.40660000  0.35388000  0.09069000  1
  H  H33  1  0.46524000  0.40005000  0.09313000  1
  H  H34  1  0.46569000  0.40798000  0.96317000  1
  H  H35  1  0.41525000  0.36936000  0.92345000  1
  H  H36  1  0.35433000  0.32518000  0.92128000  1
  H  H37  1  0.53291000  0.41703000  0.97722000  1
  H  H38  1  0.14736000  0.31877000  0.44949000  1
  H  H39  1  0.09363000  0.35414000  0.40937000  1
  H  H40  1  0.03511000  0.40030000  0.40703000  1
  H  H41  1  0.03423000  0.40737000  0.53707000  1
  H  H42  1  0.08423000  0.36873000  0.57670000  1
  H  H43  1  0.14537000  0.32466000  0.57897000  1
  H  H44  1  0.96690000  0.41685000  0.52300000  1
  H  H45  1  0.35151000  0.17985000  0.44964000  1
  H  H46  1  0.40569000  0.14558000  0.40950000  1
  H  H47  1  0.46481000  0.10019000  0.40698000  1
  H  H48  1  0.46578000  0.09252000  0.53693000  1
  H  H49  1  0.41524000  0.13059000  0.57674000  1
  H  H50  1  0.35357000  0.17379000  0.57917000  1
  H  H51  1  0.53305000  0.08347000  0.52263000  1
  H  H52  1  0.81916000  0.05099000  0.85256000  1
  H  H53  1  0.85353000  0.09104000  0.90664000  1
  H  H54  1  0.89956000  0.09356000  0.96544000  1
  H  H55  1  0.90767000  0.96357000  0.96581000  1
  H  H56  1  0.86903000  0.92380000  0.91576000  1
  H  H57  1  0.82544000  0.92150000  0.85428000  1
  H  H58  1  0.91625000  0.97774000  0.03326000  1
  H  H59  1  0.68126000  0.05078000  0.64694000  1
  H  H60  1  0.64612000  0.09069000  0.59340000  1
  H  H61  1  0.59995000  0.09314000  0.53476000  1
  H  H62  1  0.59203000  0.96317000  0.53431000  1
  H  H63  1  0.63064000  0.92345000  0.58475000  1
  H  H64  1  0.67482000  0.92128000  0.64567000  1
  H  H65  1  0.58297000  0.97722000  0.46709000  1
  H  H66  1  0.68123000  0.44950000  0.85264000  1
  H  H67  1  0.64586000  0.40937000  0.90637000  1
  H  H68  1  0.59970000  0.40703000  0.96489000  1
  H  H69  1  0.59263000  0.53707000  0.96577000  1
  H  H70  1  0.63127000  0.57670000  0.91577000  1
  H  H71  1  0.67534000  0.57897000  0.85463000  1
  H  H72  1  0.58315000  0.52300000  0.03309000  1
  H  H73  1  0.82015000  0.44964000  0.64849000  1
  H  H74  1  0.85442000  0.40950000  0.59431000  1
  H  H75  1  0.89981000  0.40698000  0.53519000  1
  H  H76  1  0.90748000  0.53693000  0.53422000  1
  H  H77  1  0.86941000  0.57674000  0.58476000  1
  H  H78  1  0.82621000  0.57917000  0.64643000  1
  H  H79  1  0.91653000  0.52263000  0.46695000  1
  H  H80  1  0.94902000  0.85256000  0.18084000  1
  H  H81  1  0.90896000  0.90664000  0.14647000  1
  H  H82  1  0.90644000  0.96544000  0.10044000  1
  H  H83  1  0.03643000  0.96581000  0.09233000  1
  H  H84  1  0.07620000  0.91576000  0.13096000  1
  H  H85  1  0.07850000  0.85428000  0.17456000  1
  H  H86  1  0.02226000  0.03326000  0.08375000  1
  H  H87  1  0.94922000  0.64694000  0.31874000  1
  H  H88  1  0.90931000  0.59340000  0.35388000  1
  H  H89  1  0.90686000  0.53476000  0.40005000  1
  H  H90  1  0.03683000  0.53431000  0.40797000  1
  H  H91  1  0.07655000  0.58475000  0.36936000  1
  H  H92  1  0.07872000  0.64567000  0.32518000  1
  H  H93  1  0.02278000  0.46709000  0.41703000  1
  H  H94  1  0.55050000  0.85264000  0.31876000  1
  H  H95  1  0.59063000  0.90637000  0.35413000  1
  H  H96  1  0.59297000  0.96489000  0.40030000  1
  H  H97  1  0.46293000  0.96577000  0.40737000  1
  H  H98  1  0.42330000  0.91577000  0.36873000  1
  H  H99  1  0.42103000  0.85463000  0.32466000  1
  H  H100  1  0.47700000  0.03310000  0.41685000  1
  H  H101  1  0.55036000  0.64849000  0.17985000  1
  H  H102  1  0.59050000  0.59431000  0.14558000  1
  H  H103  1  0.59302000  0.53519000  0.10019000  1
  H  H104  1  0.46307000  0.53422000  0.09252000  1
  H  H105  1  0.42326000  0.58476000  0.13059000  1
  H  H106  1  0.42083000  0.64643000  0.17379000  1
  H  H107  1  0.47737000  0.46695000  0.08347000  1
  H  H108  1  0.18074000  0.14773000  0.55026000  1
  H  H109  1  0.14592000  0.09372000  0.59055000  1
  H  H110  1  0.09994000  0.03502000  0.59291000  1
  H  H111  1  0.09256000  0.03418000  0.46299000  1
  H  H112  1  0.13131000  0.08389000  0.42328000  1
  H  H113  1  0.17509000  0.14529000  0.42073000  1
  H  H114  1  0.08336000  0.96696000  0.47711000  1
  H  H115  1  0.31926000  0.35233000  0.55186000  1
  H  H116  1  0.35478000  0.40575000  0.59169000  1
  H  H117  1  0.40094000  0.46436000  0.59395000  1
  H  H118  1  0.40796000  0.46509000  0.46398000  1
  H  H119  1  0.36909000  0.41485000  0.42433000  1
  H  H120  1  0.32476000  0.35401000  0.42232000  1
  H  H121  1  0.41629000  0.53216000  0.47767000  1
  H  H122  1  0.31860000  0.14681000  0.94899000  1
  H  H123  1  0.35355000  0.09308000  0.90903000  1
  H  H124  1  0.39964000  0.03449000  0.90655000  1
  H  H125  1  0.40775000  0.03403000  0.03647000  1
  H  H126  1  0.36930000  0.08453000  0.07622000  1
  H  H127  1  0.32529000  0.14559000  0.07857000  1
  H  H128  1  0.41681000  0.96687000  0.02263000  1
  H  H129  1  0.18064000  0.35267000  0.94930000  1
  H  H130  1  0.14591000  0.40615000  0.90924000  1
  H  H131  1  0.10015000  0.46514000  0.90660000  1
  H  H132  1  0.09199000  0.46603000  0.03648000  1
  H  H133  1  0.13046000  0.41559000  0.07644000  1
  H  H134  1  0.17448000  0.35452000  0.07889000  1
  H  H135  1  0.08394000  0.53337000  0.02200000  1
  H  H136  1  0.05070000  0.81936000  0.35267000  1
  H  H137  1  0.09076000  0.85409000  0.40615000  1
  H  H138  1  0.09340000  0.89985000  0.46514000  1
  H  H139  1  0.96352000  0.90801000  0.46603000  1
  H  H140  1  0.92356000  0.86954000  0.41559000  1
  H  H141  1  0.92111000  0.82552000  0.35452000  1
  H  H142  1  0.97800000  0.91606000  0.53337000  1
  H  H143  1  0.05101000  0.68140000  0.14681000  1
  H  H144  1  0.09096000  0.64645000  0.09308000  1
  H  H145  1  0.09345000  0.60036000  0.03449000  1
  H  H146  1  0.96353000  0.59225000  0.03403000  1
  H  H147  1  0.92378000  0.63070000  0.08453000  1
  H  H148  1  0.92143000  0.67471000  0.14559000  1
  H  H149  1  0.97737000  0.58319000  0.96687000  1
  H  H150  1  0.44814000  0.68074000  0.35233000  1
  H  H151  1  0.40831000  0.64522000  0.40575000  1
  H  H152  1  0.40604000  0.59906000  0.46436000  1
  H  H153  1  0.53602000  0.59204000  0.46509000  1
  H  H154  1  0.57567000  0.63091000  0.41485000  1
  H  H155  1  0.57768000  0.67524000  0.35401000  1
  H  H156  1  0.52233000  0.58371000  0.53215000  1
  H  H157  1  0.44974000  0.81926000  0.14773000  1
  H  H158  1  0.40945000  0.85408000  0.09371000  1
  H  H159  1  0.40709000  0.90006000  0.03502000  1
  H  H160  1  0.53701000  0.90744000  0.03418000  1
  H  H161  1  0.57672000  0.86869000  0.08389000  1
  H  H162  1  0.57927000  0.82491000  0.14529000  1
  H  H163  1  0.52288000  0.91665000  0.96696000  1
  H  H164  1  0.85319000  0.94899000  0.68140000  1
  H  H165  1  0.90692000  0.90903000  0.64645000  1
  H  H166  1  0.96551000  0.90655000  0.60036000  1
  H  H167  1  0.96597000  0.03647000  0.59225000  1
  H  H168  1  0.91547000  0.07622000  0.63070000  1
  H  H169  1  0.85441000  0.07857000  0.67471000  1
  H  H170  1  0.03313000  0.02263000  0.58319000  1
  H  H171  1  0.64733000  0.94930000  0.81936000  1
  H  H172  1  0.59385000  0.90924000  0.85408000  1
  H  H173  1  0.53486000  0.90660000  0.89985000  1
  H  H174  1  0.53397000  0.03648000  0.90801000  1
  H  H175  1  0.58441000  0.07644000  0.86954000  1
  H  H176  1  0.64548000  0.07889000  0.82552000  1
  H  H177  1  0.46663000  0.02200000  0.91606000  1
  H  H178  1  0.85227000  0.55026000  0.81926000  1
  H  H179  1  0.90628000  0.59055000  0.85408000  1
  H  H180  1  0.96498000  0.59291000  0.90006000  1
  H  H181  1  0.96582000  0.46299000  0.90744000  1
  H  H182  1  0.91611000  0.42328000  0.86869000  1
  H  H183  1  0.85471000  0.42073000  0.82491000  1
  H  H184  1  0.03304000  0.47712000  0.91664000  1
  H  H185  1  0.64767000  0.55186000  0.68074000  1
  H  H186  1  0.59425000  0.59169000  0.64522000  1
  H  H187  1  0.53564000  0.59396000  0.59906000  1
  H  H188  1  0.53491000  0.46398000  0.59204000  1
  H  H189  1  0.58515000  0.42433000  0.63091000  1
  H  H190  1  0.64599000  0.42232000  0.67523000  1
  H  H191  1  0.46784000  0.47767000  0.58371000  1
  H  H192  1  0.81926000  0.85228000  0.44974000  1
  H  H193  1  0.85407000  0.90629000  0.40946000  1
  H  H194  1  0.90006000  0.96498000  0.40709000  1
  H  H195  1  0.90744000  0.96582000  0.53701000  1
  H  H196  1  0.86868000  0.91611000  0.57672000  1
  H  H197  1  0.82491000  0.85471000  0.57927000  1
  H  H198  1  0.91664000  0.03304000  0.52289000  1
  H  H199  1  0.68074000  0.64767000  0.44814000  1
  H  H200  1  0.64521000  0.59425000  0.40831000  1
  H  H201  1  0.59905000  0.53564000  0.40605000  1
  H  H202  1  0.59203000  0.53492000  0.53602000  1
  H  H203  1  0.63091000  0.58516000  0.57567000  1
  H  H204  1  0.67523000  0.64600000  0.57769000  1
  H  H205  1  0.58371000  0.46785000  0.52233000  1
  H  H206  1  0.68140000  0.85319000  0.05101000  1
  H  H207  1  0.64645000  0.90692000  0.09097000  1
  H  H208  1  0.60036000  0.96551000  0.09345000  1
  H  H209  1  0.59225000  0.96597000  0.96353000  1
  H  H210  1  0.63070000  0.91548000  0.92378000  1
  H  H211  1  0.67471000  0.85441000  0.92143000  1
  H  H212  1  0.58318000  0.03314000  0.97737000  1
  H  H213  1  0.81935000  0.64733000  0.05070000  1
  H  H214  1  0.85408000  0.59386000  0.09076000  1
  H  H215  1  0.89985000  0.53487000  0.09340000  1
  H  H216  1  0.90801000  0.53398000  0.96353000  1
  H  H217  1  0.86954000  0.58441000  0.92356000  1
  H  H218  1  0.82552000  0.64548000  0.92111000  1
  H  H219  1  0.91606000  0.46663000  0.97800000  1
  H  H220  1  0.94930000  0.18065000  0.64733000  1
  H  H221  1  0.90924000  0.14592000  0.59386000  1
  H  H222  1  0.90660000  0.10015000  0.53487000  1
  H  H223  1  0.03647000  0.09199000  0.53397000  1
  H  H224  1  0.07644000  0.13046000  0.58441000  1
  H  H225  1  0.07889000  0.17448000  0.64548000  1
  H  H226  1  0.02199000  0.08394000  0.46663000  1
  H  H227  1  0.94899000  0.31860000  0.85319000  1
  H  H228  1  0.90903000  0.35355000  0.90692000  1
  H  H229  1  0.90654000  0.39964000  0.96551000  1
  H  H230  1  0.03647000  0.40775000  0.96597000  1
  H  H231  1  0.07622000  0.36930000  0.91548000  1
  H  H232  1  0.07856000  0.32529000  0.85441000  1
  H  H233  1  0.02263000  0.41681000  0.03313000  1
  H  H234  1  0.55186000  0.31926000  0.64767000  1
  H  H235  1  0.59169000  0.35479000  0.59425000  1
  H  H236  1  0.59395000  0.40095000  0.53564000  1
  H  H237  1  0.46398000  0.40797000  0.53492000  1
  H  H238  1  0.42433000  0.36909000  0.58516000  1
  H  H239  1  0.42231000  0.32477000  0.64600000  1
  H  H240  1  0.47767000  0.41629000  0.46785000  1
  H  H241  1  0.55026000  0.18074000  0.85227000  1
  H  H242  1  0.59054000  0.14593000  0.90629000  1
  H  H243  1  0.59291000  0.09995000  0.96498000  1
  H  H244  1  0.46299000  0.09257000  0.96582000  1
  H  H245  1  0.42328000  0.13132000  0.91611000  1
  H  H246  1  0.42073000  0.17509000  0.85471000  1
  H  H247  1  0.47711000  0.08336000  0.03304000  1
  H  H248  1  0.14681000  0.05101000  0.31860000  1
  H  H249  1  0.09308000  0.09097000  0.35355000  1
  H  H250  1  0.03449000  0.09346000  0.39964000  1
  H  H251  1  0.03403000  0.96353000  0.40775000  1
  H  H252  1  0.08452000  0.92378000  0.36930000  1
  H  H253  1  0.14559000  0.92144000  0.32529000  1
  H  H254  1  0.96687000  0.97737000  0.41681000  1
  H  H255  1  0.35267000  0.05070000  0.18065000  1
  H  H256  1  0.40614000  0.09076000  0.14592000  1
  H  H257  1  0.46513000  0.09340000  0.10015000  1
  H  H258  1  0.46603000  0.96353000  0.09199000  1
  H  H259  1  0.41559000  0.92356000  0.13046000  1
  H  H260  1  0.35452000  0.92111000  0.17448000  1
  H  H261  1  0.53337000  0.97800000  0.08394000  1
  H  H262  1  0.14772000  0.44974000  0.18074000  1
  H  H263  1  0.09371000  0.40946000  0.14592000  1
  H  H264  1  0.03502000  0.40709000  0.09994000  1
  H  H265  1  0.03418000  0.53701000  0.09256000  1
  H  H266  1  0.08389000  0.57672000  0.13132000  1
  H  H267  1  0.14529000  0.57927000  0.17509000  1
  H  H268  1  0.96696000  0.52289000  0.08336000  1
  H  H269  1  0.35233000  0.44814000  0.31926000  1
  H  H270  1  0.40575000  0.40831000  0.35479000  1
  H  H271  1  0.46436000  0.40605000  0.40095000  1
  H  H272  1  0.46508000  0.53602000  0.40797000  1
  H  H273  1  0.41484000  0.57567000  0.36909000  1
  H  H274  1  0.35400000  0.57769000  0.32477000  1
  H  H275  1  0.53215000  0.52233000  0.41629000  1
  H  H276  1  0.85255000  0.81916000  0.94902000  1
  H  H277  1  0.90663000  0.85353000  0.90897000  1
  H  H278  1  0.96543000  0.89957000  0.90645000  1
  H  H279  1  0.96581000  0.90767000  0.03643000  1
  H  H280  1  0.91576000  0.86904000  0.07621000  1
  H  H281  1  0.85428000  0.82544000  0.07850000  1
  H  H282  1  0.03326000  0.91625000  0.02226000  1
  H  H283  1  0.64694000  0.68126000  0.94923000  1
  H  H284  1  0.59340000  0.64612000  0.90931000  1
  H  H285  1  0.53475000  0.59995000  0.90687000  1
  H  H286  1  0.53430000  0.59203000  0.03683000  1
  H  H287  1  0.58475000  0.63064000  0.07655000  1
  H  H288  1  0.64566000  0.67482000  0.07872000  1
  H  H289  1  0.46709000  0.58297000  0.02278000  1
  H  H290  1  0.85264000  0.68124000  0.55051000  1
  H  H291  1  0.90637000  0.64587000  0.59063000  1
  H  H292  1  0.96489000  0.59970000  0.59297000  1
  H  H293  1  0.96577000  0.59263000  0.46294000  1
  H  H294  1  0.91577000  0.63128000  0.42330000  1
  H  H295  1  0.85463000  0.67534000  0.42104000  1
  H  H296  1  0.03309000  0.58315000  0.47700000  1
  H  H297  1  0.64849000  0.82016000  0.55037000  1
  H  H298  1  0.59431000  0.85442000  0.59050000  1
  H  H299  1  0.53518000  0.89981000  0.59303000  1
  H  H300  1  0.53422000  0.90748000  0.46308000  1
  H  H301  1  0.58476000  0.86941000  0.42326000  1
  H  H302  1  0.64643000  0.82622000  0.42083000  1
  H  H303  1  0.46695000  0.91653000  0.47737000  1
  H  H304  1  0.18084000  0.94902000  0.14744000  1
  H  H305  1  0.14647000  0.90897000  0.09336000  1
  H  H306  1  0.10043000  0.90645000  0.03456000  1
  H  H307  1  0.09233000  0.03643000  0.03419000  1
  H  H308  1  0.13096000  0.07621000  0.08424000  1
  H  H309  1  0.17456000  0.07850000  0.14572000  1
  H  H310  1  0.08375000  0.02227000  0.96674000  1
  H  H311  1  0.31874000  0.94923000  0.35306000  1
  H  H312  1  0.35388000  0.90931000  0.40660000  1
  H  H313  1  0.40005000  0.90687000  0.46524000  1
  H  H314  1  0.40797000  0.03683000  0.46570000  1
  H  H315  1  0.36936000  0.07656000  0.41525000  1
  H  H316  1  0.32518000  0.07872000  0.35434000  1
  H  H317  1  0.41703000  0.02278000  0.53291000  1
  H  H318  1  0.31876000  0.55051000  0.14736000  1
  H  H319  1  0.35413000  0.59063000  0.09363000  1
  H  H320  1  0.40030000  0.59297000  0.03511000  1
  H  H321  1  0.40737000  0.46294000  0.03423000  1
  H  H322  1  0.36872000  0.42330000  0.08423000  1
  H  H323  1  0.32466000  0.42104000  0.14537000  1
  H  H324  1  0.41685000  0.47700000  0.96691000  1
  H  H325  1  0.17984000  0.55037000  0.35151000  1
  H  H326  1  0.14558000  0.59050000  0.40569000  1
  H  H327  1  0.10019000  0.59303000  0.46482000  1
  H  H328  1  0.09252000  0.46308000  0.46578000  1
  H  H329  1  0.13059000  0.42326000  0.41524000  1
  H  H330  1  0.17378000  0.42083000  0.35357000  1
  H  H331  1  0.08347000  0.47737000  0.53305000  1
  H  H332  1  0.05098000  0.14745000  0.81916000  1
  H  H333  1  0.09103000  0.09337000  0.85353000  1
  H  H334  1  0.09355000  0.03457000  0.89957000  1
  H  H335  1  0.96357000  0.03419000  0.90767000  1
  H  H336  1  0.92379000  0.08424000  0.86904000  1
  H  H337  1  0.92150000  0.14572000  0.82544000  1
  H  H338  1  0.97774000  0.96674000  0.91625000  1
  H  H339  1  0.05077000  0.35306000  0.68126000  1
  H  H340  1  0.09069000  0.40660000  0.64612000  1
  H  H341  1  0.09313000  0.46525000  0.59995000  1
  H  H342  1  0.96317000  0.46570000  0.59203000  1
  H  H343  1  0.92344000  0.41525000  0.63064000  1
  H  H344  1  0.92128000  0.35434000  0.67482000  1
  H  H345  1  0.97722000  0.53291000  0.58297000  1
  H  H346  1  0.44949000  0.14736000  0.68124000  1
  H  H347  1  0.40937000  0.09363000  0.64587000  1
  H  H348  1  0.40702000  0.03512000  0.59970000  1
  H  H349  1  0.53706000  0.03423000  0.59263000  1
  H  H350  1  0.57670000  0.08423000  0.63128000  1
  H  H351  1  0.57896000  0.14537000  0.67534000  1
  H  H352  1  0.52300000  0.96691000  0.58315000  1
  H  H353  1  0.44963000  0.35151000  0.82016000  1
  H  H354  1  0.40950000  0.40569000  0.85442000  1
  H  H355  1  0.40697000  0.46482000  0.89981000  1
  H  H356  1  0.53692000  0.46578000  0.90748000  1
  H  H357  1  0.57674000  0.41525000  0.86941000  1
  H  H358  1  0.57917000  0.35357000  0.82622000  1
  H  H359  1  0.52263000  0.53305000  0.91653000  1
  C  C360  1  0.18686000  0.20591000  0.98587000  1
  C  C361  1  0.15007000  0.18003000  0.98646000  1
  C  C362  1  0.13326000  0.16978000  0.02349000  1
  C  C363  1  0.09843000  0.14522000  0.02576000  1
  C  C364  1  0.08060000  0.13426000  0.06328000  1
  C  C365  1  0.04785000  0.10864000  0.06464000  1
  C  C366  1  0.03064000  0.09268000  0.02853000  1
  C  C367  1  0.04666000  0.10443000  0.99150000  1
  C  C368  1  0.08056000  0.13050000  0.98908000  1
  C  C369  1  0.09815000  0.14187000  0.95150000  1
  C  C370  1  0.13208000  0.16596000  0.95012000  1
  C  C371  1  0.99782000  0.06245000  0.03080000  1
  C  C372  1  0.96708000  0.06122000  0.00165000  1
  C  C373  1  0.31350000  0.29327000  0.98588000  1
  C  C374  1  0.35021000  0.31937000  0.98628000  1
  C  C375  1  0.36703000  0.32991000  0.02323000  1
  C  C376  1  0.40161000  0.35484000  0.02540000  1
  C  C377  1  0.41936000  0.36598000  0.06290000  1
  C  C378  1  0.45202000  0.39171000  0.06423000  1
  C  C379  1  0.46917000  0.40766000  0.02812000  1
  C  C380  1  0.45315000  0.39589000  0.99108000  1
  C  C381  1  0.41932000  0.36970000  0.98870000  1
  C  C382  1  0.40164000  0.35820000  0.95120000  1
  C  C383  1  0.36794000  0.33375000  0.94992000  1
  C  C384  1  0.50192000  0.43795000  0.03047000  1
  C  C385  1  0.53261000  0.43939000  0.00130000  1
  C  C386  1  0.18671000  0.29340000  0.51491000  1
  C  C387  1  0.14986000  0.31929000  0.51407000  1
  C  C388  1  0.13319000  0.32979000  0.47701000  1
  C  C389  1  0.09852000  0.35464000  0.47473000  1
  C  C390  1  0.08086000  0.36606000  0.43724000  1
  C  C391  1  0.04824000  0.39186000  0.43595000  1
  C  C392  1  0.03093000  0.40764000  0.47210000  1
  C  C393  1  0.04680000  0.39553000  0.50907000  1
  C  C394  1  0.08059000  0.36929000  0.51141000  1
  C  C395  1  0.09802000  0.35769000  0.54899000  1
  C  C396  1  0.13180000  0.33338000  0.55036000  1
  C  C397  1  0.99812000  0.43791000  0.46986000  1
  C  C398  1  0.96728000  0.43921000  0.49893000  1
  C  C399  1  0.31207000  0.20495000  0.51496000  1
  C  C400  1  0.34891000  0.17912000  0.51420000  1
  C  C401  1  0.36575000  0.16894000  0.47715000  1
  C  C402  1  0.40080000  0.14466000  0.47482000  1
  C  C403  1  0.41864000  0.13372000  0.43730000  1
  C  C404  1  0.45159000  0.10837000  0.43592000  1
  C  C405  1  0.46902000  0.09258000  0.47198000  1
  C  C406  1  0.45304000  0.10439000  0.50903000  1
  C  C407  1  0.41891000  0.13017000  0.51146000  1
  C  C408  1  0.40127000  0.14143000  0.54905000  1
  C  C409  1  0.36712000  0.16521000  0.55050000  1
  C  C410  1  0.50181000  0.06231000  0.46960000  1
  C  C411  1  0.53262000  0.06100000  0.49866000  1
  C  C412  1  0.79409000  0.98587000  0.81314000  1
  C  C413  1  0.81997000  0.98646000  0.84992000  1
  C  C414  1  0.83022000  0.02349000  0.86674000  1
  C  C415  1  0.85478000  0.02576000  0.90157000  1
  C  C416  1  0.86574000  0.06328000  0.91940000  1
  C  C417  1  0.89136000  0.06464000  0.95215000  1
  C  C418  1  0.90732000  0.02853000  0.96936000  1
  C  C419  1  0.89557000  0.99150000  0.95334000  1
  C  C420  1  0.86950000  0.98909000  0.91944000  1
  C  C421  1  0.85813000  0.95150000  0.90185000  1
  C  C422  1  0.83404000  0.95012000  0.86791000  1
  C  C423  1  0.93755000  0.03080000  0.00218000  1
  C  C424  1  0.93878000  0.00165000  0.03292000  1
  C  C425  1  0.70673000  0.98588000  0.68650000  1
  C  C426  1  0.68063000  0.98628000  0.64979000  1
  C  C427  1  0.67009000  0.02323000  0.63297000  1
  C  C428  1  0.64516000  0.02540000  0.59839000  1
  C  C429  1  0.63402000  0.06290000  0.58064000  1
  C  C430  1  0.60829000  0.06423000  0.54798000  1
  C  C431  1  0.59234000  0.02812000  0.53083000  1
  C  C432  1  0.60411000  0.99108000  0.54685000  1
  C  C433  1  0.63030000  0.98870000  0.58068000  1
  C  C434  1  0.64180000  0.95120000  0.59836000  1
  C  C435  1  0.66625000  0.94992000  0.63206000  1
  C  C436  1  0.56205000  0.03047000  0.49808000  1
  C  C437  1  0.56061000  0.00130000  0.46739000  1
  C  C438  1  0.70660000  0.51491000  0.81329000  1
  C  C439  1  0.68071000  0.51407000  0.85014000  1
  C  C440  1  0.67021000  0.47701000  0.86681000  1
  C  C441  1  0.64536000  0.47473000  0.90148000  1
  C  C442  1  0.63394000  0.43724000  0.91914000  1
  C  C443  1  0.60814000  0.43595000  0.95176000  1
  C  C444  1  0.59236000  0.47210000  0.96907000  1
  C  C445  1  0.60447000  0.50907000  0.95320000  1
  C  C446  1  0.63071000  0.51141000  0.91941000  1
  C  C447  1  0.64231000  0.54899000  0.90198000  1
  C  C448  1  0.66662000  0.55036000  0.86820000  1
  C  C449  1  0.56209000  0.46986000  0.00188000  1
  C  C450  1  0.56079000  0.49893000  0.03272000  1
  C  C451  1  0.79505000  0.51496000  0.68793000  1
  C  C452  1  0.82088000  0.51420000  0.65109000  1
  C  C453  1  0.83106000  0.47715000  0.63425000  1
  C  C454  1  0.85534000  0.47482000  0.59920000  1
  C  C455  1  0.86628000  0.43730000  0.58136000  1
  C  C456  1  0.89163000  0.43592000  0.54841000  1
  C  C457  1  0.90742000  0.47198000  0.53098000  1
  C  C458  1  0.89561000  0.50903000  0.54696000  1
  C  C459  1  0.86983000  0.51146000  0.58109000  1
  C  C460  1  0.85857000  0.54905000  0.59873000  1
  C  C461  1  0.83479000  0.55050000  0.63288000  1
  C  C462  1  0.93769000  0.46960000  0.49819000  1
  C  C463  1  0.93900000  0.49866000  0.46738000  1
  C  C464  1  0.01413000  0.81314000  0.20590000  1
  C  C465  1  0.01354000  0.84993000  0.18003000  1
  C  C466  1  0.97651000  0.86674000  0.16978000  1
  C  C467  1  0.97424000  0.90157000  0.14522000  1
  C  C468  1  0.93672000  0.91940000  0.13426000  1
  C  C469  1  0.93536000  0.95215000  0.10864000  1
  C  C470  1  0.97147000  0.96936000  0.09267000  1
  C  C471  1  0.00850000  0.95334000  0.10443000  1
  C  C472  1  0.01092000  0.91944000  0.13049000  1
  C  C473  1  0.04850000  0.90185000  0.14187000  1
  C  C474  1  0.04988000  0.86792000  0.16596000  1
  C  C475  1  0.96920000  0.00218000  0.06245000  1
  C  C476  1  0.99835000  0.03292000  0.06122000  1
  C  C477  1  0.01412000  0.68650000  0.29327000  1
  C  C478  1  0.01372000  0.64979000  0.31937000  1
  C  C479  1  0.97677000  0.63297000  0.32991000  1
  C  C480  1  0.97460000  0.59839000  0.35484000  1
  C  C481  1  0.93710000  0.58064000  0.36598000  1
  C  C482  1  0.93577000  0.54798000  0.39170000  1
  C  C483  1  0.97188000  0.53083000  0.40766000  1
  C  C484  1  0.00892000  0.54685000  0.39588000  1
  C  C485  1  0.01130000  0.58068000  0.36970000  1
  C  C486  1  0.04880000  0.59836000  0.35820000  1
  C  C487  1  0.05008000  0.63206000  0.33375000  1
  C  C488  1  0.96953000  0.49808000  0.43795000  1
  C  C489  1  0.99870000  0.46739000  0.43939000  1
  C  C490  1  0.48509000  0.81329000  0.29340000  1
  C  C491  1  0.48593000  0.85014000  0.31929000  1
  C  C492  1  0.52299000  0.86681000  0.32978000  1
  C  C493  1  0.52527000  0.90148000  0.35464000  1
  C  C494  1  0.56276000  0.91914000  0.36606000  1
  C  C495  1  0.56405000  0.95176000  0.39185000  1
  C  C496  1  0.52790000  0.96907000  0.40764000  1
  C  C497  1  0.49093000  0.95320000  0.39552000  1
  C  C498  1  0.48859000  0.91941000  0.36928000  1
  C  C499  1  0.45101000  0.90198000  0.35769000  1
  C  C500  1  0.44964000  0.86820000  0.33338000  1
  C  C501  1  0.53014000  0.00188000  0.43791000  1
  C  C502  1  0.50107000  0.03272000  0.43921000  1
  C  C503  1  0.48504000  0.68793000  0.20495000  1
  C  C504  1  0.48580000  0.65109000  0.17912000  1
  C  C505  1  0.52285000  0.63425000  0.16894000  1
  C  C506  1  0.52518000  0.59920000  0.14466000  1
  C  C507  1  0.56270000  0.58136000  0.13371000  1
  C  C508  1  0.56408000  0.54841000  0.10837000  1
  C  C509  1  0.52802000  0.53098000  0.09258000  1
  C  C510  1  0.49097000  0.54696000  0.10439000  1
  C  C511  1  0.48854000  0.58109000  0.13017000  1
  C  C512  1  0.45095000  0.59873000  0.14143000  1
  C  C513  1  0.44950000  0.63288000  0.16521000  1
  C  C514  1  0.53040000  0.49819000  0.06231000  1
  C  C515  1  0.50134000  0.46738000  0.06100000  1
  C  C516  1  0.20579000  0.18702000  0.48507000  1
  C  C517  1  0.18011000  0.15008000  0.48573000  1
  C  C518  1  0.16977000  0.13340000  0.52281000  1
  C  C519  1  0.14522000  0.09857000  0.52519000  1
  C  C520  1  0.13399000  0.08090000  0.56271000  1
  C  C521  1  0.10834000  0.04820000  0.56402000  1
  C  C522  1  0.09251000  0.03088000  0.52794000  1
  C  C523  1  0.10448000  0.04676000  0.49093000  1
  C  C524  1  0.13065000  0.08057000  0.48853000  1
  C  C525  1  0.14221000  0.09793000  0.45091000  1
  C  C526  1  0.16629000  0.13187000  0.44940000  1
  C  C527  1  0.06231000  0.99805000  0.53032000  1
  C  C528  1  0.06104000  0.96727000  0.50123000  1
  C  C529  1  0.29348000  0.31297000  0.48667000  1
  C  C530  1  0.31959000  0.34963000  0.48730000  1
  C  C531  1  0.33026000  0.36634000  0.52426000  1
  C  C532  1  0.35521000  0.40092000  0.52638000  1
  C  C533  1  0.36668000  0.41857000  0.56383000  1
  C  C534  1  0.39242000  0.45123000  0.56506000  1
  C  C535  1  0.40806000  0.46855000  0.52888000  1
  C  C536  1  0.39605000  0.45251000  0.49193000  1
  C  C537  1  0.36985000  0.41870000  0.48964000  1
  C  C538  1  0.35811000  0.40120000  0.45213000  1
  C  C539  1  0.33364000  0.36753000  0.45090000  1
  C  C540  1  0.43808000  0.50161000  0.53086000  1
  C  C541  1  0.43892000  0.53218000  0.50150000  1
  C  C542  1  0.29359000  0.18672000  0.01421000  1
  C  C543  1  0.31948000  0.14984000  0.01360000  1
  C  C544  1  0.32974000  0.13290000  0.97659000  1
  C  C545  1  0.35452000  0.09817000  0.97433000  1
  C  C546  1  0.36564000  0.08037000  0.93684000  1
  C  C547  1  0.39139000  0.04773000  0.93548000  1
  C  C548  1  0.40736000  0.03053000  0.97157000  1
  C  C549  1  0.39561000  0.04659000  0.00859000  1
  C  C550  1  0.36944000  0.08044000  0.01098000  1
  C  C551  1  0.35808000  0.09814000  0.04851000  1
  C  C552  1  0.33381000  0.13197000  0.04991000  1
  C  C553  1  0.43766000  0.99776000  0.96929000  1
  C  C554  1  0.43918000  0.96715000  0.99857000  1
  C  C555  1  0.20592000  0.31328000  0.01430000  1
  C  C556  1  0.17997000  0.35003000  0.01385000  1
  C  C557  1  0.16960000  0.36677000  0.97684000  1
  C  C558  1  0.14493000  0.40150000  0.97455000  1
  C  C559  1  0.13390000  0.41912000  0.93697000  1
  C  C560  1  0.10838000  0.45190000  0.93553000  1
  C  C561  1  0.09254000  0.46924000  0.97160000  1
  C  C562  1  0.10417000  0.45330000  0.00869000  1
  C  C563  1  0.13020000  0.41939000  0.01120000  1
  C  C564  1  0.14159000  0.40182000  0.04877000  1
  C  C565  1  0.16585000  0.36799000  0.05020000  1
  C  C566  1  0.06238000  0.50206000  0.96924000  1
  C  C567  1  0.06126000  0.53294000  0.99822000  1
  C  C568  1  0.98570000  0.79408000  0.31328000  1
  C  C569  1  0.98615000  0.82003000  0.35002000  1
  C  C570  1  0.02316000  0.83040000  0.36677000  1
  C  C571  1  0.02545000  0.85507000  0.40150000  1
  C  C572  1  0.06303000  0.86610000  0.41911000  1
  C  C573  1  0.06447000  0.89162000  0.45190000  1
  C  C574  1  0.02840000  0.90745000  0.46924000  1
  C  C575  1  0.99131000  0.89583000  0.45330000  1
  C  C576  1  0.98880000  0.86980000  0.41939000  1
  C  C577  1  0.95123000  0.85841000  0.40182000  1
  C  C578  1  0.94980000  0.83415000  0.36799000  1
  C  C579  1  0.03076000  0.93762000  0.50206000  1
  C  C580  1  0.00178000  0.93874000  0.53294000  1
  C  C581  1  0.98579000  0.70641000  0.18672000  1
  C  C582  1  0.98640000  0.68052000  0.14984000  1
  C  C583  1  0.02341000  0.67026000  0.13290000  1
  C  C584  1  0.02567000  0.64548000  0.09817000  1
  C  C585  1  0.06316000  0.63436000  0.08037000  1
  C  C586  1  0.06452000  0.60861000  0.04773000  1
  C  C587  1  0.02843000  0.59264000  0.03053000  1
  C  C588  1  0.99141000  0.60439000  0.04659000  1
  C  C589  1  0.98901000  0.63056000  0.08044000  1
  C  C590  1  0.95149000  0.64192000  0.09814000  1
  C  C591  1  0.95009000  0.66619000  0.13197000  1
  C  C592  1  0.03070000  0.56234000  0.99776000  1
  C  C593  1  0.00143000  0.56083000  0.96715000  1
  C  C594  1  0.51333000  0.70652000  0.31297000  1
  C  C595  1  0.51270000  0.68041000  0.34963000  1
  C  C596  1  0.47574000  0.66974000  0.36634000  1
  C  C597  1  0.47362000  0.64479000  0.40092000  1
  C  C598  1  0.43617000  0.63332000  0.41857000  1
  C  C599  1  0.43493000  0.60758000  0.45123000  1
  C  C600  1  0.47112000  0.59194000  0.46855000  1
  C  C601  1  0.50807000  0.60395000  0.45251000  1
  C  C602  1  0.51036000  0.63015000  0.41870000  1
  C  C603  1  0.54787000  0.64189000  0.40120000  1
  C  C604  1  0.54910000  0.66636000  0.36753000  1
  C  C605  1  0.46914000  0.56192000  0.50160000  1
  C  C606  1  0.49850000  0.56108000  0.53218000  1
  C  C607  1  0.51492000  0.79421000  0.18701000  1
  C  C608  1  0.51427000  0.81989000  0.15007000  1
  C  C609  1  0.47719000  0.83023000  0.13340000  1
  C  C610  1  0.47481000  0.85478000  0.09856000  1
  C  C611  1  0.43729000  0.86601000  0.08090000  1
  C  C612  1  0.43598000  0.89166000  0.04820000  1
  C  C613  1  0.47206000  0.90749000  0.03088000  1
  C  C614  1  0.50907000  0.89552000  0.04676000  1
  C  C615  1  0.51147000  0.86935000  0.08057000  1
  C  C616  1  0.54909000  0.85778000  0.09793000  1
  C  C617  1  0.55060000  0.83371000  0.13187000  1
  C  C618  1  0.46968000  0.93769000  0.99805000  1
  C  C619  1  0.49877000  0.93896000  0.96727000  1
  C  C620  1  0.81328000  0.01421000  0.70641000  1
  C  C621  1  0.85016000  0.01360000  0.68052000  1
  C  C622  1  0.86710000  0.97659000  0.67026000  1
  C  C623  1  0.90183000  0.97433000  0.64548000  1
  C  C624  1  0.91963000  0.93684000  0.63436000  1
  C  C625  1  0.95227000  0.93548000  0.60861000  1
  C  C626  1  0.96947000  0.97157000  0.59264000  1
  C  C627  1  0.95341000  0.00859000  0.60439000  1
  C  C628  1  0.91956000  0.01099000  0.63056000  1
  C  C629  1  0.90186000  0.04851000  0.64192000  1
  C  C630  1  0.86803000  0.04991000  0.66619000  1
  C  C631  1  0.00224000  0.96930000  0.56233000  1
  C  C632  1  0.03285000  0.99857000  0.56082000  1
  C  C633  1  0.68671000  0.01430000  0.79409000  1
  C  C634  1  0.64997000  0.01385000  0.82003000  1
  C  C635  1  0.63323000  0.97684000  0.83040000  1
  C  C636  1  0.59850000  0.97455000  0.85507000  1
  C  C637  1  0.58088000  0.93697000  0.86610000  1
  C  C638  1  0.54810000  0.93553000  0.89162000  1
  C  C639  1  0.53076000  0.97160000  0.90745000  1
  C  C640  1  0.54670000  0.00870000  0.89583000  1
  C  C641  1  0.58061000  0.01120000  0.86980000  1
  C  C642  1  0.59818000  0.04877000  0.85841000  1
  C  C643  1  0.63201000  0.05020000  0.83415000  1
  C  C644  1  0.49794000  0.96924000  0.93762000  1
  C  C645  1  0.46706000  0.99822000  0.93874000  1
  C  C646  1  0.81298000  0.48508000  0.79421000  1
  C  C647  1  0.84992000  0.48573000  0.81989000  1
  C  C648  1  0.86660000  0.52281000  0.83023000  1
  C  C649  1  0.90143000  0.52519000  0.85478000  1
  C  C650  1  0.91910000  0.56271000  0.86601000  1
  C  C651  1  0.95180000  0.56402000  0.89166000  1
  C  C652  1  0.96912000  0.52795000  0.90749000  1
  C  C653  1  0.95324000  0.49094000  0.89552000  1
  C  C654  1  0.91943000  0.48853000  0.86935000  1
  C  C655  1  0.90207000  0.45091000  0.85778000  1
  C  C656  1  0.86813000  0.44941000  0.83371000  1
  C  C657  1  0.00195000  0.53032000  0.93769000  1
  C  C658  1  0.03273000  0.50123000  0.93896000  1
  C  C659  1  0.68703000  0.48667000  0.70652000  1
  C  C660  1  0.65037000  0.48730000  0.68041000  1
  C  C661  1  0.63366000  0.52426000  0.66974000  1
  C  C662  1  0.59908000  0.52638000  0.64479000  1
  C  C663  1  0.58143000  0.56383000  0.63332000  1
  C  C664  1  0.54877000  0.56507000  0.60758000  1
  C  C665  1  0.53145000  0.52888000  0.59194000  1
  C  C666  1  0.54749000  0.49193000  0.60395000  1
  C  C667  1  0.58130000  0.48964000  0.63015000  1
  C  C668  1  0.59880000  0.45213000  0.64189000  1
  C  C669  1  0.63247000  0.45090000  0.66636000  1
  C  C670  1  0.49839000  0.53086000  0.56192000  1
  C  C671  1  0.46782000  0.50150000  0.56108000  1
  C  C672  1  0.79420000  0.81299000  0.51492000  1
  C  C673  1  0.81988000  0.84993000  0.51427000  1
  C  C674  1  0.83023000  0.86660000  0.47719000  1
  C  C675  1  0.85478000  0.90144000  0.47481000  1
  C  C676  1  0.86600000  0.91910000  0.43729000  1
  C  C677  1  0.89166000  0.95180000  0.43598000  1
  C  C678  1  0.90749000  0.96912000  0.47206000  1
  C  C679  1  0.89552000  0.95325000  0.50907000  1
  C  C680  1  0.86935000  0.91944000  0.51147000  1
  C  C681  1  0.85778000  0.90208000  0.54909000  1
  C  C682  1  0.83370000  0.86814000  0.55060000  1
  C  C683  1  0.93769000  0.00195000  0.46968000  1
  C  C684  1  0.93896000  0.03273000  0.49877000  1
  C  C685  1  0.70652000  0.68704000  0.51333000  1
  C  C686  1  0.68040000  0.65038000  0.51270000  1
  C  C687  1  0.66974000  0.63366000  0.47574000  1
  C  C688  1  0.64478000  0.59908000  0.47362000  1
  C  C689  1  0.63331000  0.58143000  0.43617000  1
  C  C690  1  0.60757000  0.54877000  0.43494000  1
  C  C691  1  0.59194000  0.53145000  0.47112000  1
  C  C692  1  0.60395000  0.54750000  0.50807000  1
  C  C693  1  0.63015000  0.58131000  0.51037000  1
  C  C694  1  0.64189000  0.59881000  0.54787000  1
  C  C695  1  0.66636000  0.63248000  0.54910000  1
  C  C696  1  0.56191000  0.49840000  0.46915000  1
  C  C697  1  0.56108000  0.46783000  0.49851000  1
  C  C698  1  0.70641000  0.81328000  0.98579000  1
  C  C699  1  0.68052000  0.85017000  0.98640000  1
  C  C700  1  0.67026000  0.86710000  0.02341000  1
  C  C701  1  0.64548000  0.90183000  0.02567000  1
  C  C702  1  0.63436000  0.91963000  0.06316000  1
  C  C703  1  0.60861000  0.95227000  0.06452000  1
  C  C704  1  0.59264000  0.96948000  0.02843000  1
  C  C705  1  0.60438000  0.95342000  0.99141000  1
  C  C706  1  0.63056000  0.91957000  0.98902000  1
  C  C707  1  0.64191000  0.90186000  0.95149000  1
  C  C708  1  0.66619000  0.86804000  0.95009000  1
  C  C709  1  0.56233000  0.00224000  0.03071000  1
  C  C710  1  0.56082000  0.03285000  0.00143000  1
  C  C711  1  0.79408000  0.68672000  0.98570000  1
  C  C712  1  0.82002000  0.64998000  0.98615000  1
  C  C713  1  0.83040000  0.63323000  0.02316000  1
  C  C714  1  0.85507000  0.59850000  0.02545000  1
  C  C715  1  0.86610000  0.58089000  0.06303000  1
  C  C716  1  0.89162000  0.54810000  0.06448000  1
  C  C717  1  0.90745000  0.53076000  0.02840000  1
  C  C718  1  0.89583000  0.54670000  0.99131000  1
  C  C719  1  0.86980000  0.58062000  0.98880000  1
  C  C720  1  0.85840000  0.59818000  0.95123000  1
  C  C721  1  0.83415000  0.63201000  0.94980000  1
  C  C722  1  0.93762000  0.49794000  0.03077000  1
  C  C723  1  0.93873000  0.46706000  0.00178000  1
  C  C724  1  0.01430000  0.20592000  0.68672000  1
  C  C725  1  0.01384000  0.17998000  0.64998000  1
  C  C726  1  0.97684000  0.16960000  0.63323000  1
  C  C727  1  0.97455000  0.14494000  0.59850000  1
  C  C728  1  0.93697000  0.13390000  0.58089000  1
  C  C729  1  0.93552000  0.10838000  0.54810000  1
  C  C730  1  0.97160000  0.09255000  0.53076000  1
  C  C731  1  0.00869000  0.10417000  0.54670000  1
  C  C732  1  0.01120000  0.13020000  0.58062000  1
  C  C733  1  0.04877000  0.14160000  0.59818000  1
  C  C734  1  0.05020000  0.16586000  0.63201000  1
  C  C735  1  0.96923000  0.06238000  0.49794000  1
  C  C736  1  0.99822000  0.06127000  0.46706000  1
  C  C737  1  0.01421000  0.29359000  0.81328000  1
  C  C738  1  0.01360000  0.31949000  0.85017000  1
  C  C739  1  0.97659000  0.32974000  0.86711000  1
  C  C740  1  0.97433000  0.35452000  0.90183000  1
  C  C741  1  0.93684000  0.36565000  0.91963000  1
  C  C742  1  0.93548000  0.39139000  0.95227000  1
  C  C743  1  0.97157000  0.40737000  0.96948000  1
  C  C744  1  0.00859000  0.39562000  0.95341000  1
  C  C745  1  0.01098000  0.36944000  0.91956000  1
  C  C746  1  0.04851000  0.35809000  0.90186000  1
  C  C747  1  0.04991000  0.33381000  0.86804000  1
  C  C748  1  0.96929000  0.43767000  0.00224000  1
  C  C749  1  0.99857000  0.43918000  0.03285000  1
  C  C750  1  0.48667000  0.29348000  0.68704000  1
  C  C751  1  0.48730000  0.31960000  0.65038000  1
  C  C752  1  0.52426000  0.33026000  0.63366000  1
  C  C753  1  0.52638000  0.35522000  0.59908000  1
  C  C754  1  0.56383000  0.36669000  0.58143000  1
  C  C755  1  0.56506000  0.39243000  0.54877000  1
  C  C756  1  0.52888000  0.40806000  0.53145000  1
  C  C757  1  0.49193000  0.39605000  0.54750000  1
  C  C758  1  0.48963000  0.36985000  0.58131000  1
  C  C759  1  0.45213000  0.35811000  0.59881000  1
  C  C760  1  0.45090000  0.33364000  0.63248000  1
  C  C761  1  0.53085000  0.43809000  0.49840000  1
  C  C762  1  0.50149000  0.43892000  0.46783000  1
  C  C763  1  0.48508000  0.20580000  0.81299000  1
  C  C764  1  0.48573000  0.18012000  0.84993000  1
  C  C765  1  0.52281000  0.16977000  0.86660000  1
  C  C766  1  0.52519000  0.14522000  0.90144000  1
  C  C767  1  0.56271000  0.13400000  0.91910000  1
  C  C768  1  0.56402000  0.10834000  0.95180000  1
  C  C769  1  0.52794000  0.09251000  0.96912000  1
  C  C770  1  0.49093000  0.10448000  0.95325000  1
  C  C771  1  0.48853000  0.13065000  0.91944000  1
  C  C772  1  0.45091000  0.14222000  0.90208000  1
  C  C773  1  0.44940000  0.16630000  0.86814000  1
  C  C774  1  0.53032000  0.06231000  0.00195000  1
  C  C775  1  0.50123000  0.06104000  0.03273000  1
  C  C776  1  0.18672000  0.98579000  0.29359000  1
  C  C777  1  0.14983000  0.98640000  0.31948000  1
  C  C778  1  0.13289000  0.02341000  0.32974000  1
  C  C779  1  0.09817000  0.02567000  0.35452000  1
  C  C780  1  0.08037000  0.06316000  0.36564000  1
  C  C781  1  0.04772000  0.06453000  0.39139000  1
  C  C782  1  0.03052000  0.02843000  0.40736000  1
  C  C783  1  0.04658000  0.99141000  0.39562000  1
  C  C784  1  0.08044000  0.98902000  0.36944000  1
  C  C785  1  0.09814000  0.95149000  0.35809000  1
  C  C786  1  0.13196000  0.95009000  0.33381000  1
  C  C787  1  0.99776000  0.03071000  0.43767000  1
  C  C788  1  0.96715000  0.00143000  0.43918000  1
  C  C789  1  0.31328000  0.98570000  0.20592000  1
  C  C790  1  0.35002000  0.98615000  0.17998000  1
  C  C791  1  0.36677000  0.02316000  0.16960000  1
  C  C792  1  0.40150000  0.02545000  0.14493000  1
  C  C793  1  0.41911000  0.06303000  0.13390000  1
  C  C794  1  0.45190000  0.06448000  0.10838000  1
  C  C795  1  0.46924000  0.02840000  0.09255000  1
  C  C796  1  0.45330000  0.99131000  0.10417000  1
  C  C797  1  0.41938000  0.98880000  0.13020000  1
  C  C798  1  0.40182000  0.95123000  0.14160000  1
  C  C799  1  0.36799000  0.94980000  0.16585000  1
  C  C800  1  0.50206000  0.03077000  0.06238000  1
  C  C801  1  0.53294000  0.00178000  0.06127000  1
  C  C802  1  0.18701000  0.51492000  0.20579000  1
  C  C803  1  0.15007000  0.51427000  0.18011000  1
  C  C804  1  0.13340000  0.47719000  0.16977000  1
  C  C805  1  0.09856000  0.47481000  0.14522000  1
  C  C806  1  0.08090000  0.43729000  0.13400000  1
  C  C807  1  0.04820000  0.43598000  0.10834000  1
  C  C808  1  0.03088000  0.47206000  0.09251000  1
  C  C809  1  0.04675000  0.50907000  0.10448000  1
  C  C810  1  0.08056000  0.51147000  0.13065000  1
  C  C811  1  0.09792000  0.54909000  0.14222000  1
  C  C812  1  0.13186000  0.55060000  0.16629000  1
  C  C813  1  0.99805000  0.46968000  0.06231000  1
  C  C814  1  0.96727000  0.49877000  0.06104000  1
  C  C815  1  0.31296000  0.51333000  0.29348000  1
  C  C816  1  0.34962000  0.51270000  0.31960000  1
  C  C817  1  0.36634000  0.47574000  0.33026000  1
  C  C818  1  0.40092000  0.47362000  0.35522000  1
  C  C819  1  0.41857000  0.43617000  0.36668000  1
  C  C820  1  0.45123000  0.43494000  0.39243000  1
  C  C821  1  0.46855000  0.47113000  0.40806000  1
  C  C822  1  0.45250000  0.50807000  0.39605000  1
  C  C823  1  0.41869000  0.51037000  0.36985000  1
  C  C824  1  0.40119000  0.54787000  0.35811000  1
  C  C825  1  0.36752000  0.54910000  0.33364000  1
  C  C826  1  0.50160000  0.46915000  0.43809000  1
  C  C827  1  0.53217000  0.49851000  0.43892000  1
  C  C828  1  0.81314000  0.79410000  0.01413000  1
  C  C829  1  0.84992000  0.81997000  0.01355000  1
  C  C830  1  0.86673000  0.83022000  0.97652000  1
  C  C831  1  0.90157000  0.85478000  0.97424000  1
  C  C832  1  0.91940000  0.86574000  0.93672000  1
  C  C833  1  0.95214000  0.89136000  0.93536000  1
  C  C834  1  0.96935000  0.90733000  0.97147000  1
  C  C835  1  0.95334000  0.89557000  0.00850000  1
  C  C836  1  0.91943000  0.86951000  0.01092000  1
  C  C837  1  0.90185000  0.85813000  0.04850000  1
  C  C838  1  0.86791000  0.83405000  0.04988000  1
  C  C839  1  0.00218000  0.93755000  0.96920000  1
  C  C840  1  0.03291000  0.93878000  0.99835000  1
  C  C841  1  0.68649000  0.70673000  0.01412000  1
  C  C842  1  0.64979000  0.68064000  0.01372000  1
  C  C843  1  0.63297000  0.67010000  0.97678000  1
  C  C844  1  0.59838000  0.64516000  0.97460000  1
  C  C845  1  0.58064000  0.63402000  0.93710000  1
  C  C846  1  0.54798000  0.60830000  0.93577000  1
  C  C847  1  0.53082000  0.59235000  0.97189000  1
  C  C848  1  0.54684000  0.60412000  0.00892000  1
  C  C849  1  0.58068000  0.63031000  0.01130000  1
  C  C850  1  0.59836000  0.64180000  0.04880000  1
  C  C851  1  0.63205000  0.66625000  0.05008000  1
  C  C852  1  0.49807000  0.56205000  0.96953000  1
  C  C853  1  0.46738000  0.56062000  0.99871000  1
  C  C854  1  0.81328000  0.70660000  0.48509000  1
  C  C855  1  0.85014000  0.68071000  0.48594000  1
  C  C856  1  0.86680000  0.67022000  0.52299000  1
  C  C857  1  0.90148000  0.64537000  0.52528000  1
  C  C858  1  0.91913000  0.63394000  0.56276000  1
  C  C859  1  0.95176000  0.60815000  0.56405000  1
  C  C860  1  0.96907000  0.59236000  0.52790000  1
  C  C861  1  0.95320000  0.60448000  0.49093000  1
  C  C862  1  0.91941000  0.63072000  0.48859000  1
  C  C863  1  0.90198000  0.64232000  0.45101000  1
  C  C864  1  0.86819000  0.66666667  0.44964000  1
  C  C865  1  0.00188000  0.56209000  0.53014000  1
  C  C866  1  0.03272000  0.56079000  0.50107000  1
  C  C867  1  0.68793000  0.79505000  0.48505000  1
  C  C868  1  0.65109000  0.82088000  0.48581000  1
  C  C869  1  0.63425000  0.83107000  0.52285000  1
  C  C870  1  0.59920000  0.85534000  0.52518000  1
  C  C871  1  0.58136000  0.86629000  0.56270000  1
  C  C872  1  0.54840000  0.89163000  0.56408000  1
  C  C873  1  0.53098000  0.90742000  0.52802000  1
  C  C874  1  0.54696000  0.89561000  0.49098000  1
  C  C875  1  0.58109000  0.86983000  0.48854000  1
  C  C876  1  0.59873000  0.85857000  0.45095000  1
  C  C877  1  0.63288000  0.83479000  0.44951000  1
  C  C878  1  0.49819000  0.93769000  0.53040000  1
  C  C879  1  0.46738000  0.93901000  0.50134000  1
  C  C880  1  0.20590000  0.01413000  0.18686000  1
  C  C881  1  0.18003000  0.01355000  0.15008000  1
  C  C882  1  0.16978000  0.97652000  0.13326000  1
  C  C883  1  0.14522000  0.97424000  0.09843000  1
  C  C884  1  0.13426000  0.93672000  0.08060000  1
  C  C885  1  0.10864000  0.93536000  0.04785000  1
  C  C886  1  0.09267000  0.97147000  0.03064000  1
  C  C887  1  0.10443000  0.00850000  0.04666000  1
  C  C888  1  0.13049000  0.01092000  0.08057000  1
  C  C889  1  0.14187000  0.04850000  0.09815000  1
  C  C890  1  0.16595000  0.04988000  0.13209000  1
  C  C891  1  0.06245000  0.96920000  0.99782000  1
  C  C892  1  0.06122000  0.99835000  0.96708000  1
  C  C893  1  0.29327000  0.01412000  0.31351000  1
  C  C894  1  0.31936000  0.01372000  0.35021000  1
  C  C895  1  0.32990000  0.97678000  0.36703000  1
  C  C896  1  0.35484000  0.97460000  0.40162000  1
  C  C897  1  0.36598000  0.93710000  0.41936000  1
  C  C898  1  0.39170000  0.93577000  0.45202000  1
  C  C899  1  0.40765000  0.97189000  0.46918000  1
  C  C900  1  0.39588000  0.00892000  0.45316000  1
  C  C901  1  0.36969000  0.01130000  0.41932000  1
  C  C902  1  0.35820000  0.04881000  0.40164000  1
  C  C903  1  0.33375000  0.05009000  0.36795000  1
  C  C904  1  0.43795000  0.96953000  0.50192000  1
  C  C905  1  0.43938000  0.99871000  0.53262000  1
  C  C906  1  0.29340000  0.48509000  0.18671000  1
  C  C907  1  0.31929000  0.48594000  0.14986000  1
  C  C908  1  0.32978000  0.52299000  0.13320000  1
  C  C909  1  0.35463000  0.52528000  0.09852000  1
  C  C910  1  0.36606000  0.56276000  0.08086000  1
  C  C911  1  0.39185000  0.56405000  0.04824000  1
  C  C912  1  0.40764000  0.52790000  0.03093000  1
  C  C913  1  0.39552000  0.49093000  0.04680000  1
  C  C914  1  0.36928000  0.48859000  0.08059000  1
  C  C915  1  0.35769000  0.45101000  0.09802000  1
  C  C916  1  0.33333333  0.44964000  0.13181000  1
  C  C917  1  0.43791000  0.53014000  0.99812000  1
  C  C918  1  0.43921000  0.50108000  0.96728000  1
  C  C919  1  0.20495000  0.48505000  0.31207000  1
  C  C920  1  0.17912000  0.48581000  0.34891000  1
  C  C921  1  0.16893000  0.52285000  0.36575000  1
  C  C922  1  0.14466000  0.52518000  0.40080000  1
  C  C923  1  0.13371000  0.56270000  0.41864000  1
  C  C924  1  0.10837000  0.56408000  0.45160000  1
  C  C925  1  0.09258000  0.52802000  0.46902000  1
  C  C926  1  0.10439000  0.49098000  0.45304000  1
  C  C927  1  0.13017000  0.48854000  0.41891000  1
  C  C928  1  0.14143000  0.45095000  0.40127000  1
  C  C929  1  0.16521000  0.44951000  0.36712000  1
  C  C930  1  0.06231000  0.53040000  0.50181000  1
  C  C931  1  0.06099000  0.50134000  0.53262000  1
  C  C932  1  0.98587000  0.18686000  0.79410000  1
  C  C933  1  0.98645000  0.15008000  0.81997000  1
  C  C934  1  0.02348000  0.13327000  0.83022000  1
  C  C935  1  0.02576000  0.09843000  0.85478000  1
  C  C936  1  0.06328000  0.08060000  0.86574000  1
  C  C937  1  0.06464000  0.04786000  0.89136000  1
  C  C938  1  0.02853000  0.03065000  0.90733000  1
  C  C939  1  0.99150000  0.04667000  0.89557000  1
  C  C940  1  0.98908000  0.08057000  0.86951000  1
  C  C941  1  0.95150000  0.09815000  0.85813000  1
  C  C942  1  0.95012000  0.13209000  0.83405000  1
  C  C943  1  0.03080000  0.99782000  0.93755000  1
  C  C944  1  0.00165000  0.96709000  0.93878000  1
  C  C945  1  0.98588000  0.31351000  0.70673000  1
  C  C946  1  0.98628000  0.35021000  0.68064000  1
  C  C947  1  0.02322000  0.36703000  0.67010000  1
  C  C948  1  0.02539000  0.40162000  0.64516000  1
  C  C949  1  0.06290000  0.41936000  0.63402000  1
  C  C950  1  0.06423000  0.45202000  0.60830000  1
  C  C951  1  0.02811000  0.46918000  0.59235000  1
  C  C952  1  0.99108000  0.45316000  0.60412000  1
  C  C953  1  0.98870000  0.41932000  0.63031000  1
  C  C954  1  0.95119000  0.40164000  0.64180000  1
  C  C955  1  0.94991000  0.36795000  0.66625000  1
  C  C956  1  0.03047000  0.50193000  0.56205000  1
  C  C957  1  0.00129000  0.53262000  0.56062000  1
  C  C958  1  0.51491000  0.18672000  0.70660000  1
  C  C959  1  0.51406000  0.14987000  0.68071000  1
  C  C960  1  0.47701000  0.13320000  0.67022000  1
  C  C961  1  0.47472000  0.09852000  0.64537000  1
  C  C962  1  0.43724000  0.08087000  0.63394000  1
  C  C963  1  0.43595000  0.04824000  0.60815000  1
  C  C964  1  0.47210000  0.03093000  0.59236000  1
  C  C965  1  0.50907000  0.04680000  0.60448000  1
  C  C966  1  0.51141000  0.08059000  0.63072000  1
  C  C967  1  0.54899000  0.09803000  0.64232000  1
  C  C968  1  0.55036000  0.13181000  0.66666667  1
  C  C969  1  0.46986000  0.99812000  0.56209000  1
  C  C970  1  0.49892000  0.96728000  0.56079000  1
  C  C971  1  0.51495000  0.31207000  0.79505000  1
  C  C972  1  0.51419000  0.34891000  0.82088000  1
  C  C973  1  0.47714000  0.36575000  0.83107000  1
  C  C974  1  0.47481000  0.40080000  0.85534000  1
  C  C975  1  0.43730000  0.41864000  0.86629000  1
  C  C976  1  0.43592000  0.45160000  0.89163000  1
  C  C977  1  0.47198000  0.46902000  0.90742000  1
  C  C978  1  0.50902000  0.45304000  0.89561000  1
  C  C979  1  0.51145000  0.41891000  0.86983000  1
  C  C980  1  0.54905000  0.40127000  0.85857000  1
  C  C981  1  0.55049000  0.36712000  0.83479000  1
  C  C982  1  0.46960000  0.50181000  0.93769000  1
  C  C983  1  0.49866000  0.53262000  0.93900000  1
  O  O984  1  0.20147000  0.21624000  0.01997000  1
  O  O985  1  0.20171000  0.21624000  0.95129000  1
  O  O986  1  0.29889000  0.28299000  0.02000000  1
  O  O987  1  0.29876000  0.28275000  0.95131000  1
  O  O988  1  0.20165000  0.28305000  0.48098000  1
  O  O989  1  0.20133000  0.28305000  0.54962000  1
  O  O990  1  0.29776000  0.21622000  0.48102000  1
  O  O991  1  0.29695000  0.21449000  0.54966000  1
  O  O992  1  0.78376000  0.01997000  0.79853000  1
  O  O993  1  0.78376000  0.95129000  0.79829000  1
  O  O994  1  0.71701000  0.02000000  0.70111000  1
  O  O995  1  0.71725000  0.95131000  0.70124000  1
  O  O996  1  0.71695000  0.48098000  0.79835000  1
  O  O997  1  0.71695000  0.54962000  0.79867000  1
  O  O998  1  0.78378000  0.48102000  0.70224000  1
  O  O999  1  0.78551000  0.54966000  0.70305000  1
  O  O1000  1  0.98003000  0.79853000  0.21624000  1
  O  O1001  1  0.04871000  0.79829000  0.21624000  1
  O  O1002  1  0.98000000  0.70111000  0.28299000  1
  O  O1003  1  0.04869000  0.70124000  0.28274000  1
  O  O1004  1  0.51902000  0.79835000  0.28305000  1
  O  O1005  1  0.45038000  0.79866000  0.28305000  1
  O  O1006  1  0.51898000  0.70224000  0.21622000  1
  O  O1007  1  0.45034000  0.70305000  0.21449000  1
  O  O1008  1  0.21605000  0.20178000  0.51909000  1
  O  O1009  1  0.21608000  0.20187000  0.45044000  1
  O  O1010  1  0.28296000  0.29824000  0.52067000  1
  O  O1011  1  0.28305000  0.29854000  0.45193000  1
  O  O1012  1  0.28304000  0.20121000  0.98013000  1
  O  O1013  1  0.28324000  0.20168000  0.04876000  1
  O  O1014  1  0.21628000  0.29873000  0.98017000  1
  O  O1015  1  0.21632000  0.29852000  0.04888000  1
  O  O1016  1  0.01983000  0.78372000  0.29873000  1
  O  O1017  1  0.95112000  0.78368000  0.29852000  1
  O  O1018  1  0.01987000  0.71696000  0.20120000  1
  O  O1019  1  0.95124000  0.71676000  0.20168000  1
  O  O1020  1  0.47933000  0.71703000  0.29824000  1
  O  O1021  1  0.54807000  0.71695000  0.29854000  1
  O  O1022  1  0.48091000  0.78395000  0.20178000  1
  O  O1023  1  0.54956000  0.78392000  0.20187000  1
  O  O1024  1  0.79879000  0.98013000  0.71696000  1
  O  O1025  1  0.79832000  0.04876000  0.71676000  1
  O  O1026  1  0.70127000  0.98017000  0.78372000  1
  O  O1027  1  0.70148000  0.04888000  0.78368000  1
  O  O1028  1  0.79822000  0.51909000  0.78395000  1
  O  O1029  1  0.79813000  0.45044000  0.78392000  1
  O  O1030  1  0.70176000  0.52067000  0.71704000  1
  O  O1031  1  0.70146000  0.45193000  0.71695000  1
  O  O1032  1  0.78395000  0.79822000  0.48091000  1
  O  O1033  1  0.78391000  0.79814000  0.54957000  1
  O  O1034  1  0.71703000  0.70177000  0.47934000  1
  O  O1035  1  0.71695000  0.70147000  0.54807000  1
  O  O1036  1  0.71695000  0.79880000  0.01987000  1
  O  O1037  1  0.71676000  0.79832000  0.95124000  1
  O  O1038  1  0.78372000  0.70127000  0.01984000  1
  O  O1039  1  0.78367000  0.70149000  0.95113000  1
  O  O1040  1  0.98016000  0.21628000  0.70127000  1
  O  O1041  1  0.04887000  0.21633000  0.70149000  1
  O  O1042  1  0.98013000  0.28305000  0.79880000  1
  O  O1043  1  0.04876000  0.28324000  0.79832000  1
  O  O1044  1  0.52066000  0.28298000  0.70178000  1
  O  O1045  1  0.45193000  0.28306000  0.70147000  1
  O  O1046  1  0.51909000  0.21606000  0.79822000  1
  O  O1047  1  0.45043000  0.21609000  0.79814000  1
  O  O1048  1  0.20120000  0.01987000  0.28305000  1
  O  O1049  1  0.20168000  0.95124000  0.28324000  1
  O  O1050  1  0.29873000  0.01984000  0.21628000  1
  O  O1051  1  0.29851000  0.95113000  0.21632000  1
  O  O1052  1  0.20178000  0.48092000  0.21605000  1
  O  O1053  1  0.20186000  0.54957000  0.21609000  1
  O  O1054  1  0.29823000  0.47934000  0.28297000  1
  O  O1055  1  0.29853000  0.54807000  0.28305000  1
  O  O1056  1  0.79853000  0.78376000  0.98003000  1
  O  O1057  1  0.79828000  0.78377000  0.04871000  1
  O  O1058  1  0.70110000  0.71702000  0.98000000  1
  O  O1059  1  0.70123000  0.71726000  0.04869000  1
  O  O1060  1  0.79834000  0.71695000  0.51903000  1
  O  O1061  1  0.79866000  0.71696000  0.45039000  1
  O  O1062  1  0.70223000  0.78378000  0.51899000  1
  O  O1063  1  0.70305000  0.78552000  0.45035000  1
  O  O1064  1  0.21624000  0.98003000  0.20147000  1
  O  O1065  1  0.21623000  0.04871000  0.20172000  1
  O  O1066  1  0.28298000  0.98000000  0.29890000  1
  O  O1067  1  0.28274000  0.04869000  0.29877000  1
  O  O1068  1  0.28305000  0.51903000  0.20166000  1
  O  O1069  1  0.28304000  0.45039000  0.20133000  1
  O  O1070  1  0.21622000  0.51899000  0.29776000  1
  O  O1071  1  0.21448000  0.45035000  0.29695000  1
  O  O1072  1  0.01997000  0.20147000  0.78376000  1
  O  O1073  1  0.95129000  0.20172000  0.78376000  1
  O  O1074  1  0.01999000  0.29890000  0.71701000  1
  O  O1075  1  0.95131000  0.29877000  0.71726000  1
  O  O1076  1  0.48097000  0.20166000  0.71695000  1
  O  O1077  1  0.54961000  0.20134000  0.71696000  1
  O  O1078  1  0.48101000  0.29777000  0.78378000  1
  O  O1079  1  0.54965000  0.29695000  0.78552000  1
