# generated using pymatgen
data_Eu4H144C159(NO3)24
_symmetry_space_group_name_H-M   'P 1'
_cell_length_a   23.67240051
_cell_length_b   23.69189000
_cell_length_c   23.69566000
_cell_angle_alpha   70.52888000
_cell_angle_beta   70.56354474
_cell_angle_gamma   109.44729116
_symmetry_Int_Tables_number   1
_chemical_formula_structural   Eu4H144C159(NO3)24
_chemical_formula_sum   'Eu8 H288 C318 N48 O144'
_cell_volume   10237.72892742
_cell_formula_units_Z   2
loop_
 _symmetry_equiv_pos_site_id
 _symmetry_equiv_pos_as_xyz
  1  'x, y, z'
loop_
 _atom_site_type_symbol
 _atom_site_label
 _atom_site_symmetry_multiplicity
 _atom_site_fract_x
 _atom_site_fract_y
 _atom_site_fract_z
 _atom_site_occupancy
  Eu  Eu0  1  0.49991000  0.99993000  0.55073000  1
  Eu  Eu1  1  0.44942000  0.49997000  0.99999000  1
  Eu  Eu2  1  0.00039000  0.44765000  0.50009000  1
  Eu  Eu3  1  0.05067000  0.05079000  0.94933000  1
  Eu  Eu4  1  0.94944000  0.49997000  0.00003000  1
  Eu  Eu5  1  0.49992000  0.00003000  0.05084000  1
  Eu  Eu6  1  0.99941000  0.94731000  0.49982000  1
  Eu  Eu7  1  0.55062000  0.55078000  0.44918000  1
  H  H8  1  0.46340000  0.15606000  0.35125000  1
  H  H9  1  0.48091000  0.33059000  0.29466000  1
  H  H10  1  0.46127000  0.31613000  0.37905000  1
  H  H11  1  0.57627000  0.37166000  0.30874000  1
  H  H12  1  0.69042000  0.40316000  0.29949000  1
  H  H13  1  0.71932000  0.31129000  0.34400000  1
  H  H14  1  0.63224000  0.18802000  0.39629000  1
  H  H15  1  0.44688000  0.03427000  0.36354000  1
  H  H16  1  0.41909000  0.01286000  0.45092000  1
  H  H17  1  0.28951000  0.02728000  0.50787000  1
  H  H18  1  0.19071000  0.99684000  0.46979000  1
  H  H19  1  0.25331000  0.99664000  0.34935000  1
  H  H20  1  0.49257000  0.34430000  0.19291000  1
  H  H21  1  0.37526000  0.17010000  0.34921000  1
  H  H22  1  0.30511000  0.18449000  0.35444000  1
  H  H23  1  0.32023000  0.12890000  0.29517000  1
  H  H24  1  0.29818000  0.09704000  0.21266000  1
  H  H25  1  0.34561000  0.18866000  0.09195000  1
  H  H26  1  0.41627000  0.31204000  0.05567000  1
  H  H27  1  0.60205000  0.46606000  0.08729000  1
  H  H28  1  0.53594000  0.48741000  0.09412000  1
  H  H29  1  0.46568000  0.47372000  0.23786000  1
  H  H30  1  0.53513000  0.50407000  0.30546000  1
  H  H31  1  0.65518000  0.50317000  0.24258000  1
  H  H32  1  0.03604000  0.68565000  0.30846000  1
  H  H33  1  0.01921000  0.72437000  0.15046000  1
  H  H34  1  0.03893000  0.65957000  0.14536000  1
  H  H35  1  0.92415000  0.61548000  0.20458000  1
  H  H36  1  0.80987000  0.51103000  0.28715000  1
  H  H37  1  0.78115000  0.43765000  0.40772000  1
  H  H38  1  0.86861000  0.47166000  0.44377000  1
  H  H39  1  0.05451000  0.68873000  0.41310000  1
  H  H40  1  0.08265000  0.62979000  0.40478000  1
  H  H41  1  0.21261000  0.70369000  0.26211000  1
  H  H42  1  0.31019000  0.84071000  0.19455000  1
  H  H43  1  0.24563000  0.89757000  0.25710000  1
  H  H44  1  0.00724000  0.81445000  0.14834000  1
  H  H45  1  0.12524000  0.77555000  0.20508000  1
  H  H46  1  0.19520000  0.84028000  0.12067000  1
  H  H47  1  0.18067000  0.88494000  0.19082000  1
  H  H48  1  0.20299000  0.98971000  0.20010000  1
  H  H49  1  0.15497000  0.06271000  0.15630000  1
  H  H50  1  0.08369000  0.02797000  0.10412000  1
  H  H51  1  0.89798000  0.81114000  0.13546000  1
  H  H52  1  0.96428000  0.87021000  0.04822000  1
  H  H53  1  0.03406000  0.79641000  0.99183000  1
  H  H54  1  0.96469000  0.65954000  0.03075000  1
  H  H55  1  0.84476000  0.60266000  0.15148000  1
  H  H56  1  0.64830000  0.46284000  0.84435000  1
  H  H57  1  0.70487000  0.48059000  0.66999000  1
  H  H58  1  0.62031000  0.46096000  0.68442000  1
  H  H59  1  0.69132000  0.57600000  0.62884000  1
  H  H60  1  0.70136000  0.69041000  0.59709000  1
  H  H61  1  0.65696000  0.71939000  0.68885000  1
  H  H62  1  0.60430000  0.63234000  0.81212000  1
  H  H63  1  0.63591000  0.44675000  0.96613000  1
  H  H64  1  0.54847000  0.41857000  0.98741000  1
  H  H65  1  0.49196000  0.28847000  0.97370000  1
  H  H66  1  0.53110000  0.19056000  0.00406000  1
  H  H67  1  0.65191000  0.25429000  0.00340000  1
  H  H68  1  0.80872000  0.49434000  0.65538000  1
  H  H69  1  0.64993000  0.37465000  0.83075000  1
  H  H70  1  0.64587000  0.30532000  0.81547000  1
  H  H71  1  0.70507000  0.32124000  0.87134000  1
  H  H72  1  0.78745000  0.29808000  0.90273000  1
  H  H73  1  0.90770000  0.34420000  0.81078000  1
  H  H74  1  0.94346000  0.41398000  0.68753000  1
  H  H75  1  0.91356000  0.60180000  0.53270000  1
  H  H76  1  0.90539000  0.53469000  0.51262000  1
  H  H77  1  0.76226000  0.46550000  0.52598000  1
  H  H78  1  0.69424000  0.53469000  0.49617000  1
  H  H79  1  0.75712000  0.65449000  0.49749000  1
  H  H80  1  0.69280000  0.03723000  0.31452000  1
  H  H81  1  0.84961000  0.01922000  0.27584000  1
  H  H82  1  0.85472000  0.03903000  0.34056000  1
  H  H83  1  0.79578000  0.92440000  0.38515000  1
  H  H84  1  0.71353000  0.81043000  0.48976000  1
  H  H85  1  0.59244000  0.78116000  0.56267000  1
  H  H86  1  0.55578000  0.86793000  0.52792000  1
  H  H87  1  0.58683000  0.05348000  0.31113000  1
  H  H88  1  0.59425000  0.08178000  0.37014000  1
  H  H89  1  0.73773000  0.21180000  0.29637000  1
  H  H90  1  0.80522000  0.30952000  0.15945000  1
  H  H91  1  0.74211000  0.24549000  0.10262000  1
  H  H92  1  0.85224000  0.00784000  0.18541000  1
  H  H93  1  0.79496000  0.12536000  0.22431000  1
  H  H94  1  0.87951000  0.19512000  0.15968000  1
  H  H95  1  0.80903000  0.18041000  0.11509000  1
  H  H96  1  0.79961000  0.20267000  0.01037000  1
  H  H97  1  0.84370000  0.15490000  0.93728000  1
  H  H98  1  0.89610000  0.08390000  0.97201000  1
  H  H99  1  0.86502000  0.89847000  0.18854000  1
  H  H100  1  0.95238000  0.96483000  0.12997000  1
  H  H101  1  0.00802000  0.03384000  0.20447000  1
  H  H102  1  0.96793000  0.96423000  0.34169000  1
  H  H103  1  0.84712000  0.84464000  0.39775000  1
  H  H104  1  0.15442000  0.64681000  0.53796000  1
  H  H105  1  0.32993000  0.70500000  0.51929000  1
  H  H106  1  0.31540000  0.62051000  0.53914000  1
  H  H107  1  0.37118000  0.69118000  0.42409000  1
  H  H108  1  0.40284000  0.70073000  0.30992000  1
  H  H109  1  0.31101000  0.65633000  0.28092000  1
  H  H110  1  0.18756000  0.60358000  0.36797000  1
  H  H111  1  0.03136000  0.63203000  0.55438000  1
  H  H112  1  0.01185000  0.54500000  0.58337000  1
  H  H113  1  0.02444000  0.49017000  0.71313000  1
  H  H114  1  0.99538000  0.53085000  0.80991000  1
  H  H115  1  0.99708000  0.65190000  0.74483000  1
  H  H116  1  0.34407000  0.80682000  0.50786000  1
  H  H117  1  0.16945000  0.65072000  0.62503000  1
  H  H118  1  0.18392000  0.64537000  0.69507000  1
  H  H119  1  0.12846000  0.70481000  0.68017000  1
  H  H120  1  0.09681000  0.78727000  0.70249000  1
  H  H121  1  0.18864000  0.90808000  0.65490000  1
  H  H122  1  0.31197000  0.94429000  0.58399000  1
  H  H123  1  0.46581000  0.91257000  0.39838000  1
  H  H124  1  0.48728000  0.90567000  0.46440000  1
  H  H125  1  0.47391000  0.76220000  0.53434000  1
  H  H126  1  0.50432000  0.69457000  0.46501000  1
  H  H127  1  0.50311000  0.75734000  0.34522000  1
  H  H128  1  0.68535000  0.69304000  0.96247000  1
  H  H129  1  0.72452000  0.84917000  0.98084000  1
  H  H130  1  0.65970000  0.85476000  0.96122000  1
  H  H131  1  0.61525000  0.79532000  0.07598000  1
  H  H132  1  0.51084000  0.71284000  0.19023000  1
  H  H133  1  0.43768000  0.59206000  0.21930000  1
  H  H134  1  0.47202000  0.55572000  0.13223000  1
  H  H135  1  0.68833000  0.58673000  0.94649000  1
  H  H136  1  0.62962000  0.59464000  0.91787000  1
  H  H137  1  0.70442000  0.73905000  0.78828000  1
  H  H138  1  0.84179000  0.80671000  0.69143000  1
  H  H139  1  0.89755000  0.74161000  0.75541000  1
  H  H140  1  0.81459000  0.85137000  0.99281000  1
  H  H141  1  0.77564000  0.79475000  0.87473000  1
  H  H142  1  0.84034000  0.87924000  0.80505000  1
  H  H143  1  0.88498000  0.80880000  0.81976000  1
  H  H144  1  0.99009000  0.79988000  0.79718000  1
  H  H145  1  0.06350000  0.84444000  0.84455000  1
  H  H146  1  0.02850000  0.89644000  0.91584000  1
  H  H147  1  0.81074000  0.86408000  0.10215000  1
  H  H148  1  0.87000000  0.95138000  0.03601000  1
  H  H149  1  0.79674000  0.00805000  0.96561000  1
  H  H150  1  0.65983000  0.96947000  0.03452000  1
  H  H151  1  0.60251000  0.84863000  0.15446000  1
  H  H152  1  0.14836000  0.65573000  0.03717000  1
  H  H153  1  0.20534000  0.83006000  0.01927000  1
  H  H154  1  0.12091000  0.81592000  0.03881000  1
  H  H155  1  0.19110000  0.87123000  0.92414000  1
  H  H156  1  0.20080000  0.90294000  0.80991000  1
  H  H157  1  0.15678000  0.81127000  0.78073000  1
  H  H158  1  0.10431000  0.68795000  0.86767000  1
  H  H159  1  0.13643000  0.53412000  0.05321000  1
  H  H160  1  0.04896000  0.51259000  0.08106000  1
  H  H161  1  0.99225000  0.52724000  0.21070000  1
  H  H162  1  0.03079000  0.49687000  0.30910000  1
  H  H163  1  0.15106000  0.49628000  0.24642000  1
  H  H164  1  0.30743000  0.84390000  0.00723000  1
  H  H165  1  0.15038000  0.66948000  0.12527000  1
  H  H166  1  0.14543000  0.68431000  0.19503000  1
  H  H167  1  0.20482000  0.62842000  0.17998000  1
  H  H168  1  0.28749000  0.59690000  0.20231000  1
  H  H169  1  0.40813000  0.68876000  0.15517000  1
  H  H170  1  0.44422000  0.81206000  0.08433000  1
  H  H171  1  0.41265000  0.96587000  0.89806000  1
  H  H172  1  0.40579000  0.98710000  0.96421000  1
  H  H173  1  0.26238000  0.97370000  0.03447000  1
  H  H174  1  0.19444000  0.00408000  0.96543000  1
  H  H175  1  0.25671000  0.00264000  0.84569000  1
  H  H176  1  0.19120000  0.18565000  0.46393000  1
  H  H177  1  0.34955000  0.22460000  0.48053000  1
  H  H178  1  0.35481000  0.15989000  0.46076000  1
  H  H179  1  0.29561000  0.11586000  0.57559000  1
  H  H180  1  0.21308000  0.01139000  0.68977000  1
  H  H181  1  0.09240000  0.93795000  0.71860000  1
  H  H182  1  0.05616000  0.97176000  0.63128000  1
  H  H183  1  0.08634000  0.18833000  0.44547000  1
  H  H184  1  0.09507000  0.12957000  0.41727000  1
  H  H185  1  0.23779000  0.20382000  0.28737000  1
  H  H186  1  0.30538000  0.34093000  0.19010000  1
  H  H187  1  0.24256000  0.39755000  0.25477000  1
  H  H188  1  0.35193000  0.31461000  0.49232000  1
  H  H189  1  0.29489000  0.27587000  0.37463000  1
  H  H190  1  0.37937000  0.34063000  0.30474000  1
  H  H191  1  0.30933000  0.38527000  0.31926000  1
  H  H192  1  0.30005000  0.49006000  0.29687000  1
  H  H193  1  0.34373000  0.56295000  0.34496000  1
  H  H194  1  0.39585000  0.52814000  0.41623000  1
  H  H195  1  0.36425000  0.31101000  0.60178000  1
  H  H196  1  0.45166000  0.37018000  0.53580000  1
  H  H197  1  0.50819000  0.29656000  0.46567000  1
  H  H198  1  0.46956000  0.15977000  0.53501000  1
  H  H199  1  0.34889000  0.10281000  0.65505000  1
  H  H200  1  0.65549000  0.96309000  0.85135000  1
  H  H201  1  0.83028000  0.98054000  0.79512000  1
  H  H202  1  0.81577000  0.96085000  0.87960000  1
  H  H203  1  0.87163000  0.07612000  0.80852000  1
  H  H204  1  0.90316000  0.19035000  0.79887000  1
  H  H205  1  0.81116000  0.21912000  0.84345000  1
  H  H206  1  0.68779000  0.13198000  0.89605000  1
  H  H207  1  0.53327000  0.94658000  0.86475000  1
  H  H208  1  0.51254000  0.91842000  0.95198000  1
  H  H209  1  0.52596000  0.78833000  0.00822000  1
  H  H210  1  0.49566000  0.69045000  0.96912000  1
  H  H211  1  0.49635000  0.75423000  0.84843000  1
  H  H212  1  0.84490000  0.99415000  0.69144000  1
  H  H213  1  0.66967000  0.87496000  0.84953000  1
  H  H214  1  0.68440000  0.80515000  0.85434000  1
  H  H215  1  0.62872000  0.82088000  0.79517000  1
  H  H216  1  0.59705000  0.79808000  0.71289000  1
  H  H217  1  0.68884000  0.84438000  0.59262000  1
  H  H218  1  0.81224000  0.91418000  0.55659000  1
  H  H219  1  0.96766000  0.10157000  0.58627000  1
  H  H220  1  0.98760000  0.03435000  0.59472000  1
  H  H221  1  0.97409000  0.96547000  0.73795000  1
  H  H222  1  0.00421000  0.03503000  0.80550000  1
  H  H223  1  0.00350000  0.15505000  0.74198000  1
  H  H224  1  0.18549000  0.53732000  0.80694000  1
  H  H225  1  0.22420000  0.51932000  0.65053000  1
  H  H226  1  0.15924000  0.53892000  0.64546000  1
  H  H227  1  0.11490000  0.42441000  0.70447000  1
  H  H228  1  0.01046000  0.31021000  0.78678000  1
  H  H229  1  0.93754000  0.28088000  0.90777000  1
  H  H230  1  0.97215000  0.36780000  0.94425000  1
  H  H231  1  0.18932000  0.55342000  0.91273000  1
  H  H232  1  0.13007000  0.58163000  0.90579000  1
  H  H233  1  0.20365000  0.71167000  0.76206000  1
  H  H234  1  0.34066000  0.80943000  0.69458000  1
  H  H235  1  0.39768000  0.74555000  0.75766000  1
  H  H236  1  0.31442000  0.50723000  0.64859000  1
  H  H237  1  0.27554000  0.62549000  0.70506000  1
  H  H238  1  0.34022000  0.69518000  0.62057000  1
  H  H239  1  0.38481000  0.68023000  0.69129000  1
  H  H240  1  0.48978000  0.70246000  0.70045000  1
  H  H241  1  0.56312000  0.65506000  0.65585000  1
  H  H242  1  0.52821000  0.58417000  0.60345000  1
  H  H243  1  0.31104000  0.39815000  0.63532000  1
  H  H244  1  0.36975000  0.46459000  0.54808000  1
  H  H245  1  0.29566000  0.53390000  0.49217000  1
  H  H246  1  0.15839000  0.46465000  0.53197000  1
  H  H247  1  0.10186000  0.34508000  0.65295000  1
  H  H248  1  0.96268000  0.14716000  0.34514000  1
  H  H249  1  0.98087000  0.20502000  0.16988000  1
  H  H250  1  0.96113000  0.12056000  0.18443000  1
  H  H251  1  0.07624000  0.19134000  0.12878000  1
  H  H252  1  0.19050000  0.20085000  0.09717000  1
  H  H253  1  0.21942000  0.15608000  0.18894000  1
  H  H254  1  0.13215000  0.10316000  0.31229000  1
  H  H255  1  0.94584000  0.13224000  0.46820000  1
  H  H256  1  0.91691000  0.04520000  0.48773000  1
  H  H257  1  0.78718000  0.99012000  0.47524000  1
  H  H258  1  0.69011000  0.03055000  0.50432000  1
  H  H259  1  0.75514000  0.15186000  0.50225000  1
  H  H260  1  0.99239000  0.30690000  0.15594000  1
  H  H261  1  0.87539000  0.15077000  0.33014000  1
  H  H262  1  0.80504000  0.14525000  0.31603000  1
  H  H263  1  0.82019000  0.20481000  0.37130000  1
  H  H264  1  0.79810000  0.28733000  0.40303000  1
  H  H265  1  0.84559000  0.40812000  0.31130000  1
  H  H266  1  0.91630000  0.44430000  0.18800000  1
  H  H267  1  0.10194000  0.41255000  0.03423000  1
  H  H268  1  0.03589000  0.40571000  0.01278000  1
  H  H269  1  0.96575000  0.26211000  0.02625000  1
  H  H270  1  0.03521000  0.19449000  0.99598000  1
  H  H271  1  0.15510000  0.25722000  0.99720000  1
  H  H272  1  0.53771000  0.19309000  0.81483000  1
  H  H273  1  0.51885000  0.34913000  0.77585000  1
  H  H274  1  0.53867000  0.35466000  0.84049000  1
  H  H275  1  0.42389000  0.29531000  0.88508000  1
  H  H276  1  0.30974000  0.21291000  0.98964000  1
  H  H277  1  0.28073000  0.09211000  0.06273000  1
  H  H278  1  0.36779000  0.05573000  0.02821000  1
  H  H279  1  0.55354000  0.08660000  0.81207000  1
  H  H280  1  0.58232000  0.09470000  0.87061000  1
  H  H281  1  0.71186000  0.23897000  0.79571000  1
  H  H282  1  0.80881000  0.30668000  0.65844000  1
  H  H283  1  0.74477000  0.24146000  0.60286000  1
  H  H284  1  0.50711000  0.35170000  0.68547000  1
  H  H285  1  0.62501000  0.29484000  0.72447000  1
  H  H286  1  0.69497000  0.37928000  0.65992000  1
  H  H287  1  0.68045000  0.30907000  0.61520000  1
  H  H288  1  0.70287000  0.29984000  0.51040000  1
  H  H289  1  0.65514000  0.34396000  0.43721000  1
  H  H290  1  0.58384000  0.39610000  0.47190000  1
  H  H291  1  0.39789000  0.36471000  0.68875000  1
  H  H292  1  0.46430000  0.45195000  0.62973000  1
  H  H293  1  0.53402000  0.50825000  0.70355000  1
  H  H294  1  0.46478000  0.46910000  0.84049000  1
  H  H295  1  0.34493000  0.34828000  0.89732000  1
  C  C296  1  0.45272000  0.29049000  0.34930000  1
  C  C297  1  0.54082000  0.26216000  0.35430000  1
  C  C298  1  0.58840000  0.33124000  0.32738000  1
  C  C299  1  0.65291000  0.34895000  0.32282000  1
  C  C300  1  0.66918000  0.29773000  0.34751000  1
  C  C301  1  0.62083000  0.22877000  0.37631000  1
  C  C302  1  0.55666000  0.20961000  0.37902000  1
  C  C303  1  0.51122000  0.13509000  0.40596000  1
  C  C304  1  0.42227000  0.04572000  0.40330000  1
  C  C305  1  0.35240000  0.03076000  0.41330000  1
  C  C306  1  0.29477000  0.02304000  0.46248000  1
  C  C307  1  0.24315000  0.00735000  0.44280000  1
  C  C308  1  0.27219000  0.00628000  0.38287000  1
  C  C309  1  0.36051000  0.21010000  0.33737000  1
  C  C310  1  0.38388000  0.23833000  0.22111000  1
  C  C311  1  0.34190000  0.16919000  0.24267000  1
  C  C312  1  0.32888000  0.15129000  0.19596000  1
  C  C313  1  0.35543000  0.20239000  0.12850000  1
  C  C314  1  0.39544000  0.27139000  0.10783000  1
  C  C315  1  0.41173000  0.29076000  0.15276000  1
  C  C316  1  0.45931000  0.36526000  0.12369000  1
  C  C317  1  0.55093000  0.45459000  0.12356000  1
  C  C318  1  0.55633000  0.46956000  0.17827000  1
  C  C319  1  0.51529000  0.47762000  0.22813000  1
  C  C320  1  0.55106000  0.49317000  0.26378000  1
  C  C321  1  0.61184000  0.49382000  0.23358000  1
  C  C322  1  0.04752000  0.69796000  0.16233000  1
  C  C323  1  0.95973000  0.60526000  0.27860000  1
  C  C324  1  0.91202000  0.58478000  0.25711000  1
  C  C325  1  0.84749000  0.52505000  0.30383000  1
  C  C326  1  0.83135000  0.48409000  0.37120000  1
  C  C327  1  0.87991000  0.50334000  0.39175000  1
  C  C328  1  0.94408000  0.56463000  0.34682000  1
  C  C329  1  0.99009000  0.58294000  0.37550000  1
  C  C330  1  0.07888000  0.67425000  0.37622000  1
  C  C331  1  0.14833000  0.73451000  0.32129000  1
  C  C332  1  0.20648000  0.74349000  0.27167000  1
  C  C333  1  0.25749000  0.81494000  0.23603000  1
  C  C334  1  0.22749000  0.84533000  0.26603000  1
  C  C335  1  0.13980000  0.80203000  0.15043000  1
  C  C336  1  0.11641000  0.89499000  0.14548000  1
  C  C337  1  0.15874000  0.91562000  0.17231000  1
  C  C338  1  0.17189000  0.97548000  0.17694000  1
  C  C339  1  0.14504000  0.01624000  0.15257000  1
  C  C340  1  0.10469000  0.99671000  0.12388000  1
  C  C341  1  0.08836000  0.93541000  0.12096000  1
  C  C342  1  0.04076000  0.91694000  0.09399000  1
  C  C343  1  0.94910000  0.82574000  0.09605000  1
  C  C344  1  0.94358000  0.76559000  0.08650000  1
  C  C345  1  0.98452000  0.75665000  0.03745000  1
  C  C346  1  0.94875000  0.68533000  0.05755000  1
  C  C347  1  0.88805000  0.65492000  0.11759000  1
  C  C348  1  0.65016000  0.45247000  0.71000000  1
  C  C349  1  0.64548000  0.54056000  0.73828000  1
  C  C350  1  0.67273000  0.58820000  0.66917000  1
  C  C351  1  0.67770000  0.65283000  0.65134000  1
  C  C352  1  0.65310000  0.66915000  0.70249000  1
  C  C353  1  0.62409000  0.62080000  0.77147000  1
  C  C354  1  0.62094000  0.55648000  0.79076000  1
  C  C355  1  0.59394000  0.51101000  0.86525000  1
  C  C356  1  0.59625000  0.42190000  0.95465000  1
  C  C357  1  0.58666000  0.35219000  0.96971000  1
  C  C358  1  0.53762000  0.29427000  0.97771000  1
  C  C359  1  0.55787000  0.24311000  0.99327000  1
  C  C360  1  0.61792000  0.27264000  0.99404000  1
  C  C361  1  0.66231000  0.36055000  0.79031000  1
  C  C362  1  0.77872000  0.38418000  0.76180000  1
  C  C363  1  0.75737000  0.34235000  0.83089000  1
  C  C364  1  0.80401000  0.32870000  0.84852000  1
  C  C365  1  0.87118000  0.35449000  0.79725000  1
  C  C366  1  0.89163000  0.39423000  0.72825000  1
  C  C367  1  0.84674000  0.41111000  0.70916000  1
  C  C368  1  0.87549000  0.45813000  0.63457000  1
  C  C369  1  0.87672000  0.55054000  0.54494000  1
  C  C370  1  0.82182000  0.55596000  0.53026000  1
  C  C371  1  0.77184000  0.51498000  0.52223000  1
  C  C372  1  0.73599000  0.55060000  0.50705000  1
  C  C373  1  0.76620000  0.61124000  0.50661000  1
  C  C374  1  0.83767000  0.04750000  0.30221000  1
  C  C375  1  0.72138000  0.95955000  0.39502000  1
  C  C376  1  0.74315000  0.91218000  0.41571000  1
  C  C377  1  0.69652000  0.84771000  0.47553000  1
  C  C378  1  0.62892000  0.83130000  0.51622000  1
  C  C379  1  0.60804000  0.87948000  0.49668000  1
  C  C380  1  0.65292000  0.94364000  0.43541000  1
  C  C381  1  0.62372000  0.98903000  0.41697000  1
  C  C382  1  0.62341000  0.07827000  0.32573000  1
  C  C383  1  0.67807000  0.14787000  0.26557000  1
  C  C384  1  0.72797000  0.20588000  0.25658000  1
  C  C385  1  0.76349000  0.25695000  0.18525000  1
  C  C386  1  0.73315000  0.22723000  0.15488000  1
  C  C387  1  0.84963000  0.13977000  0.19799000  1
  C  C388  1  0.85461000  0.11641000  0.10502000  1
  C  C389  1  0.82764000  0.15860000  0.08439000  1
  C  C390  1  0.82295000  0.17172000  0.02454000  1
  C  C391  1  0.84748000  0.14505000  0.98373000  1
  C  C392  1  0.87629000  0.10483000  0.00327000  1
  C  C393  1  0.87920000  0.08846000  0.06457000  1
  C  C394  1  0.90613000  0.04083000  0.08303000  1
  C  C395  1  0.90431000  0.94951000  0.17425000  1
  C  C396  1  0.91332000  0.94377000  0.23470000  1
  C  C397  1  0.96215000  0.98443000  0.24409000  1
  C  C398  1  0.94145000  0.94853000  0.31554000  1
  C  C399  1  0.88131000  0.88802000  0.34558000  1
  C  C400  1  0.28979000  0.65034000  0.54755000  1
  C  C401  1  0.26157000  0.64546000  0.45946000  1
  C  C402  1  0.33076000  0.67261000  0.41191000  1
  C  C403  1  0.34856000  0.67732000  0.34739000  1
  C  C404  1  0.29736000  0.65263000  0.33108000  1
  C  C405  1  0.22832000  0.62361000  0.37938000  1
  C  C406  1  0.20904000  0.62066000  0.44359000  1
  C  C407  1  0.13433000  0.59290000  0.48924000  1
  C  C408  1  0.04403000  0.59351000  0.57922000  1
  C  C409  1  0.02948000  0.58501000  0.64847000  1
  C  C410  1  0.02117000  0.53622000  0.70674000  1
  C  C411  1  0.00625000  0.55727000  0.75728000  1
  C  C412  1  0.00616000  0.61756000  0.72698000  1
  C  C413  1  0.20953000  0.66246000  0.63971000  1
  C  C414  1  0.23800000  0.77880000  0.61639000  1
  C  C415  1  0.16887000  0.75730000  0.65847000  1
  C  C416  1  0.15108000  0.80404000  0.67159000  1
  C  C417  1  0.20227000  0.87150000  0.64500000  1
  C  C418  1  0.27128000  0.89213000  0.60484000  1
  C  C419  1  0.29055000  0.84715000  0.58850000  1
  C  C420  1  0.36509000  0.87624000  0.54088000  1
  C  C421  1  0.45441000  0.87627000  0.44942000  1
  C  C422  1  0.46937000  0.82155000  0.44399000  1
  C  C423  1  0.47767000  0.77180000  0.48486000  1
  C  C424  1  0.49329000  0.73620000  0.44912000  1
  C  C425  1  0.49372000  0.76633000  0.38850000  1
  C  C426  1  0.69790000  0.83750000  0.95265000  1
  C  C427  1  0.60493000  0.72123000  0.04056000  1
  C  C428  1  0.58450000  0.74279000  0.08814000  1
  C  C429  1  0.52484000  0.69609000  0.15272000  1
  C  C430  1  0.48400000  0.62859000  0.16906000  1
  C  C431  1  0.50333000  0.60790000  0.12072000  1
  C  C432  1  0.56448000  0.65284000  0.05645000  1
  C  C433  1  0.58288000  0.62371000  0.01102000  1
  C  C434  1  0.67401000  0.62354000  0.92159000  1
  C  C435  1  0.73445000  0.67818000  0.85217000  1
  C  C436  1  0.74395000  0.72876000  0.79436000  1
  C  C437  1  0.81553000  0.76429000  0.74367000  1
  C  C438  1  0.84544000  0.73313000  0.77337000  1
  C  C439  1  0.80201000  0.84936000  0.86038000  1
  C  C440  1  0.89508000  0.85435000  0.88374000  1
  C  C441  1  0.91578000  0.82750000  0.84150000  1
  C  C442  1  0.97584000  0.82312000  0.82817000  1
  C  C443  1  0.01681000  0.84785000  0.85467000  1
  C  C444  1  0.99715000  0.87647000  0.89502000  1
  C  C445  1  0.93561000  0.87905000  0.91162000  1
  C  C446  1  0.91708000  0.90593000  0.95928000  1
  C  C447  1  0.82560000  0.90360000  0.05098000  1
  C  C448  1  0.76555000  0.91331000  0.05618000  1
  C  C449  1  0.75681000  0.96247000  0.01510000  1
  C  C450  1  0.68548000  0.94252000  0.05061000  1
  C  C451  1  0.65484000  0.88241000  0.11131000  1
  C  C452  1  0.15059000  0.79015000  0.04740000  1
  C  C453  1  0.14556000  0.76178000  0.95944000  1
  C  C454  1  0.17259000  0.83089000  0.91192000  1
  C  C455  1  0.17742000  0.84871000  0.84736000  1
  C  C456  1  0.15295000  0.79759000  0.83096000  1
  C  C457  1  0.12408000  0.72860000  0.87923000  1
  C  C458  1  0.12104000  0.70931000  0.94350000  1
  C  C459  1  0.09410000  0.63480000  0.98891000  1
  C  C460  1  0.09659000  0.54545000  0.07793000  1
  C  C461  1  0.08671000  0.53043000  0.14772000  1
  C  C462  1  0.03766000  0.52287000  0.20531000  1
  C  C463  1  0.05754000  0.50722000  0.25675000  1
  C  C464  1  0.11740000  0.50595000  0.22771000  1
  C  C465  1  0.16240000  0.70971000  0.13969000  1
  C  C466  1  0.27877000  0.73793000  0.11632000  1
  C  C467  1  0.25731000  0.66883000  0.15836000  1
  C  C468  1  0.30411000  0.65111000  0.17154000  1
  C  C469  1  0.37152000  0.70231000  0.14516000  1
  C  C470  1  0.39209000  0.77128000  0.10508000  1
  C  C471  1  0.34709000  0.79044000  0.08860000  1
  C  C472  1  0.37612000  0.86494000  0.04107000  1
  C  C473  1  0.37638000  0.95426000  0.94923000  1
  C  C474  1  0.32149000  0.96913000  0.94405000  1
  C  C475  1  0.27184000  0.97745000  0.98502000  1
  C  C476  1  0.23600000  0.99297000  0.94947000  1
  C  C477  1  0.26591000  0.99334000  0.88886000  1
  C  C478  1  0.33771000  0.19821000  0.45224000  1
  C  C479  1  0.22143000  0.10544000  0.54011000  1
  C  C480  1  0.24305000  0.08510000  0.58772000  1
  C  C481  1  0.19634000  0.02535000  0.65221000  1
  C  C482  1  0.12890000  0.98436000  0.66841000  1
  C  C483  1  0.10821000  0.00347000  0.61997000  1
  C  C484  1  0.15315000  0.06473000  0.55579000  1
  C  C485  1  0.12436000  0.08285000  0.50983000  1
  C  C486  1  0.12345000  0.17404000  0.42109000  1
  C  C487  1  0.17833000  0.23440000  0.35171000  1
  C  C488  1  0.22812000  0.24355000  0.29358000  1
  C  C489  1  0.26376000  0.31502000  0.24275000  1
  C  C490  1  0.23361000  0.34530000  0.27278000  1
  C  C491  1  0.34960000  0.30232000  0.36007000  1
  C  C492  1  0.35463000  0.39523000  0.38350000  1
  C  C493  1  0.32784000  0.41594000  0.34116000  1
  C  C494  1  0.32320000  0.47580000  0.32798000  1
  C  C495  1  0.34752000  0.51651000  0.35484000  1
  C  C496  1  0.37615000  0.49689000  0.39524000  1
  C  C497  1  0.37909000  0.43559000  0.41158000  1
  C  C498  1  0.40598000  0.41703000  0.45923000  1
  C  C499  1  0.40390000  0.32574000  0.55075000  1
  C  C500  1  0.41355000  0.26565000  0.55622000  1
  C  C501  1  0.46263000  0.25676000  0.51523000  1
  C  C502  1  0.44268000  0.18550000  0.55100000  1
  C  C503  1  0.38267000  0.15505000  0.61174000  1
  C  C504  1  0.79018000  0.95240000  0.84976000  1
  C  C505  1  0.76200000  0.04056000  0.85439000  1
  C  C506  1  0.83117000  0.08822000  0.82717000  1
  C  C507  1  0.84889000  0.15277000  0.82241000  1
  C  C508  1  0.79760000  0.16895000  0.84715000  1
  C  C509  1  0.72857000  0.12058000  0.87610000  1
  C  C510  1  0.70941000  0.05637000  0.87906000  1
  C  C511  1  0.63482000  0.01082000  0.90626000  1
  C  C512  1  0.54510000  0.92181000  0.90410000  1
  C  C513  1  0.53006000  0.85213000  0.91358000  1
  C  C514  1  0.52203000  0.79418000  0.96256000  1
  C  C515  1  0.50643000  0.74300000  0.94238000  1
  C  C516  1  0.50573000  0.77262000  0.88234000  1
  C  C517  1  0.70987000  0.86045000  0.83759000  1
  C  C518  1  0.73833000  0.88395000  0.72137000  1
  C  C519  1  0.66913000  0.84216000  0.74283000  1
  C  C520  1  0.65133000  0.82869000  0.69624000  1
  C  C521  1  0.70253000  0.85459000  0.62905000  1
  C  C522  1  0.77162000  0.89434000  0.60848000  1
  C  C523  1  0.79088000  0.91110000  0.65329000  1
  C  C524  1  0.86550000  0.95812000  0.62450000  1
  C  C525  1  0.95535000  0.05036000  0.62325000  1
  C  C526  1  0.97010000  0.05598000  0.67802000  1
  C  C527  1  0.97800000  0.01504000  0.72813000  1
  C  C528  1  0.99342000  0.05089000  0.76369000  1
  C  C529  1  0.99411000  0.11162000  0.73319000  1
  C  C530  1  0.19766000  0.54750000  0.66245000  1
  C  C531  1  0.10492000  0.45958000  0.77872000  1
  C  C532  1  0.08429000  0.41212000  0.75707000  1
  C  C533  1  0.02459000  0.34756000  0.80370000  1
  C  C534  1  0.98389000  0.33112000  0.87126000  1
  C  C535  1  0.00337000  0.37936000  0.89204000  1
  C  C536  1  0.06456000  0.44363000  0.84713000  1
  C  C537  1  0.08306000  0.48900000  0.87628000  1
  C  C538  1  0.17450000  0.57823000  0.87640000  1
  C  C539  1  0.23459000  0.64787000  0.82177000  1
  C  C540  1  0.24349000  0.70579000  0.77186000  1
  C  C541  1  0.31488000  0.75689000  0.73630000  1
  C  C542  1  0.34537000  0.72729000  0.76662000  1
  C  C543  1  0.30187000  0.63983000  0.65046000  1
  C  C544  1  0.39490000  0.61640000  0.64554000  1
  C  C545  1  0.41559000  0.65850000  0.67253000  1
  C  C546  1  0.47557000  0.67163000  0.67706000  1
  C  C547  1  0.51652000  0.64513000  0.65229000  1
  C  C548  1  0.49690000  0.60498000  0.62348000  1
  C  C549  1  0.43543000  0.58857000  0.62079000  1
  C  C550  1  0.41694000  0.54099000  0.59384000  1
  C  C551  1  0.32548000  0.44929000  0.59612000  1
  C  C552  1  0.26509000  0.44379000  0.58697000  1
  C  C553  1  0.25590000  0.48452000  0.53801000  1
  C  C554  1  0.18438000  0.44881000  0.55861000  1
  C  C555  1  0.15413000  0.38834000  0.61883000  1
  C  C556  1  0.95264000  0.15038000  0.21001000  1
  C  C557  1  0.04076000  0.14545000  0.23828000  1
  C  C558  1  0.08839000  0.17264000  0.16917000  1
  C  C559  1  0.15295000  0.17730000  0.15140000  1
  C  C560  1  0.16924000  0.15248000  0.20255000  1
  C  C561  1  0.12082000  0.12334000  0.27152000  1
  C  C562  1  0.05659000  0.12048000  0.29077000  1
  C  C563  1  0.01092000  0.09273000  0.36542000  1
  C  C564  1  0.92109000  0.09371000  0.45551000  1
  C  C565  1  0.85175000  0.08508000  0.47004000  1
  C  C566  1  0.79346000  0.03617000  0.47847000  1
  C  C567  1  0.74281000  0.05716000  0.49332000  1
  C  C568  1  0.77307000  0.11753000  0.49327000  1
  C  C569  1  0.86047000  0.16245000  0.29026000  1
  C  C570  1  0.88378000  0.27878000  0.26186000  1
  C  C571  1  0.84185000  0.25730000  0.33096000  1
  C  C572  1  0.82885000  0.30405000  0.34879000  1
  C  C573  1  0.85542000  0.37152000  0.29766000  1
  C  C574  1  0.89544000  0.39214000  0.22868000  1
  C  C575  1  0.91166000  0.34714000  0.20938000  1
  C  C576  1  0.95923000  0.37620000  0.13489000  1
  C  C577  1  0.05084000  0.37627000  0.04565000  1
  C  C578  1  0.05624000  0.32153000  0.03072000  1
  C  C579  1  0.01530000  0.27177000  0.02248000  1
  C  C580  1  0.05107000  0.23612000  0.00697000  1
  C  C581  1  0.11176000  0.26622000  0.00652000  1
  C  C582  1  0.54721000  0.33748000  0.80227000  1
  C  C583  1  0.45938000  0.22120000  0.89523000  1
  C  C584  1  0.41178000  0.24278000  0.91579000  1
  C  C585  1  0.34725000  0.19612000  0.97554000  1
  C  C586  1  0.33094000  0.12862000  0.01636000  1
  C  C587  1  0.37930000  0.10792000  0.99689000  1
  C  C588  1  0.44352000  0.15280000  0.93568000  1
  C  C589  1  0.48896000  0.12366000  0.91723000  1
  C  C590  1  0.57852000  0.12349000  0.82625000  1
  C  C591  1  0.64792000  0.17814000  0.76578000  1
  C  C592  1  0.70581000  0.22873000  0.75620000  1
  C  C593  1  0.75653000  0.26421000  0.68470000  1
  C  C594  1  0.72674000  0.23303000  0.65490000  1
  C  C595  1  0.63955000  0.34951000  0.69810000  1
  C  C596  1  0.61630000  0.35453000  0.60504000  1
  C  C597  1  0.65859000  0.32764000  0.58446000  1
  C  C598  1  0.67182000  0.32308000  0.52458000  1
  C  C599  1  0.64513000  0.34760000  0.48371000  1
  C  C600  1  0.60477000  0.37630000  0.50322000  1
  C  C601  1  0.58833000  0.37913000  0.56455000  1
  C  C602  1  0.54066000  0.40605000  0.58300000  1
  C  C603  1  0.44905000  0.40407000  0.67417000  1
  C  C604  1  0.44359000  0.41353000  0.73434000  1
  C  C605  1  0.48453000  0.46255000  0.74332000  1
  C  C606  1  0.44884000  0.44233000  0.81466000  1
  C  C607  1  0.38817000  0.38224000  0.84506000  1
  C  C608  1  0.37515000  0.25029000  0.37474000  1
  C  C609  1  0.12507000  0.74998000  0.12492000  1
  C  C610  1  0.62476000  0.37496000  0.75019000  1
  C  C611  1  0.87508000  0.12502000  0.25012000  1
  C  C612  1  0.24969000  0.62503000  0.62504000  1
  C  C613  1  0.74994000  0.87489000  0.87514000  1
  N  N614  1  0.46641000  0.11742000  0.38322000  1
  N  N615  1  0.37218000  0.98456000  0.65500000  1
  N  N616  1  0.49936000  0.38290000  0.15114000  1
  N  N617  1  0.36089000  0.51551000  0.11243000  1
  N  N618  1  0.03382000  0.65047000  0.34934000  1
  N  N619  1  0.12887000  0.47126000  0.38836000  1
  N  N620  1  0.00060000  0.84951000  0.11639000  1
  N  N621  1  0.13969000  0.02742000  0.84487000  1
  N  N622  1  0.61632000  0.46588000  0.88294000  1
  N  N623  1  0.34530000  0.37204000  0.01553000  1
  N  N624  1  0.84937000  0.49964000  0.61683000  1
  N  N625  1  0.88674000  0.35740000  0.48713000  1
  N  N626  1  0.65106000  0.03408000  0.34954000  1
  N  N627  1  0.61242000  0.12780000  0.52735000  1
  N  N628  1  0.88391000  0.00093000  0.15044000  1
  N  N629  1  0.15462000  0.13917000  0.97323000  1
  N  N630  1  0.11611000  0.61479000  0.53464000  1
  N  N631  1  0.98867000  0.34452000  0.62530000  1
  N  N632  1  0.38269000  0.84865000  0.50099000  1
  N  N633  1  0.51539000  0.88743000  0.63905000  1
  N  N634  1  0.65031000  0.65121000  0.96576000  1
  N  N635  1  0.47310000  0.61235000  0.87212000  1
  N  N636  1  0.84956000  0.88332000  0.99951000  1
  N  N637  1  0.02705000  0.15494000  0.86052000  1
  N  N638  1  0.11655000  0.61713000  0.03397000  1
  N  N639  1  0.84525000  0.48446000  0.12793000  1
  N  N640  1  0.34898000  0.88257000  0.00066000  1
  N  N641  1  0.38763000  0.01552000  0.13969000  1
  N  N642  1  0.15044000  0.15041000  0.46609000  1
  N  N643  1  0.11138000  0.97090000  0.37168000  1
  N  N644  1  0.38373000  0.34960000  0.49914000  1
  N  N645  1  0.65458000  0.52678000  0.36090000  1
  N  N646  1  0.61696000  0.96596000  0.88366000  1
  N  N647  1  0.48459000  0.87221000  0.15501000  1
  N  N648  1  0.88336000  0.99952000  0.65066000  1
  N  N649  1  0.01276000  0.85726000  0.61320000  1
  N  N650  1  0.15055000  0.53416000  0.84874000  1
  N  N651  1  0.97288000  0.62785000  0.88761000  1
  N  N652  1  0.34942000  0.50065000  0.61654000  1
  N  N653  1  0.52711000  0.63957000  0.34494000  1
  N  N654  1  0.96578000  0.11497000  0.38353000  1
  N  N655  1  0.87416000  0.84424000  0.51116000  1
  N  N656  1  0.99921000  0.34866000  0.11731000  1
  N  N657  1  0.86095000  0.38746000  0.98457000  1
  N  N658  1  0.53426000  0.15113000  0.84990000  1
  N  N659  1  0.62784000  0.11246000  0.02670000  1
  N  N660  1  0.50046000  0.38362000  0.65040000  1
  N  N661  1  0.63959000  0.65507000  0.47268000  1
  O  O662  1  0.51736000  0.08969000  0.44574000  1
  O  O663  1  0.33923000  0.02078000  0.36368000  1
  O  O664  1  0.47689000  0.24155000  0.35895000  1
  O  O665  1  0.40294000  0.02821000  0.58991000  1
  O  O666  1  0.39717000  0.94625000  0.67365000  1
  O  O667  1  0.32024000  0.98018000  0.69701000  1
  O  O668  1  0.46526000  0.41065000  0.07192000  1
  O  O669  1  0.61605000  0.47922000  0.18121000  1
  O  O670  1  0.39972000  0.25905000  0.26438000  1
  O  O671  1  0.38226000  0.47177000  0.12533000  1
  O  O672  1  0.38092000  0.55400000  0.04912000  1
  O  O673  1  0.32300000  0.51980000  0.15990000  1
  O  O674  1  0.98538000  0.53675000  0.42563000  1
  O  O675  1  0.16049000  0.79711000  0.31818000  1
  O  O676  1  0.02370000  0.66434000  0.23530000  1
  O  O677  1  0.09578000  0.50269000  0.37500000  1
  O  O678  1  0.10516000  0.42955000  0.45177000  1
  O  O679  1  0.18163000  0.48213000  0.34100000  1
  O  O680  1  0.03489000  0.96279000  0.05440000  1
  O  O681  1  0.88387000  0.70307000  0.13645000  1
  O  O682  1  0.10047000  0.83581000  0.14074000  1
  O  O683  1  0.11845000  0.99351000  0.90995000  1
  O  O684  1  0.12006000  0.07103000  0.82609000  1
  O  O685  1  0.17707000  0.01707000  0.80311000  1
  O  O686  1  0.55444000  0.51737000  0.91062000  1
  O  O687  1  0.63668000  0.33960000  0.97951000  1
  O  O688  1  0.64051000  0.47656000  0.75896000  1
  O  O689  1  0.41035000  0.40292000  0.97166000  1
  O  O690  1  0.32693000  0.39679000  0.05416000  1
  O  O691  1  0.30311000  0.32029000  0.01980000  1
  O  O692  1  0.92569000  0.46217000  0.58917000  1
  O  O693  1  0.81875000  0.61548000  0.52097000  1
  O  O694  1  0.73541000  0.40053000  0.74145000  1
  O  O695  1  0.87446000  0.38412000  0.52578000  1
  O  O696  1  0.94941000  0.37221000  0.45363000  1
  O  O697  1  0.83976000  0.31934000  0.48239000  1
  O  O698  1  0.57195000  0.98272000  0.46277000  1
  O  O699  1  0.68081000  0.16029000  0.20308000  1
  O  O700  1  0.76458000  0.02342000  0.33584000  1
  O  O701  1  0.62512000  0.09649000  0.49360000  1
  O  O702  1  0.54919000  0.10311000  0.57081000  1
  O  O703  1  0.66009000  0.17992000  0.51706000  1
  O  O704  1  0.94544000  0.03468000  0.03728000  1
  O  O705  1  0.86296000  0.88413000  0.29705000  1
  O  O706  1  0.85931000  0.10045000  0.16425000  1
  O  O707  1  0.08947000  0.11765000  0.00757000  1
  O  O708  1  0.17313000  0.11926000  0.92982000  1
  O  O709  1  0.19671000  0.17703000  0.98294000  1
  O  O710  1  0.08934000  0.55294000  0.48282000  1
  O  O711  1  0.02056000  0.63570000  0.66018000  1
  O  O712  1  0.24080000  0.64062000  0.52343000  1
  O  O713  1  0.02599000  0.40983000  0.60039000  1
  O  O714  1  0.95743000  0.32617000  0.59408000  1
  O  O715  1  0.98292000  0.30124000  0.67746000  1
  O  O716  1  0.41056000  0.92809000  0.53477000  1
  O  O717  1  0.47891000  0.81858000  0.38438000  1
  O  O718  1  0.25861000  0.73545000  0.60056000  1
  O  O719  1  0.47175000  0.87449000  0.61753000  1
  O  O720  1  0.55381000  0.95076000  0.61907000  1
  O  O721  1  0.51970000  0.84002000  0.67703000  1
  O  O722  1  0.53706000  0.57184000  0.01751000  1
  O  O723  1  0.79676000  0.68039000  0.83996000  1
  O  O724  1  0.66397000  0.76450000  0.97656000  1
  O  O725  1  0.50706000  0.62522000  0.90324000  1
  O  O726  1  0.42992000  0.54906000  0.89673000  1
  O  O727  1  0.48289000  0.65990000  0.82028000  1
  O  O728  1  0.96289000  0.94557000  0.96511000  1
  O  O729  1  0.70290000  0.86343000  0.11573000  1
  O  O730  1  0.83573000  0.85887000  0.89979000  1
  O  O731  1  0.99272000  0.08978000  0.88219000  1
  O  O732  1  0.07084000  0.17373000  0.87998000  1
  O  O733  1  0.01700000  0.19683000  0.82289000  1
  O  O734  1  0.05459000  0.58942000  0.98255000  1
  O  O735  1  0.13638000  0.52030000  0.16079000  1
  O  O736  1  0.14072000  0.74111000  0.02339000  1
  O  O737  1  0.91036000  0.52817000  0.09713000  1
  O  O738  1  0.82675000  0.44606000  0.10300000  1
  O  O739  1  0.80313000  0.48012000  0.17976000  1
  O  O740  1  0.42759000  0.91033000  0.03554000  1
  O  O741  1  0.31820000  0.97851000  0.88460000  1
  O  O742  1  0.23548000  0.75856000  0.10030000  1
  O  O743  1  0.37492000  0.97186000  0.11821000  1
  O  O744  1  0.45087000  0.05379000  0.12018000  1
  O  O745  1  0.33995000  0.01985000  0.17722000  1
  O  O746  1  0.07429000  0.03660000  0.51457000  1
  O  O747  1  0.18130000  0.29694000  0.33966000  1
  O  O748  1  0.26467000  0.16452000  0.47614000  1
  O  O749  1  0.12462000  0.00221000  0.40486000  1
  O  O750  1  0.04795000  0.92917000  0.39531000  1
  O  O751  1  0.15880000  0.98189000  0.31891000  1
  O  O752  1  0.44539000  0.46279000  0.46532000  1
  O  O753  1  0.36369000  0.20313000  0.61596000  1
  O  O754  1  0.35935000  0.33603000  0.39940000  1
  O  O755  1  0.58944000  0.49249000  0.38236000  1
  O  O756  1  0.67308000  0.57017000  0.38085000  1
  O  O757  1  0.69665000  0.51704000  0.32307000  1
  O  O758  1  0.58952000  0.01691000  0.94620000  1
  O  O759  1  0.52032000  0.83959000  0.86356000  1
  O  O760  1  0.74123000  0.97655000  0.85933000  1
  O  O761  1  0.52867000  0.90347000  0.09002000  1
  O  O762  1  0.44588000  0.89680000  0.17368000  1
  O  O763  1  0.48023000  0.82021000  0.19693000  1
  O  O764  1  0.91085000  0.96226000  0.57419000  1
  O  O765  1  0.97970000  0.11572000  0.68072000  1
  O  O766  1  0.75899000  0.89994000  0.76462000  1
  O  O767  1  0.97403000  0.88393000  0.62550000  1
  O  O768  1  0.04615000  0.87196000  0.55061000  1
  O  O769  1  0.01763000  0.81934000  0.66014000  1
  O  O770  1  0.03730000  0.48259000  0.92814000  1
  O  O771  1  0.29717000  0.66039000  0.81899000  1
  O  O772  1  0.16405000  0.52350000  0.73546000  1
  O  O773  1  0.00696000  0.59680000  0.87485000  1
  O  O774  1  0.92935000  0.60301000  0.95083000  1
  O  O775  1  0.98295000  0.67984000  0.84000000  1
  O  O776  1  0.46282000  0.53532000  0.55409000  1
  O  O777  1  0.20258000  0.38431000  0.63731000  1
  O  O778  1  0.33558000  0.60042000  0.64094000  1
  O  O779  1  0.49300000  0.61818000  0.41003000  1
  O  O780  1  0.57073000  0.61992000  0.32621000  1
  O  O781  1  0.51702000  0.67716000  0.30304000  1
  O  O782  1  0.01714000  0.05257000  0.41041000  1
  O  O783  1  0.83996000  0.13579000  0.47883000  1
  O  O784  1  0.97677000  0.14068000  0.25898000  1
  O  O785  1  0.89896000  0.90949000  0.47376000  1
  O  O786  1  0.90531000  0.82607000  0.54262000  1
  O  O787  1  0.82216000  0.80080000  0.51677000  1
  O  O788  1  0.96525000  0.42800000  0.08947000  1
  O  O789  1  0.11589000  0.31852000  0.02122000  1
  O  O790  1  0.89954000  0.23544000  0.24122000  1
  O  O791  1  0.88236000  0.37449000  0.02827000  1
  O  O792  1  0.88115000  0.45083000  0.94603000  1
  O  O793  1  0.82288000  0.34003000  0.98036000  1
  O  O794  1  0.48245000  0.07172000  0.96303000  1
  O  O795  1  0.66008000  0.18034000  0.70354000  1
  O  O796  1  0.52337000  0.26448000  0.83616000  1
  O  O797  1  0.59712000  0.12530000  0.99224000  1
  O  O798  1  0.60288000  0.04922000  0.07027000  1
  O  O799  1  0.67968000  0.15996000  0.01701000  1
  O  O800  1  0.53479000  0.44563000  0.53715000  1
  O  O801  1  0.38394000  0.36347000  0.79688000  1
  O  O802  1  0.60031000  0.35926000  0.66422000  1
  O  O803  1  0.61809000  0.58992000  0.50680000  1
  O  O804  1  0.62009000  0.67389000  0.42896000  1
  O  O805  1  0.67707000  0.69686000  0.48293000  1
