# generated using pymatgen
data_H17(C5N)4
_symmetry_space_group_name_H-M   'P 1'
_cell_length_a   55.51980000
_cell_length_b   55.51980000
_cell_length_c   55.51980000
_cell_angle_alpha   90.00000000
_cell_angle_beta   90.00000000
_cell_angle_gamma   90.00000000
_symmetry_Int_Tables_number   1
_chemical_formula_structural   H17(C5N)4
_chemical_formula_sum   'H816 C960 N192'
_cell_volume   171136.90713242
_cell_formula_units_Z   48
loop_
 _symmetry_equiv_pos_site_id
 _symmetry_equiv_pos_as_xyz
  1  'x, y, z'
loop_
 _atom_site_type_symbol
 _atom_site_label
 _atom_site_symmetry_multiplicity
 _atom_site_fract_x
 _atom_site_fract_y
 _atom_site_fract_z
 _atom_site_occupancy
  H  7  1  0.31281100  0.34403900  0.03378700  1
  H  8  1  0.31965500  0.34271000  0.95762500  1
  H  9  1  0.26957200  0.38738200  0.99088700  1
  H  16  1  0.34267400  0.31959400  0.03644100  1
  H  17  1  0.38737700  0.26954300  0.00317800  1
  H  18  1  0.34405700  0.31280900  0.96028200  1
  H  29  1  0.68124500  0.65003300  0.03380700  1
  H  30  1  0.67435400  0.65134900  0.95764700  1
  H  31  1  0.72446900  0.60669100  0.99087300  1
  H  38  1  0.65134900  0.67443800  0.03646100  1
  H  39  1  0.60663900  0.72448500  0.00321200  1
  H  40  1  0.65002400  0.68128400  0.96031100  1
  H  51  1  0.68126100  0.34405200  0.96030200  1
  H  52  1  0.67439100  0.34277100  0.03647300  1
  H  53  1  0.72449400  0.38740000  0.00318000  1
  H  60  1  0.65142700  0.31965900  0.95770500  1
  H  61  1  0.60676900  0.26954500  0.99091400  1
  H  62  1  0.65000400  0.31286500  0.03387000  1
  H  73  1  0.31279600  0.65002700  0.96028600  1
  H  74  1  0.31956100  0.65141000  0.03643900  1
  H  75  1  0.26952400  0.60669500  0.00318300  1
  H  82  1  0.34269400  0.67442900  0.95763300  1
  H  83  1  0.38738200  0.72448300  0.99090700  1
  H  84  1  0.34403400  0.68124800  0.03379300  1
  H  95  1  0.03376700  0.31282300  0.34407500  1
  H  96  1  0.95761100  0.31955600  0.34266700  1
  H  97  1  0.99087300  0.26951500  0.38738100  1
  H  104  1  0.03642600  0.34266100  0.31960700  1
  H  105  1  0.00316600  0.38736100  0.26955400  1
  H  106  1  0.96026600  0.34406300  0.31284300  1
  H  117  1  0.03377600  0.68126100  0.65001300  1
  H  118  1  0.95761600  0.67439300  0.65132000  1
  H  119  1  0.99087800  0.72448700  0.60665200  1
  H  126  1  0.03644100  0.65137100  0.67442200  1
  H  127  1  0.00320500  0.60665200  0.72446900  1
  H  128  1  0.96029700  0.65003100  0.68126300  1
  H  139  1  0.96022600  0.68123400  0.34403200  1
  H  140  1  0.03639500  0.67437900  0.34270600  1
  H  141  1  0.00315300  0.72450100  0.38732500  1
  H  148  1  0.95767600  0.65139200  0.31963700  1
  H  149  1  0.99091300  0.60675600  0.26952500  1
  H  150  1  0.03384900  0.64999100  0.31285000  1
  H  161  1  0.96028400  0.31277500  0.65004900  1
  H  162  1  0.03644100  0.31963900  0.65136200  1
  H  163  1  0.00318000  0.26957800  0.60667000  1
  H  170  1  0.95762500  0.34269400  0.67443500  1
  H  171  1  0.99089600  0.38739300  0.72448700  1
  H  172  1  0.03378300  0.34402800  0.68127200  1
  H  183  1  0.34403000  0.03380800  0.31282500  1
  H  184  1  0.34268700  0.95764500  0.31966200  1
  H  185  1  0.38734600  0.99089300  0.26956500  1
  H  192  1  0.31958500  0.03645400  0.34268700  1
  H  193  1  0.26953600  0.00318100  0.38738200  1
  H  194  1  0.31280200  0.96029300  0.34406100  1
  H  205  1  0.65000900  0.03387500  0.68120200  1
  H  206  1  0.65143800  0.95771200  0.67442400  1
  H  207  1  0.60677100  0.99092200  0.72453400  1
  H  214  1  0.67444500  0.03647000  0.65133300  1
  H  215  1  0.72448700  0.00319700  0.60664600  1
  H  216  1  0.68126500  0.96031100  0.65000900  1
  H  227  1  0.34405200  0.96029700  0.68126500  1
  H  228  1  0.34276800  0.03646600  0.67438200  1
  H  229  1  0.38739900  0.00318800  0.72448900  1
  H  236  1  0.31966100  0.95769600  0.65141400  1
  H  237  1  0.26954300  0.99090500  0.60675800  1
  H  238  1  0.31286100  0.03386000  0.64999800  1
  H  249  1  0.65006100  0.96026800  0.31278900  1
  H  250  1  0.65138900  0.03642800  0.31964600  1
  H  251  1  0.60670200  0.00317700  0.26957400  1
  H  258  1  0.67444200  0.95761800  0.34270600  1
  H  259  1  0.72449400  0.99089500  0.38739700  1
  H  260  1  0.68128100  0.03377900  0.34403400  1
  H  271  1  0.81228100  0.84224000  0.53445800  1
  H  272  1  0.82120400  0.84523700  0.45849400  1
  H  273  1  0.76951100  0.88757700  0.49263800  1
  H  280  1  0.84525300  0.82082200  0.53583400  1
  H  281  1  0.88753000  0.76933400  0.50101000  1
  H  282  1  0.84211700  0.81231500  0.45978500  1
  H  293  1  0.18188100  0.15181700  0.53437100  1
  H  294  1  0.17301200  0.14891600  0.45837900  1
  H  295  1  0.22467300  0.10654500  0.49262000  1
  H  302  1  0.14894300  0.17300200  0.53578700  1
  H  303  1  0.10665200  0.22462600  0.50128900  1
  H  304  1  0.15184700  0.18176000  0.45972600  1
  H  315  1  0.18283600  0.84278200  0.45952000  1
  H  316  1  0.17176000  0.84450700  0.53503800  1
  H  317  1  0.22380100  0.88818200  0.50336400  1
  H  324  1  0.15091700  0.82113000  0.45774500  1
  H  325  1  0.10681200  0.77000200  0.49000100  1
  H  326  1  0.15115600  0.81145400  0.53372500  1
  H  337  1  0.81280100  0.15015500  0.46019200  1
  H  338  1  0.81927300  0.15165300  0.53643400  1
  H  339  1  0.76958600  0.10662900  0.50302600  1
  H  346  1  0.84241100  0.17478700  0.45762600  1
  H  347  1  0.88745600  0.22445300  0.49103400  1
  H  348  1  0.84391600  0.18125100  0.53386500  1
  H  359  1  0.53407200  0.81137500  0.84228600  1
  H  360  1  0.45807100  0.82077300  0.84522200  1
  H  361  1  0.49271400  0.76926700  0.88792400  1
  H  368  1  0.53580100  0.84350800  0.82201800  1
  H  369  1  0.50412800  0.88700700  0.77034800  1
  H  370  1  0.45993700  0.84282700  0.81196000  1
  H  381  1  0.53432300  0.18197600  0.15178800  1
  H  382  1  0.45832500  0.17305000  0.14892300  1
  H  383  1  0.49257200  0.22470300  0.10650400  1
  H  390  1  0.53552900  0.14903400  0.17263800  1
  H  391  1  0.50177900  0.10655600  0.22442600  1
  H  392  1  0.45958400  0.15173100  0.18183600  1
  H  403  1  0.45941400  0.18220500  0.84246300  1
  H  404  1  0.53492200  0.17148300  0.84479000  1
  H  405  1  0.50313600  0.22357400  0.88803000  1
  H  412  1  0.45812800  0.14897600  0.82083100  1
  H  413  1  0.49244600  0.10635200  0.76923700  1
  H  414  1  0.53412800  0.15180200  0.81163100  1
  H  425  1  0.46069500  0.81257500  0.15079100  1
  H  426  1  0.53694300  0.81888600  0.15149100  1
  H  427  1  0.50293900  0.76953800  0.10647500  1
  H  434  1  0.45901600  0.84493100  0.17224400  1
  H  435  1  0.49208000  0.88746100  0.22438600  1
  H  436  1  0.53491700  0.84285700  0.18193700  1
  H  447  1  0.84213300  0.53418800  0.81206800  1
  H  448  1  0.84527500  0.45816400  0.82083500  1
  H  449  1  0.88770100  0.49286500  0.76937200  1
  H  456  1  0.82155300  0.53540700  0.84504000  1
  H  457  1  0.76968500  0.50185500  0.88749700  1
  H  458  1  0.81227000  0.45949300  0.84236700  1
  H  469  1  0.15127500  0.53467600  0.18202300  1
  H  470  1  0.14904800  0.45868500  0.17277000  1
  H  471  1  0.10657400  0.49242900  0.22470700  1
  H  478  1  0.17454600  0.53677900  0.15129500  1
  H  479  1  0.22423500  0.50298800  0.10656600  1
  H  480  1  0.18145400  0.46054200  0.15096000  1
  H  491  1  0.84246100  0.45941800  0.18220700  1
  H  492  1  0.84478300  0.53495100  0.17144800  1
  H  493  1  0.88801100  0.50314600  0.22353500  1
  H  500  1  0.82083100  0.45812500  0.14897300  1
  H  501  1  0.76923700  0.49244000  0.10634500  1
  H  502  1  0.81161800  0.53412400  0.15180000  1
  H  513  1  0.15079700  0.46065300  0.81269500  1
  H  514  1  0.15151100  0.53690900  0.81894000  1
  H  515  1  0.10654000  0.50289100  0.76957700  1
  H  522  1  0.17243600  0.45895300  0.84493400  1
  H  523  1  0.22455000  0.49215000  0.88741400  1
  H  524  1  0.18189700  0.53489000  0.84294400  1
  H  539  1  0.44402300  0.26077300  0.88568400  1
  H  540  1  0.42199200  0.28896300  0.90892200  1
  H  543  1  0.33689800  0.21587800  0.95329400  1
  H  544  1  0.35540800  0.21049400  0.97798900  1
  H  545  1  0.33082400  0.17185800  0.94815700  1
  H  546  1  0.31929300  0.18443500  0.97490600  1
  H  547  1  0.34599500  0.16768600  0.97631800  1
  H  550  1  0.40823800  0.15696800  0.93417600  1
  H  551  1  0.38385900  0.15592300  0.91412700  1
  H  552  1  0.38048400  0.14724800  0.96820200  1
  H  553  1  0.38482100  0.12482500  0.94615700  1
  H  554  1  0.35790600  0.14101500  0.94582100  1
  H  556  1  0.43493300  0.19504400  0.88535600  1
  H  558  1  0.39121300  0.29904600  0.93750500  1
  H  569  1  0.55021100  0.73330900  0.88563500  1
  H  570  1  0.57207300  0.70509900  0.90899200  1
  H  573  1  0.65723900  0.77820800  0.95329000  1
  H  574  1  0.63879200  0.78352500  0.97802500  1
  H  575  1  0.66324800  0.82221400  0.94815900  1
  H  576  1  0.67480800  0.80968000  0.97491800  1
  H  577  1  0.64807300  0.82638800  0.97631800  1
  H  580  1  0.58584300  0.83706500  0.93420300  1
  H  581  1  0.61021800  0.83812200  0.91415100  1
  H  582  1  0.61358600  0.84684200  0.96821600  1
  H  583  1  0.60923600  0.86924400  0.94615200  1
  H  584  1  0.63616400  0.85306800  0.94583300  1
  H  586  1  0.55912100  0.79925000  0.88591400  1
  H  588  1  0.60285700  0.69498600  0.93755500  1
  H  599  1  0.55020000  0.26072300  0.10844000  1
  H  600  1  0.57206000  0.28895100  0.08510000  1
  H  603  1  0.65723500  0.21586500  0.04073600  1
  H  604  1  0.63877900  0.21052700  0.01599500  1
  H  605  1  0.66323700  0.17185600  0.04589700  1
  H  606  1  0.67480900  0.18437900  0.01913800  1
  H  607  1  0.64807500  0.16767500  0.01773000  1
  H  610  1  0.58585000  0.15699000  0.05986500  1
  H  611  1  0.61023400  0.15595000  0.07990700  1
  H  612  1  0.61358600  0.14721500  0.02584200  1
  H  613  1  0.60924000  0.12481500  0.04790900  1
  H  614  1  0.63616700  0.14099000  0.04822100  1
  H  616  1  0.55921800  0.19481700  0.10824700  1
  H  618  1  0.60286700  0.29910000  0.05655700  1
  H  629  1  0.44411300  0.73338800  0.10841200  1
  H  630  1  0.42205500  0.70515500  0.08517900  1
  H  633  1  0.33692100  0.77816900  0.04075500  1
  H  634  1  0.35544400  0.78356700  0.01606900  1
  H  635  1  0.33083000  0.82219100  0.04590300  1
  H  636  1  0.31930400  0.80961000  0.01915400  1
  H  637  1  0.34599900  0.82637000  0.01774300  1
  H  640  1  0.40824500  0.83709400  0.05988400  1
  H  641  1  0.38386600  0.83813700  0.07993400  1
  H  642  1  0.38048700  0.84680600  0.02586000  1
  H  643  1  0.38482300  0.86923000  0.04790300  1
  H  644  1  0.35790800  0.85303800  0.04824200  1
  H  646  1  0.43486600  0.79917400  0.10864100  1
  H  648  1  0.39126700  0.69502700  0.05657900  1
  H  659  1  0.88568400  0.44402500  0.26077500  1
  H  660  1  0.90892000  0.42199300  0.28896200  1
  H  663  1  0.95329200  0.33689900  0.21587800  1
  H  664  1  0.97798900  0.35541000  0.21049400  1
  H  665  1  0.94815700  0.33082400  0.17185800  1
  H  666  1  0.97490600  0.31929300  0.18443700  1
  H  667  1  0.97631800  0.34599500  0.16768700  1
  H  670  1  0.93417600  0.40823800  0.15696800  1
  H  671  1  0.91412700  0.38385900  0.15592300  1
  H  672  1  0.96820200  0.38048400  0.14724800  1
  H  673  1  0.94615700  0.38482100  0.12482600  1
  H  674  1  0.94582100  0.35790600  0.14101500  1
  H  676  1  0.88535200  0.43493500  0.19504700  1
  H  678  1  0.93750300  0.39122100  0.29904800  1
  H  689  1  0.88562400  0.55019800  0.73333800  1
  H  690  1  0.90898000  0.57206200  0.70511000  1
  H  693  1  0.95329200  0.65723900  0.77820700  1
  H  694  1  0.97802700  0.63879200  0.78352400  1
  H  695  1  0.94815900  0.66324800  0.82221300  1
  H  696  1  0.97491800  0.67480800  0.80968000  1
  H  697  1  0.97631800  0.64807300  0.82638600  1
  H  700  1  0.93420300  0.58584300  0.83706500  1
  H  701  1  0.91415100  0.61022000  0.83812200  1
  H  702  1  0.96821600  0.61358600  0.84684200  1
  H  703  1  0.94615200  0.60923600  0.86924400  1
  H  704  1  0.94583300  0.63616400  0.85306800  1
  H  706  1  0.88594500  0.55918800  0.79929800  1
  H  708  1  0.93754400  0.60285500  0.69498600  1
  H  719  1  0.10843300  0.55020500  0.26073900  1
  H  720  1  0.08509600  0.57206600  0.28895800  1
  H  723  1  0.04073600  0.65723500  0.21586300  1
  H  724  1  0.01599600  0.63877900  0.21052700  1
  H  725  1  0.04589800  0.66323700  0.17185600  1
  H  726  1  0.01913900  0.67480900  0.18437900  1
  H  727  1  0.01773000  0.64807500  0.16767500  1
  H  730  1  0.05986500  0.58585000  0.15698900  1
  H  731  1  0.07990700  0.61023400  0.15595000  1
  H  732  1  0.02584200  0.61358600  0.14721600  1
  H  733  1  0.04790900  0.60924000  0.12481500  1
  H  734  1  0.04822200  0.63616700  0.14099000  1
  H  736  1  0.10828400  0.55921600  0.19485500  1
  H  738  1  0.05655400  0.60286900  0.29910000  1
  H  749  1  0.10841700  0.44411700  0.73340300  1
  H  750  1  0.08518200  0.42206400  0.70516400  1
  H  753  1  0.04075500  0.33692100  0.77816900  1
  H  754  1  0.01606900  0.35544400  0.78356500  1
  H  755  1  0.04590300  0.33083000  0.82218900  1
  H  756  1  0.01915400  0.31930400  0.80960800  1
  H  757  1  0.01774300  0.34599900  0.82637000  1
  H  760  1  0.05988400  0.40824300  0.83709400  1
  H  761  1  0.07993400  0.38386500  0.83813800  1
  H  762  1  0.02586000  0.38048700  0.84680700  1
  H  763  1  0.04790200  0.38482300  0.86923200  1
  H  764  1  0.04824100  0.35790800  0.85303800  1
  H  766  1  0.10861400  0.43485500  0.79920300  1
  H  768  1  0.05658200  0.39126600  0.69503100  1
  H  779  1  0.26080600  0.88569400  0.44399100  1
  H  780  1  0.28898000  0.90893800  0.42197400  1
  H  783  1  0.21587400  0.95329700  0.33689000  1
  H  784  1  0.21049100  0.97799500  0.35540100  1
  H  785  1  0.17185600  0.94815700  0.33082200  1
  H  786  1  0.18443000  0.97490800  0.31928800  1
  H  787  1  0.16768300  0.97631800  0.34599300  1
  H  790  1  0.15697000  0.93417800  0.40823600  1
  H  791  1  0.15592400  0.91412900  0.38385700  1
  H  792  1  0.14724600  0.96820200  0.38048400  1
  H  793  1  0.12482400  0.94615700  0.38482300  1
  H  794  1  0.14101300  0.94582200  0.35790600  1
  H  796  1  0.19509800  0.88532100  0.43497800  1
  H  798  1  0.29905400  0.93751500  0.39120300  1
  H  809  1  0.73333800  0.88562600  0.55020000  1
  H  810  1  0.70511200  0.90898000  0.57206000  1
  H  813  1  0.77820700  0.95329400  0.65724100  1
  H  814  1  0.78352400  0.97802900  0.63879500  1
  H  815  1  0.82221300  0.94815900  0.66324800  1
  H  816  1  0.80968200  0.97491800  0.67480900  1
  H  817  1  0.82638600  0.97631800  0.64807300  1
  H  820  1  0.83706500  0.93420300  0.58584500  1
  H  821  1  0.83812200  0.91415100  0.61022200  1
  H  822  1  0.84684200  0.96821600  0.61358600  1
  H  823  1  0.86924400  0.94615200  0.60923800  1
  H  824  1  0.85307000  0.94583500  0.63616500  1
  H  826  1  0.79926400  0.88585600  0.55922500  1
  H  828  1  0.69498600  0.93754400  0.60284600  1
  H  839  1  0.26071000  0.10844400  0.55019400  1
  H  840  1  0.28894400  0.08510300  0.57205300  1
  H  843  1  0.21586700  0.04073300  0.65723400  1
  H  844  1  0.21052300  0.01599800  0.63877200  1
  H  845  1  0.17185500  0.04589600  0.66323700  1
  H  846  1  0.18437900  0.01913800  0.67480900  1
  H  847  1  0.16767500  0.01772800  0.64807500  1
  H  850  1  0.15698900  0.05986400  0.58585000  1
  H  851  1  0.15595000  0.07990600  0.61023600  1
  H  852  1  0.14721500  0.02584200  0.61358600  1
  H  853  1  0.12481500  0.04790900  0.60924000  1
  H  854  1  0.14099000  0.04822100  0.63616700  1
  H  856  1  0.19479000  0.10821600  0.55922200  1
  H  858  1  0.29909700  0.05655900  0.60286700  1
  H  869  1  0.73337800  0.10840600  0.44410800  1
  H  870  1  0.70515000  0.08517500  0.42205100  1
  H  873  1  0.77816900  0.04075300  0.33692300  1
  H  874  1  0.78356700  0.01606500  0.35544400  1
  H  875  1  0.82218900  0.04590300  0.33083000  1
  H  876  1  0.80960800  0.01915400  0.31930400  1
  H  877  1  0.82637000  0.01774200  0.34599900  1
  H  880  1  0.83709400  0.05988500  0.40824500  1
  H  881  1  0.83813800  0.07993500  0.38386600  1
  H  882  1  0.84680600  0.02586000  0.38048700  1
  H  883  1  0.86923000  0.04790200  0.38482300  1
  H  884  1  0.85303800  0.04824200  0.35790800  1
  H  886  1  0.79914100  0.10866000  0.43484500  1
  H  888  1  0.69502900  0.05657700  0.39126000  1
  H  899  1  0.26070100  0.44410600  0.10842300  1
  H  900  1  0.28891100  0.42204700  0.08517300  1
  H  903  1  0.21588700  0.33692500  0.04077400  1
  H  904  1  0.21050000  0.35543000  0.01607400  1
  H  905  1  0.17186500  0.33083000  0.04590400  1
  H  906  1  0.18445100  0.31930400  0.01915700  1
  H  907  1  0.16769200  0.34599900  0.01774200  1
  H  910  1  0.15696500  0.40824300  0.05988700  1
  H  911  1  0.15592100  0.38386300  0.07993500  1
  H  912  1  0.14725300  0.38048700  0.02586000  1
  H  913  1  0.12482900  0.38482100  0.04790300  1
  H  914  1  0.14102000  0.35790800  0.04824000  1
  H  916  1  0.19493400  0.43494500  0.10867900  1
  H  918  1  0.29903500  0.39123900  0.05656900  1
  H  929  1  0.73330400  0.55020700  0.10841200  1
  H  930  1  0.70509400  0.57208200  0.08507500  1
  H  933  1  0.77819200  0.65723000  0.04072200  1
  H  934  1  0.78356500  0.63873600  0.01601200  1
  H  935  1  0.82221300  0.66324400  0.04589500  1
  H  936  1  0.80967600  0.67480800  0.01913700  1
  H  937  1  0.82639100  0.64807800  0.01773000  1
  H  940  1  0.83706500  0.58584500  0.05985600  1
  H  941  1  0.83812000  0.61022200  0.07990700  1
  H  942  1  0.84684200  0.61358800  0.02584200  1
  H  943  1  0.86924400  0.60923800  0.04790600  1
  H  944  1  0.85306800  0.63616500  0.04822400  1
  H  946  1  0.79919400  0.55917300  0.10831300  1
  H  948  1  0.69496100  0.60288200  0.05653400  1
  H  959  1  0.26075500  0.55020700  0.88563500  1
  H  960  1  0.28896500  0.57208000  0.90897100  1
  H  963  1  0.21585400  0.65724100  0.95329400  1
  H  964  1  0.21053000  0.63878400  0.97802700  1
  H  965  1  0.17184500  0.66324600  0.94816000  1
  H  966  1  0.18437900  0.67480800  0.97491800  1
  H  967  1  0.16767500  0.64807300  0.97632000  1
  H  970  1  0.15698700  0.58584700  0.93419200  1
  H  971  1  0.15594600  0.61023200  0.91414900  1
  H  972  1  0.14721700  0.61358600  0.96821600  1
  H  973  1  0.12481500  0.60923800  0.94615200  1
  H  974  1  0.14099000  0.63616500  0.94583700  1
  H  976  1  0.19490700  0.55924500  0.88568500  1
  H  978  1  0.29908100  0.60283500  0.93753900  1
  H  989  1  0.73332500  0.44392100  0.88566700  1
  H  990  1  0.70510300  0.42199200  0.90896500  1
  H  993  1  0.77818700  0.33684900  0.95332800  1
  H  994  1  0.78357200  0.35536100  0.97802400  1
  H  995  1  0.82220900  0.33081700  0.94816000  1
  H  996  1  0.80966000  0.31926600  0.97491500  1
  H  997  1  0.82638600  0.34598400  0.97632100  1
  H  1000  1  0.83707700  0.40822200  0.93419100  1
  H  1001  1  0.83812000  0.38384100  0.91414200  1
  H  1002  1  0.84683300  0.38047700  0.96821100  1
  H  1003  1  0.86924100  0.38482100  0.94615400  1
  H  1004  1  0.85306100  0.35789900  0.94583000  1
  H  1006  1  0.79917400  0.43478700  0.88566200  1
  H  1008  1  0.69497500  0.39118300  0.93750500  1
  H  1019  1  0.44408800  0.88567600  0.73327500  1
  H  1020  1  0.42200600  0.90890900  0.70511200  1
  H  1023  1  0.33691700  0.95328300  0.77817800  1
  H  1024  1  0.35542800  0.97797800  0.78356100  1
  H  1025  1  0.33082600  0.94815700  0.82219800  1
  H  1026  1  0.31930000  0.97490200  0.80961200  1
  H  1027  1  0.34599700  0.97631600  0.82637000  1
  H  1030  1  0.40824300  0.93417300  0.83709200  1
  H  1031  1  0.38386500  0.91412400  0.83813800  1
  H  1032  1  0.38048600  0.96819800  0.84680600  1
  H  1033  1  0.38482300  0.94615600  0.86923000  1
  H  1034  1  0.35790800  0.94581900  0.85303900  1
  H  1036  1  0.43517200  0.88521500  0.79893400  1
  H  1038  1  0.39121200  0.93748500  0.69502900  1
  H  1049  1  0.55016200  0.88565700  0.26076100  1
  H  1050  1  0.57207300  0.90896900  0.28896500  1
  H  1053  1  0.65720500  0.95333000  0.21587200  1
  H  1054  1  0.63870300  0.97803300  0.21049200  1
  H  1055  1  0.66323900  0.94816200  0.17185400  1
  H  1056  1  0.67479300  0.97491800  0.18440100  1
  H  1057  1  0.64807300  0.97632700  0.16767400  1
  H  1060  1  0.58583600  0.93419600  0.15698300  1
  H  1061  1  0.61021100  0.91414400  0.15592900  1
  H  1062  1  0.61358400  0.96821100  0.14722700  1
  H  1063  1  0.60924000  0.94615600  0.12481600  1
  H  1064  1  0.63616200  0.94583000  0.14099900  1
  H  1066  1  0.55921500  0.88567500  0.19491800  1
  H  1068  1  0.60283300  0.93753500  0.29907000  1
  H  1079  1  0.55020000  0.10842900  0.73331500  1
  H  1080  1  0.57207100  0.08509900  0.70509800  1
  H  1083  1  0.65723900  0.04075800  0.77819900  1
  H  1084  1  0.63877700  0.01602600  0.78352200  1
  H  1085  1  0.66324000  0.04589800  0.82220900  1
  H  1086  1  0.67480600  0.01914100  0.80967800  1
  H  1087  1  0.64807100  0.01773500  0.82638000  1
  H  1090  1  0.58584800  0.05986600  0.83707200  1
  H  1091  1  0.61023200  0.07990900  0.83811100  1
  H  1092  1  0.61358600  0.02584400  0.84684300  1
  H  1093  1  0.60923800  0.04790900  0.86924400  1
  H  1094  1  0.63616500  0.04822300  0.85306800  1
  H  1096  1  0.55917300  0.10831600  0.79919900  1
  H  1098  1  0.60285500  0.05655500  0.69495700  1
  H  1109  1  0.44392100  0.10839400  0.26072300  1
  H  1110  1  0.42199500  0.08510000  0.28895300  1
  H  1113  1  0.33684200  0.04073100  0.21586900  1
  H  1114  1  0.35534100  0.01602500  0.21049800  1
  H  1115  1  0.33081900  0.04589600  0.17185000  1
  H  1116  1  0.31926200  0.01914100  0.18439400  1
  H  1117  1  0.34598400  0.01773200  0.16767400  1
  H  1120  1  0.40822000  0.05986600  0.15698500  1
  H  1121  1  0.38383900  0.07991300  0.15594000  1
  H  1122  1  0.38047500  0.02584700  0.14722400  1
  H  1123  1  0.38482100  0.04790600  0.12481700  1
  H  1124  1  0.35789700  0.04822700  0.14099700  1
  H  1126  1  0.43479800  0.10835800  0.19486200  1
  H  1128  1  0.39120600  0.05653600  0.29909500  1
  H  1139  1  0.88563700  0.26068200  0.54995500  1
  H  1140  1  0.90887900  0.28890800  0.57200300  1
  H  1143  1  0.95328300  0.21588700  0.65713300  1
  H  1144  1  0.97798000  0.21050000  0.63862200  1
  H  1145  1  0.94815500  0.17186700  0.66322800  1
  H  1146  1  0.97490000  0.18445500  0.67475300  1
  H  1147  1  0.97631600  0.16769500  0.64805900  1
  H  1150  1  0.93417100  0.15696300  0.58581400  1
  H  1151  1  0.91412200  0.15591600  0.61019300  1
  H  1152  1  0.96819600  0.14725500  0.61357200  1
  H  1153  1  0.94615700  0.12482800  0.60923600  1
  H  1154  1  0.94581700  0.14102200  0.63614900  1
  H  1156  1  0.88539400  0.19490300  0.55918900  1
  H  1158  1  0.93749200  0.29901700  0.60278800  1
  H  1169  1  0.88561900  0.73336300  0.44387900  1
  H  1170  1  0.90896000  0.70512100  0.42201500  1
  H  1173  1  0.95330400  0.77819800  0.33682400  1
  H  1174  1  0.97802900  0.78352700  0.35529300  1
  H  1175  1  0.94816400  0.82220900  0.33081700  1
  H  1176  1  0.97492000  0.80967500  0.31925300  1
  H  1177  1  0.97632700  0.82638000  0.34598800  1
  H  1180  1  0.93420500  0.83706300  0.40821300  1
  H  1181  1  0.91415300  0.83811900  0.38383800  1
  H  1182  1  0.96821600  0.84684200  0.38047100  1
  H  1183  1  0.94615200  0.86924300  0.38482100  1
  H  1184  1  0.94583500  0.85306800  0.35789400  1
  H  1186  1  0.88598300  0.79933800  0.43483700  1
  H  1188  1  0.93749000  0.69497300  0.39121700  1
  H  1199  1  0.10843300  0.26071900  0.44387700  1
  H  1200  1  0.08510000  0.28894700  0.42199300  1
  H  1203  1  0.04077200  0.21585300  0.33681700  1
  H  1204  1  0.01603500  0.21053900  0.35526000  1
  H  1205  1  0.04590100  0.17184500  0.33081200  1
  H  1206  1  0.01914200  0.18437700  0.31925000  1
  H  1207  1  0.01774200  0.16767500  0.34598600  1
  H  1210  1  0.05986700  0.15698700  0.40821100  1
  H  1211  1  0.07990900  0.15594800  0.38382700  1
  H  1212  1  0.02584400  0.14721600  0.38047300  1
  H  1213  1  0.04790900  0.12481500  0.38482100  1
  H  1214  1  0.04822300  0.14098900  0.35789400  1
  H  1216  1  0.10831000  0.19482600  0.43479600  1
  H  1218  1  0.05652900  0.29909100  0.39119900  1
  H  1229  1  0.10836400  0.73324800  0.54999600  1
  H  1230  1  0.08513100  0.70509600  0.57207500  1
  H  1233  1  0.04075500  0.77817800  0.65715100  1
  H  1234  1  0.01607100  0.78357400  0.63862800  1
  H  1235  1  0.04590300  0.82220000  0.66323700  1
  H  1236  1  0.01915300  0.80961900  0.67476400  1
  H  1237  1  0.01774200  0.82637500  0.64806600  1
  H  1240  1  0.05988500  0.83709200  0.58581800  1
  H  1241  1  0.07993300  0.83813300  0.61019600  1
  H  1242  1  0.02586000  0.84680900  0.61357400  1
  H  1243  1  0.04790400  0.86923000  0.60923600  1
  H  1244  1  0.04824100  0.85303900  0.63615100  1
  H  1246  1  0.10886100  0.79890200  0.55885400  1
  H  1248  1  0.05657400  0.69500900  0.60285800  1
  H  1259  1  0.54942000  0.73616400  0.10927400  1
  H  1260  1  0.57068400  0.70598400  0.08787100  1
  H  1263  1  0.65817600  0.77765500  0.04033100  1
  H  1264  1  0.64002200  0.78243900  0.01533900  1
  H  1265  1  0.66293600  0.82176000  0.04582400  1
  H  1266  1  0.67511000  0.80996100  0.01900500  1
  H  1267  1  0.64785500  0.82581700  0.01760100  1
  H  1270  1  0.58641200  0.83611200  0.05905100  1
  H  1271  1  0.61075300  0.83720400  0.07914500  1
  H  1272  1  0.61383300  0.84725900  0.02538200  1
  H  1273  1  0.60922700  0.86895800  0.04809500  1
  H  1274  1  0.63642500  0.85320100  0.04780600  1
  H  1276  1  0.55165700  0.79878800  0.09516300  1
  H  1278  1  0.59127000  0.69847700  0.04951400  1
  H  1289  1  0.44382300  0.25717100  0.11022200  1
  H  1290  1  0.42380900  0.28784700  0.08787600  1
  H  1293  1  0.33555900  0.21640700  0.04058000  1
  H  1294  1  0.35334900  0.21190300  0.01529400  1
  H  1295  1  0.33109100  0.17229200  0.04584000  1
  H  1296  1  0.31879600  0.18394900  0.01901300  1
  H  1297  1  0.34621500  0.16836300  0.01761800  1
  H  1300  1  0.40758800  0.15776700  0.05891300  1
  H  1301  1  0.38312800  0.15743700  0.07886600  1
  H  1302  1  0.38012000  0.14655400  0.02524800  1
  H  1303  1  0.38476000  0.12509800  0.04819500  1
  H  1304  1  0.35757700  0.14087100  0.04778300  1
  H  1306  1  0.42090000  0.19697800  0.11584200  1
  H  1308  1  0.40265600  0.29626200  0.04960200  1
  H  1319  1  0.44373000  0.73676900  0.88379400  1
  H  1320  1  0.42382200  0.70618200  0.90630100  1
  H  1323  1  0.33561300  0.77767700  0.95345600  1
  H  1324  1  0.35339100  0.78219300  0.97875100  1
  H  1325  1  0.33108500  0.82178000  0.94821400  1
  H  1326  1  0.31880900  0.81009300  0.97503900  1
  H  1327  1  0.34620400  0.82572100  0.97643800  1
  H  1330  1  0.40759300  0.83636800  0.93506400  1
  H  1331  1  0.38308800  0.83665600  0.91516300  1
  H  1332  1  0.38013100  0.84749900  0.96880000  1
  H  1333  1  0.38474700  0.86899000  0.94588000  1
  H  1334  1  0.35757900  0.85319400  0.94627800  1
  H  1336  1  0.42148400  0.79751700  0.87844300  1
  H  1338  1  0.40262900  0.69782300  0.94450200  1
  H  1349  1  0.54979100  0.25791000  0.88424800  1
  H  1350  1  0.57093300  0.28852800  0.90593600  1
  H  1353  1  0.65839400  0.21638200  0.95358500  1
  H  1354  1  0.64029600  0.21164700  0.97862900  1
  H  1355  1  0.66299200  0.17221600  0.94819100  1
  H  1356  1  0.67514300  0.18399000  0.97502300  1
  H  1357  1  0.64782600  0.16825100  0.97639000  1
  H  1360  1  0.58632600  0.15796600  0.93485300  1
  H  1361  1  0.61074900  0.15761900  0.91489300  1
  H  1362  1  0.61379300  0.14683300  0.96857300  1
  H  1363  1  0.60911400  0.12529800  0.94572200  1
  H  1364  1  0.63631500  0.14102400  0.94604800  1
  H  1366  1  0.57556600  0.20013900  0.87862500  1
  H  1368  1  0.59169500  0.29631400  0.94473600  1
  H  1379  1  0.10927800  0.54941400  0.73616800  1
  H  1380  1  0.08787200  0.57068300  0.70598900  1
  H  1383  1  0.04033200  0.65817000  0.77765500  1
  H  1384  1  0.01534200  0.64001800  0.78243900  1
  H  1385  1  0.04582400  0.66293600  0.82176000  1
  H  1386  1  0.01900500  0.67510800  0.80995900  1
  H  1387  1  0.01760200  0.64785500  0.82581700  1
  H  1390  1  0.05905200  0.58641000  0.83611400  1
  H  1391  1  0.07914600  0.61075100  0.83720500  1
  H  1392  1  0.02538200  0.61383300  0.84725800  1
  H  1393  1  0.04809500  0.60922700  0.86895600  1
  H  1394  1  0.04780700  0.63642500  0.85320100  1
  H  1396  1  0.09518000  0.55165000  0.79880500  1
  H  1398  1  0.04950800  0.59127000  0.69848000  1
  H  1409  1  0.11023900  0.44382700  0.25716600  1
  H  1410  1  0.08788400  0.42380700  0.28784700  1
  H  1413  1  0.04058000  0.33555900  0.21640700  1
  H  1414  1  0.01529500  0.35335100  0.21189900  1
  H  1415  1  0.04584000  0.33108900  0.17229000  1
  H  1416  1  0.01901300  0.31879400  0.18394900  1
  H  1417  1  0.01761800  0.34621300  0.16836100  1
  H  1420  1  0.05891400  0.40758800  0.15776900  1
  H  1421  1  0.07886800  0.38312800  0.15743500  1
  H  1422  1  0.02525000  0.38012000  0.14655600  1
  H  1423  1  0.04819500  0.38476200  0.12509900  1
  H  1424  1  0.04778400  0.35757700  0.14087100  1
  H  1426  1  0.11583500  0.42085500  0.19698200  1
  H  1428  1  0.04960500  0.40264700  0.29626900  1
  H  1439  1  0.88379200  0.44376000  0.73679800  1
  H  1440  1  0.90627400  0.42383400  0.70619600  1
  H  1443  1  0.95345400  0.33561200  0.77767200  1
  H  1444  1  0.97874900  0.35339100  0.78218700  1
  H  1445  1  0.94821400  0.33108700  0.82177800  1
  H  1446  1  0.97503900  0.31880900  0.81009300  1
  H  1447  1  0.97643700  0.34620800  0.82571600  1
  H  1450  1  0.93506600  0.40759300  0.83636200  1
  H  1451  1  0.91516500  0.38308800  0.83664300  1
  H  1452  1  0.96879800  0.38013300  0.84749900  1
  H  1453  1  0.94587500  0.38475100  0.86898500  1
  H  1454  1  0.94627600  0.35758000  0.85319200  1
  H  1456  1  0.87845500  0.42151200  0.79752800  1
  H  1458  1  0.94448800  0.40263500  0.69782100  1
  H  1469  1  0.88424400  0.54979800  0.25791300  1
  H  1470  1  0.90593200  0.57093800  0.28853300  1
  H  1473  1  0.95358500  0.65838800  0.21638000  1
  H  1474  1  0.97862700  0.64028800  0.21164100  1
  H  1475  1  0.94819300  0.66299200  0.17221500  1
  H  1476  1  0.97502300  0.67514100  0.18399200  1
  H  1477  1  0.97639000  0.64782800  0.16824800  1
  H  1480  1  0.93485200  0.58632400  0.15796600  1
  H  1481  1  0.91488900  0.61074800  0.15761500  1
  H  1482  1  0.96857100  0.61379300  0.14683700  1
  H  1483  1  0.94572300  0.60911400  0.12529900  1
  H  1484  1  0.94604800  0.63631300  0.14102500  1
  H  1486  1  0.87840900  0.57560500  0.20012800  1
  H  1488  1  0.94473500  0.59169700  0.29631200  1
  H  1499  1  0.73620000  0.10930300  0.54939600  1
  H  1500  1  0.70601300  0.08788500  0.57066300  1
  H  1503  1  0.77765400  0.04033700  0.65816100  1
  H  1504  1  0.78243900  0.01534800  0.64000700  1
  H  1505  1  0.82175900  0.04582500  0.66293600  1
  H  1506  1  0.80995200  0.01900700  0.67510500  1
  H  1507  1  0.82581500  0.01760200  0.64785300  1
  H  1510  1  0.83611900  0.05905400  0.58640800  1
  H  1511  1  0.83720700  0.07914700  0.61074900  1
  H  1512  1  0.84725600  0.02538300  0.61383100  1
  H  1513  1  0.86895600  0.04809400  0.60922700  1
  H  1514  1  0.85319800  0.04780700  0.63642300  1
  H  1516  1  0.79876000  0.09515900  0.55149500  1
  H  1518  1  0.69848900  0.04952300  0.59126100  1
  H  1529  1  0.25717100  0.11022400  0.44383200  1
  H  1530  1  0.28784300  0.08787700  0.42381400  1
  H  1533  1  0.21640700  0.04058200  0.33556500  1
  H  1534  1  0.21190300  0.01529800  0.35335500  1
  H  1535  1  0.17229200  0.04584000  0.33109100  1
  H  1536  1  0.18395200  0.01901300  0.31879800  1
  H  1537  1  0.16836300  0.01761800  0.34621500  1
  H  1540  1  0.15776600  0.05891400  0.40758800  1
  H  1541  1  0.15743200  0.07886800  0.38313000  1
  H  1542  1  0.14655600  0.02524900  0.38012000  1
  H  1543  1  0.12509800  0.04819400  0.38476000  1
  H  1544  1  0.14087200  0.04778400  0.35757700  1
  H  1546  1  0.19694800  0.11583100  0.42095800  1
  H  1548  1  0.29625600  0.04960700  0.40266000  1
  H  1559  1  0.73683900  0.88382300  0.44385000  1
  H  1560  1  0.70618700  0.90619300  0.42381100  1
  H  1563  1  0.77766400  0.95345200  0.33560300  1
  H  1564  1  0.78218500  0.97873700  0.35339600  1
  H  1565  1  0.82177800  0.94821300  0.33108500  1
  H  1566  1  0.81009100  0.97503700  0.31881200  1
  H  1567  1  0.82571000  0.97643300  0.34621300  1
  H  1570  1  0.83636100  0.93505700  0.40759100  1
  H  1571  1  0.83660900  0.91515800  0.38308800  1
  H  1572  1  0.84749200  0.96878900  0.38013400  1
  H  1573  1  0.86897400  0.94586200  0.38475400  1
  H  1574  1  0.85318500  0.94626500  0.35758200  1
  H  1576  1  0.79682700  0.87797600  0.42079700  1
  H  1578  1  0.69778900  0.94446600  0.40262400  1
  H  1589  1  0.25781100  0.88422500  0.54979800  1
  H  1590  1  0.28847500  0.90593800  0.57085700  1
  H  1593  1  0.21640000  0.95358400  0.65843700  1
  H  1594  1  0.21169000  0.97864700  0.64036400  1
  H  1595  1  0.17223100  0.94818900  0.66298500  1
  H  1596  1  0.18397400  0.97502600  0.67515900  1
  H  1597  1  0.16827600  0.97638800  0.64781500  1
  H  1600  1  0.15795700  0.93487900  0.58634700  1
  H  1601  1  0.15764700  0.91492900  0.61078200  1
  H  1602  1  0.14679700  0.96859400  0.61380800  1
  H  1603  1  0.12528600  0.94571800  0.60912600  1
  H  1604  1  0.14101000  0.94606600  0.63632900  1
  H  1606  1  0.19994100  0.87865000  0.57573800  1
  H  1608  1  0.29634100  0.94468900  0.59166200  1
  H  1619  1  0.73680200  0.55004900  0.88397800  1
  H  1620  1  0.70607200  0.57034200  0.90611600  1
  H  1623  1  0.77764800  0.65848900  0.95348500  1
  H  1624  1  0.78220300  0.64062000  0.97870800  1
  H  1625  1  0.82178600  0.66296900  0.94820200  1
  H  1626  1  0.81010300  0.67522700  0.97503400  1
  H  1627  1  0.82571000  0.64782300  0.97641500  1
  H  1630  1  0.83625600  0.58644300  0.93502100  1
  H  1631  1  0.83651200  0.61092200  0.91510200  1
  H  1632  1  0.84743200  0.61389200  0.96873100  1
  H  1633  1  0.86889900  0.60924200  0.94579900  1
  H  1634  1  0.85314200  0.63643200  0.94620100  1
  H  1636  1  0.79642000  0.57381300  0.87816700  1
  H  1638  1  0.69781200  0.59146100  0.94453500  1
  H  1649  1  0.25711500  0.44393000  0.88383400  1
  H  1650  1  0.28784500  0.42382500  0.90611800  1
  H  1653  1  0.21641300  0.33558100  0.95346500  1
  H  1654  1  0.21189700  0.35337500  0.97874800  1
  H  1655  1  0.17229100  0.33109400  0.94821400  1
  H  1656  1  0.18396300  0.31881000  0.97503900  1
  H  1657  1  0.16836400  0.34622000  0.97643500  1
  H  1660  1  0.15775200  0.40759700  0.93512200  1
  H  1661  1  0.15746400  0.38313200  0.91517700  1
  H  1662  1  0.14656300  0.38012500  0.96879600  1
  H  1663  1  0.12510500  0.38476500  0.94585300  1
  H  1664  1  0.14088200  0.35758600  0.94626000  1
  H  1666  1  0.19748600  0.42026600  0.87800500  1
  H  1668  1  0.29626000  0.40263600  0.94449700  1
  H  1679  1  0.73689300  0.44383100  0.11021300  1
  H  1680  1  0.70619800  0.42381600  0.08786900  1
  H  1683  1  0.77765900  0.33554900  0.04059100  1
  H  1684  1  0.78216000  0.35335100  0.01531400  1
  H  1685  1  0.82177800  0.33108200  0.04584000  1
  H  1686  1  0.81011200  0.31879400  0.01901300  1
  H  1687  1  0.82570000  0.34621500  0.01762100  1
  H  1690  1  0.83633200  0.40756600  0.05897700  1
  H  1691  1  0.83659500  0.38306900  0.07888400  1
  H  1692  1  0.84750800  0.38012400  0.02525800  1
  H  1693  1  0.86897200  0.38475400  0.04820100  1
  H  1694  1  0.85320000  0.35757100  0.04777900  1
  H  1696  1  0.79711200  0.42086600  0.11577100  1
  H  1698  1  0.69784100  0.40264700  0.04954200  1
  H  1709  1  0.25786500  0.54922500  0.10905200  1
  H  1710  1  0.28811100  0.57069000  0.08789900  1
  H  1713  1  0.21641800  0.65825800  0.04036400  1
  H  1714  1  0.21168700  0.64013700  0.01534500  1
  H  1715  1  0.17230300  0.66293800  0.04583500  1
  H  1716  1  0.18406600  0.67513000  0.01901100  1
  H  1717  1  0.16827600  0.64783900  0.01761600  1
  H  1720  1  0.15797600  0.58638700  0.05900900  1
  H  1721  1  0.15707100  0.61074800  0.07908400  1
  H  1722  1  0.14677100  0.61383800  0.02536800  1
  H  1723  1  0.12515900  0.60920400  0.04815700  1
  H  1724  1  0.14090500  0.63640300  0.04784000  1
  H  1726  1  0.19497400  0.55194200  0.09518300  1
  H  1728  1  0.29576800  0.59138700  0.04951500  1
  H  1739  1  0.55009200  0.11011300  0.25726300  1
  H  1740  1  0.57032100  0.08791400  0.28796900  1
  H  1743  1  0.65848400  0.04058000  0.21640700  1
  H  1744  1  0.64063400  0.01534100  0.21185800  1
  H  1745  1  0.66296900  0.04585500  0.17227500  1
  H  1746  1  0.67523300  0.01902600  0.18395600  1
  H  1747  1  0.64782800  0.01764100  0.16834700  1
  H  1750  1  0.58644500  0.05902900  0.15778900  1
  H  1751  1  0.61092800  0.07894500  0.15753200  1
  H  1752  1  0.61389800  0.02531800  0.14661700  1
  H  1753  1  0.60925100  0.04825100  0.12515000  1
  H  1754  1  0.63643900  0.04784800  0.14091100  1
  H  1756  1  0.57370100  0.11593600  0.19755300  1
  H  1758  1  0.59149700  0.04955200  0.29632500  1
  H  1769  1  0.44382300  0.11020900  0.73689700  1
  H  1770  1  0.42382300  0.08785300  0.70620200  1
  H  1773  1  0.33555800  0.04057400  0.77765700  1
  H  1774  1  0.35334600  0.01528700  0.78216900  1
  H  1775  1  0.33108700  0.04584000  0.82177300  1
  H  1776  1  0.31879200  0.01901200  0.81011600  1
  H  1777  1  0.34621000  0.01761800  0.82570700  1
  H  1780  1  0.40758200  0.05892200  0.83630100  1
  H  1781  1  0.38311900  0.07887100  0.83662900  1
  H  1782  1  0.38011800  0.02525200  0.84751000  1
  H  1783  1  0.38475600  0.04819400  0.86897100  1
  H  1784  1  0.35757300  0.04778400  0.85319600  1
  H  1786  1  0.42088400  0.11576300  0.79713700  1
  H  1788  1  0.40269600  0.04955400  0.69788800  1
  H  1799  1  0.44402500  0.88395100  0.25719500  1
  H  1800  1  0.42368100  0.90602600  0.28795500  1
  H  1803  1  0.33554300  0.95352200  0.21642700  1
  H  1804  1  0.35344700  0.97871900  0.21185600  1
  H  1805  1  0.33109100  0.94820700  0.17227900  1
  H  1806  1  0.31882700  0.97504100  0.18394500  1
  H  1807  1  0.34624200  0.97641500  0.16835400  1
  H  1810  1  0.40760600  0.93503200  0.15781100  1
  H  1811  1  0.38312400  0.91511100  0.15755900  1
  H  1812  1  0.38016700  0.96873900  0.14661900  1
  H  1813  1  0.38482100  0.94579700  0.12516200  1
  H  1814  1  0.35762400  0.94621100  0.14090900  1
  H  1816  1  0.42021400  0.87827000  0.19759600  1
  H  1818  1  0.40254300  0.94451300  0.29631000  1
  H  1829  1  0.54878900  0.88551600  0.73607600  1
  H  1830  1  0.57084500  0.90617500  0.70561300  1
  H  1833  1  0.65837700  0.95366100  0.77771500  1
  H  1834  1  0.64029600  0.97870800  0.78243600  1
  H  1835  1  0.66298800  0.94820700  0.82184700  1
  H  1836  1  0.67516400  0.97504100  0.81010500  1
  H  1837  1  0.64785900  0.97641300  0.82586300  1
  H  1840  1  0.58629900  0.93491800  0.83595500  1
  H  1841  1  0.61071000  0.91493300  0.83653900  1
  H  1842  1  0.61379100  0.96860000  0.84724700  1
  H  1843  1  0.60909000  0.94574500  0.86877100  1
  H  1844  1  0.63630200  0.94606900  0.85305900  1
  H  1846  1  0.55745300  0.89489300  0.80200200  1
  H  1848  1  0.59165000  0.94477200  0.69799000  1
  H  1859  1  0.10862100  0.73652600  0.44529300  1
  H  1860  1  0.08804500  0.70591000  0.42344300  1
  H  1863  1  0.04039900  0.77767300  0.33562600  1
  H  1864  1  0.01531900  0.78235500  0.35366800  1
  H  1865  1  0.04585700  0.82181400  0.33109800  1
  H  1866  1  0.01901800  0.81012300  0.31888100  1
  H  1867  1  0.01764900  0.82581800  0.34622600  1
  H  1870  1  0.05908000  0.83599100  0.40771000  1
  H  1871  1  0.07907800  0.83654800  0.38329700  1
  H  1872  1  0.02542800  0.84730400  0.38024800  1
  H  1873  1  0.04831500  0.86880100  0.38495300  1
  H  1874  1  0.04795700  0.85309900  0.35772800  1
  H  1876  1  0.09895800  0.80222100  0.43702400  1
  H  1878  1  0.04946100  0.69805300  0.40255900  1
  H  1889  1  0.11018600  0.25707800  0.55020700  1
  H  1890  1  0.08787100  0.28776400  0.57016900  1
  H  1893  1  0.04058100  0.21641300  0.65849300  1
  H  1894  1  0.01529800  0.21189500  0.64069700  1
  H  1895  1  0.04584300  0.17229100  0.66296900  1
  H  1896  1  0.01901500  0.18395200  0.67526000  1
  H  1897  1  0.01762200  0.16836200  0.64784200  1
  H  1900  1  0.05892500  0.15774400  0.58647500  1
  H  1901  1  0.07887000  0.15744500  0.61094400  1
  H  1902  1  0.02525500  0.14655700  0.61393900  1
  H  1903  1  0.04820200  0.12509900  0.60929900  1
  H  1904  1  0.04779100  0.14087400  0.63648200  1
  H  1906  1  0.11557400  0.19640500  0.57247800  1
  H  1908  1  0.04962600  0.29625300  0.59141200  1
  H  1919  1  0.88380100  0.73687700  0.55029000  1
  H  1920  1  0.90626900  0.70626500  0.57018200  1
  H  1923  1  0.95346300  0.77766100  0.65847500  1
  H  1924  1  0.97876400  0.78215800  0.64070400  1
  H  1925  1  0.94821800  0.82176800  0.66296900  1
  H  1926  1  0.97504400  0.81010200  0.67526100  1
  H  1927  1  0.97644200  0.82570100  0.64784800  1
  H  1930  1  0.93509500  0.83635000  0.58648200  1
  H  1931  1  0.91519200  0.83663800  0.61098900  1
  H  1932  1  0.96881600  0.84751900  0.61393600  1
  H  1933  1  0.94587600  0.86898900  0.60931400  1
  H  1934  1  0.94629300  0.85320300  0.63649000  1
  H  1936  1  0.87909500  0.79822600  0.57189700  1
  H  1938  1  0.94452200  0.69788000  0.59138900  1
  H  1949  1  0.88477200  0.25789900  0.44465000  1
  H  1950  1  0.90617500  0.28807900  0.42336000  1
  H  1953  1  0.95375800  0.21642500  0.33587800  1
  H  1954  1  0.97871700  0.21162200  0.35407300  1
  H  1955  1  0.94823400  0.17231200  0.33112700  1
  H  1956  1  0.97505700  0.18410500  0.31895600  1
  H  1957  1  0.97645500  0.16825600  0.34621300  1
  H  1960  1  0.93501900  0.15797500  0.40765400  1
  H  1961  1  0.91491800  0.15688600  0.38331900  1
  H  1962  1  0.96867500  0.14681000  0.38023000  1
  H  1963  1  0.94595200  0.12512600  0.38484300  1
  H  1964  1  0.94624600  0.14087500  0.35764200  1
  H  1966  1  0.89892900  0.19532700  0.44253200  1
  H  1968  1  0.94460700  0.29558400  0.40276100  1
  C  1  1  0.32135500  0.34017600  0.99620400  1
  C  2  1  0.30919800  0.35008900  0.01688700  1
  C  3  1  0.29084700  0.36785600  0.01530900  1
  C  4  1  0.28369300  0.37548700  0.99240000  1
  C  5  1  0.29398100  0.36590900  0.97141300  1
  C  6  1  0.31290600  0.34900100  0.97345000  1
  C  10  1  0.34018100  0.32134300  0.99786400  1
  C  11  1  0.34898700  0.31286800  0.02061500  1
  C  12  1  0.36598800  0.29403500  0.02265800  1
  C  13  1  0.37548200  0.28366600  0.00167100  1
  C  14  1  0.36783100  0.29081000  0.97876700  1
  C  15  1  0.35010600  0.30919400  0.97718200  1
  C  23  1  0.67268600  0.65389600  0.99622800  1
  C  24  1  0.68485400  0.64399000  0.01690300  1
  C  25  1  0.70319200  0.62622100  0.01530000  1
  C  26  1  0.71037700  0.61862000  0.99239700  1
  C  27  1  0.70007200  0.62820800  0.97142600  1
  C  28  1  0.68114000  0.64509600  0.97347000  1
  C  32  1  0.65386000  0.67271500  0.99789000  1
  C  33  1  0.64504300  0.68117500  0.02063600  1
  C  34  1  0.62803100  0.69999700  0.02268400  1
  C  35  1  0.61854700  0.71037500  0.00170000  1
  C  36  1  0.62620900  0.70323200  0.97880200  1
  C  37  1  0.64395200  0.68486900  0.97720900  1
  C  45  1  0.67270600  0.34021900  0.99789800  1
  C  46  1  0.68485400  0.35011500  0.97720000  1
  C  47  1  0.70324800  0.36782400  0.97878200  1
  C  48  1  0.71038200  0.37549300  0.00167600  1
  C  49  1  0.70007400  0.36593200  0.02265800  1
  C  50  1  0.68116200  0.34902800  0.02064400  1
  C  54  1  0.65390100  0.32139500  0.99628400  1
  C  55  1  0.64516800  0.31289500  0.97353500  1
  C  56  1  0.62834700  0.29392400  0.97150900  1
  C  57  1  0.61868300  0.28364800  0.99245400  1
  C  58  1  0.62627000  0.29084400  0.01535300  1
  C  59  1  0.64398600  0.30923400  0.01696300  1
  C  67  1  0.32133400  0.65389100  0.99786700  1
  C  68  1  0.30920100  0.64396100  0.97718400  1
  C  69  1  0.29086400  0.62618700  0.97876900  1
  C  70  1  0.28366600  0.61856500  0.00166700  1
  C  71  1  0.29397400  0.62812900  0.02264600  1
  C  72  1  0.31285400  0.64508100  0.02061200  1
  C  76  1  0.34016500  0.67271500  0.99621200  1
  C  77  1  0.34899400  0.68116200  0.97346100  1
  C  78  1  0.36599400  0.69999700  0.97142400  1
  C  79  1  0.37547100  0.71037300  0.99241700  1
  C  80  1  0.36787000  0.70319700  0.01532600  1
  C  81  1  0.35008400  0.68486900  0.01689500  1
  C  89  1  0.99618300  0.32134100  0.34019400  1
  C  90  1  0.01686500  0.30919900  0.35011500  1
  C  91  1  0.01527800  0.29085100  0.36787600  1
  C  92  1  0.99238600  0.28365700  0.37551400  1
  C  93  1  0.97140400  0.29390600  0.36589300  1
  C  94  1  0.97343800  0.31284500  0.34899800  1
  C  98  1  0.99784900  0.34017000  0.32136300  1
  C  99  1  0.02060000  0.34897400  0.31288300  1
  C  100  1  0.02265000  0.36597700  0.29404800  1
  C  101  1  0.00166000  0.37546600  0.28367900  1
  C  102  1  0.97875500  0.36781800  0.29082400  1
  C  103  1  0.97716800  0.35009800  0.30921600  1
  C  111  1  0.99619500  0.67271500  0.65387400  1
  C  112  1  0.01687600  0.68488000  0.64396800  1
  C  113  1  0.01529400  0.70322400  0.62620100  1
  C  114  1  0.99239000  0.71039800  0.61858600  1
  C  115  1  0.97140400  0.70008700  0.62814000  1
  C  116  1  0.97344000  0.68117600  0.64506100  1
  C  120  1  0.99786900  0.65388200  0.67269800  1
  C  121  1  0.02061800  0.64506100  0.68116000  1
  C  122  1  0.02267600  0.62804200  0.69998100  1
  C  123  1  0.00169200  0.61856100  0.71035900  1
  C  124  1  0.97879100  0.62622100  0.70321900  1
  C  125  1  0.97719500  0.64396400  0.68485300  1
  C  133  1  0.99782400  0.67267300  0.34019200  1
  C  134  1  0.97712700  0.68482400  0.35008900  1
  C  135  1  0.97872400  0.70321900  0.36780000  1
  C  136  1  0.00162300  0.71037700  0.37543700  1
  C  137  1  0.02258300  0.70010100  0.36580600  1
  C  138  1  0.02056500  0.68114600  0.34896400  1
  C  142  1  0.99625100  0.65387300  0.32137500  1
  C  143  1  0.97351000  0.64513900  0.31287600  1
  C  144  1  0.97150200  0.62833000  0.29389900  1
  C  145  1  0.99244900  0.61866900  0.28362800  1
  C  146  1  0.01534500  0.62625700  0.29083100  1
  C  147  1  0.01694300  0.64397200  0.30922100  1
  C  155  1  0.99786200  0.32133900  0.65389400  1
  C  156  1  0.97717900  0.30918900  0.64397000  1
  C  157  1  0.97875300  0.29085500  0.62618700  1
  C  158  1  0.00166600  0.28369900  0.61856600  1
  C  159  1  0.02265400  0.29404400  0.62808400  1
  C  160  1  0.02061500  0.31290300  0.64506100  1
  C  164  1  0.99620400  0.34016900  0.67272500  1
  C  165  1  0.97345200  0.34899600  0.68117100  1
  C  166  1  0.97141500  0.36599700  0.70000400  1
  C  167  1  0.99240800  0.37547800  0.71038000  1
  C  168  1  0.01531800  0.36787800  0.70320600  1
  C  169  1  0.01688600  0.35008600  0.68488300  1
  C  177  1  0.34016100  0.99622400  0.32137000  1
  C  178  1  0.35007500  0.01690500  0.30921400  1
  C  179  1  0.36783600  0.01531100  0.29086700  1
  C  180  1  0.37545900  0.99240900  0.28369300  1
  C  181  1  0.36585500  0.97143300  0.29397400  1
  C  182  1  0.34897400  0.97347000  0.31291500  1
  C  186  1  0.32133600  0.99787800  0.34019400  1
  C  187  1  0.31286100  0.02062700  0.34899600  1
  C  188  1  0.29402600  0.02266400  0.36599500  1
  C  189  1  0.28366100  0.00167600  0.37548700  1
  C  190  1  0.29080600  0.97877500  0.36783400  1
  C  191  1  0.30919000  0.97719300  0.35010900  1
  C  199  1  0.65391000  0.99629100  0.67267900  1
  C  200  1  0.64398800  0.01696900  0.68483300  1
  C  201  1  0.62622800  0.01536500  0.70318300  1
  C  202  1  0.61867600  0.99246900  0.71042500  1
  C  203  1  0.62837500  0.97153200  0.70017700  1
  C  204  1  0.64517300  0.97354400  0.68118200  1
  C  208  1  0.67271600  0.99790400  0.65384700  1
  C  209  1  0.68117600  0.02064300  0.64502900  1
  C  210  1  0.69999900  0.02268100  0.62802100  1
  C  211  1  0.71037300  0.00169000  0.61855000  1
  C  212  1  0.70322400  0.97879300  0.62621200  1
  C  213  1  0.68485600  0.97720900  0.64394600  1
  C  221  1  0.34021700  0.99789000  0.67270400  1
  C  222  1  0.35011500  0.97719500  0.68485800  1
  C  223  1  0.36782700  0.97877300  0.70325500  1
  C  224  1  0.37549100  0.00167700  0.71037900  1
  C  225  1  0.36593400  0.02265900  0.70006700  1
  C  226  1  0.34902700  0.02063800  0.68115500  1
  C  230  1  0.32138800  0.99627300  0.65389800  1
  C  231  1  0.31289200  0.97352400  0.64515700  1
  C  232  1  0.29393100  0.97149400  0.62832100  1
  C  233  1  0.28364300  0.99244400  0.61867600  1
  C  234  1  0.29083800  0.01534300  0.62626500  1
  C  235  1  0.30922800  0.01695300  0.64398100  1
  C  243  1  0.65391000  0.99784800  0.32135500  1
  C  244  1  0.64398800  0.97716600  0.30920700  1
  C  245  1  0.62621000  0.97875700  0.29087400  1
  C  246  1  0.61859300  0.00165900  0.28370000  1
  C  247  1  0.62814300  0.02263400  0.29403400  1
  C  248  1  0.64509000  0.02060100  0.31291000  1
  C  252  1  0.67273400  0.99619700  0.34017900  1
  C  253  1  0.68117800  0.97344500  0.34900700  1
  C  254  1  0.70001500  0.97141000  0.36600100  1
  C  255  1  0.71038800  0.99240400  0.37548400  1
  C  256  1  0.70321200  0.01531400  0.36788300  1
  C  257  1  0.68488900  0.01688100  0.35009100  1
  C  265  1  0.82070900  0.83942800  0.49674500  1
  C  266  1  0.80846400  0.84863400  0.51770700  1
  C  267  1  0.78987600  0.86620900  0.51639400  1
  C  268  1  0.78292000  0.87476900  0.49387900  1
  C  269  1  0.79445500  0.86681800  0.47310500  1
  C  270  1  0.81317400  0.84969800  0.47436700  1
  C  274  1  0.83950500  0.82067100  0.49756800  1
  C  275  1  0.84981900  0.81297400  0.51988800  1
  C  276  1  0.86681500  0.79407700  0.52092400  1
  C  277  1  0.87476700  0.78283000  0.49999600  1
  C  278  1  0.86617700  0.78995700  0.47758800  1
  C  279  1  0.84862100  0.80853800  0.47649300  1
  C  287  1  0.17346900  0.15465900  0.49664400  1
  C  288  1  0.18567100  0.14542400  0.51762000  1
  C  289  1  0.20424100  0.12784300  0.51635100  1
  C  290  1  0.21124000  0.11933200  0.49384000  1
  C  291  1  0.19973400  0.12730000  0.47305300  1
  C  292  1  0.18100200  0.14440700  0.47426300  1
  C  296  1  0.15468200  0.17340700  0.49750700  1
  C  297  1  0.14437800  0.18094600  0.51989400  1
  C  298  1  0.12724700  0.19970900  0.52106600  1
  C  299  1  0.11939300  0.21112300  0.50019800  1
  C  300  1  0.12790700  0.20413100  0.47771600  1
  C  301  1  0.14546300  0.18555500  0.47648000  1
  C  309  1  0.17348300  0.83924800  0.49700600  1
  C  310  1  0.18612800  0.84892200  0.47646200  1
  C  311  1  0.20443500  0.86677900  0.47843300  1
  C  312  1  0.21083800  0.87511800  0.50129500  1
  C  313  1  0.19872500  0.86639900  0.52143900  1
  C  314  1  0.18035900  0.84916000  0.51950100  1
  C  318  1  0.15449100  0.82085400  0.49617400  1
  C  319  1  0.14508800  0.81371300  0.47342200  1
  C  320  1  0.12808800  0.79519700  0.47113100  1
  C  321  1  0.11886000  0.78399400  0.49184000  1
  C  322  1  0.12672600  0.79027600  0.51489900  1
  C  323  1  0.14477000  0.80833100  0.51681500  1
  C  331  1  0.82125400  0.15403800  0.49781500  1
  C  332  1  0.80912400  0.14418500  0.47710000  1
  C  333  1  0.79076200  0.12644500  0.47872400  1
  C  334  1  0.78355800  0.11873800  0.50148400  1
  C  335  1  0.79346400  0.12887100  0.52227300  1
  C  336  1  0.81270400  0.14535500  0.52053300  1
  C  340  1  0.84002600  0.17280500  0.49624300  1
  C  341  1  0.84871300  0.18135500  0.47352400  1
  C  342  1  0.86524200  0.20055700  0.47177400  1
  C  343  1  0.87531800  0.21050500  0.49257400  1
  C  344  1  0.86762200  0.20329300  0.51533300  1
  C  345  1  0.84986900  0.18494700  0.51695600  1
  C  353  1  0.49631300  0.82037900  0.83973600  1
  C  354  1  0.51731400  0.80802700  0.84881200  1
  C  355  1  0.51621200  0.78963100  0.86647400  1
  C  356  1  0.49378900  0.78270400  0.87512000  1
  C  357  1  0.47294100  0.79408600  0.86708300  1
  C  358  1  0.47395100  0.81285200  0.84994900  1
  C  362  1  0.49735200  0.83942600  0.82132100  1
  C  363  1  0.52016700  0.84894700  0.81427300  1
  C  364  1  0.52282800  0.86594600  0.79580200  1
  C  365  1  0.50215600  0.87500400  0.78434900  1
  C  366  1  0.47901300  0.86715100  0.79053600  1
  C  367  1  0.47685700  0.84915600  0.80868200  1
  C  375  1  0.49656100  0.17352500  0.15461600  1
  C  376  1  0.51756500  0.18572600  0.14539200  1
  C  377  1  0.51630900  0.20428600  0.12780600  1
  C  378  1  0.49379800  0.21127900  0.11929800  1
  C  379  1  0.47301500  0.19977200  0.12728100  1
  C  380  1  0.47420000  0.18104500  0.14438300  1
  C  384  1  0.49729800  0.15476000  0.17335600  1
  C  385  1  0.51970800  0.14457500  0.18077100  1
  C  386  1  0.52107500  0.12753100  0.19950900  1
  C  387  1  0.50039200  0.11939400  0.21107100  1
  C  388  1  0.47780000  0.12779800  0.20414900  1
  C  389  1  0.47637400  0.14541100  0.18559300  1
  C  397  1  0.49691100  0.17319800  0.83908900  1
  C  398  1  0.47629500  0.18571900  0.84872600  1
  C  399  1  0.47824700  0.20410400  0.86658800  1
  C  400  1  0.50107100  0.21057000  0.87501500  1
  C  401  1  0.52126400  0.19848200  0.86646900  1
  C  402  1  0.51934100  0.18009100  0.84925000  1
  C  406  1  0.49632000  0.15454500  0.82028000  1
  C  407  1  0.47398600  0.14434200  0.81283000  1
  C  408  1  0.47288900  0.12723500  0.79411800  1
  C  409  1  0.49366300  0.11917500  0.78263200  1
  C  410  1  0.51616700  0.12767200  0.78960600  1
  C  411  1  0.51736300  0.14533200  0.80806600  1
  C  419  1  0.49840000  0.82094600  0.15415500  1
  C  420  1  0.47748500  0.80902400  0.14438700  1
  C  421  1  0.47882400  0.79080400  0.12645200  1
  C  422  1  0.50150700  0.78350000  0.11860800  1
  C  423  1  0.52239000  0.79328200  0.12867200  1
  C  424  1  0.52097100  0.81245000  0.14521400  1
  C  428  1  0.49728900  0.83941200  0.17319100  1
  C  429  1  0.47474200  0.84937600  0.18055700  1
  C  430  1  0.47308500  0.86639000  0.19931600  1
  C  431  1  0.49362400  0.87460500  0.21107600  1
  C  432  1  0.51629800  0.86629800  0.20431600  1
  C  433  1  0.51801000  0.84881200  0.18569600  1
  C  441  1  0.83955400  0.49640600  0.82055500  1
  C  442  1  0.84867000  0.51747300  0.80838500  1
  C  443  1  0.86628300  0.51636700  0.78986600  1
  C  444  1  0.87491800  0.49394100  0.78283400  1
  C  445  1  0.86698600  0.47306000  0.79419600  1
  C  446  1  0.84988200  0.47409200  0.81297100  1
  C  450  1  0.82075000  0.49717700  0.83927300  1
  C  451  1  0.81334200  0.51961100  0.84942800  1
  C  452  1  0.79461700  0.52105900  0.86647600  1
  C  453  1  0.78299600  0.50041800  0.87462100  1
  C  454  1  0.78989800  0.47780000  0.86625100  1
  C  455  1  0.80846800  0.47629800  0.84864100  1
  C  463  1  0.15448900  0.49699500  0.17335200  1
  C  464  1  0.14520900  0.51781500  0.18577000  1
  C  465  1  0.12775100  0.51632700  0.20439000  1
  C  466  1  0.11936000  0.49375300  0.21128800  1
  C  467  1  0.12744900  0.47306200  0.19968900  1
  C  468  1  0.14448700  0.47449000  0.18088500  1
  C  472  1  0.17292000  0.49819300  0.15427900  1
  C  473  1  0.18118200  0.52082500  0.14519600  1
  C  474  1  0.20024200  0.52238600  0.12852800  1
  C  475  1  0.21030100  0.50151800  0.11873700  1
  C  476  1  0.20323500  0.47879500  0.12665800  1
  C  477  1  0.18498400  0.47734500  0.14456200  1
  C  485  1  0.83908400  0.49691300  0.17318300  1
  C  486  1  0.84872600  0.47630000  0.18571200  1
  C  487  1  0.86658900  0.47826000  0.20408900  1
  C  488  1  0.87499500  0.50109800  0.21051800  1
  C  489  1  0.86646200  0.52128800  0.19842300  1
  C  490  1  0.84923000  0.51936600  0.18004200  1
  C  494  1  0.82027400  0.49631600  0.15454000  1
  C  495  1  0.81282700  0.47398200  0.14433900  1
  C  496  1  0.79411600  0.47288700  0.12723200  1
  C  497  1  0.78263000  0.49366000  0.11916900  1
  C  498  1  0.78960100  0.51616500  0.12766700  1
  C  499  1  0.80805900  0.51736100  0.14532800  1
  C  507  1  0.15418400  0.49836200  0.82102700  1
  C  508  1  0.14441400  0.47744600  0.80911400  1
  C  509  1  0.12650800  0.47878200  0.79086300  1
  C  510  1  0.11866600  0.50146400  0.78354900  1
  C  511  1  0.12870400  0.52235700  0.79333300  1
  C  512  1  0.14524300  0.52093500  0.81251000  1
  C  516  1  0.17323700  0.49724400  0.83948200  1
  C  517  1  0.18069200  0.47470100  0.84940800  1
  C  518  1  0.19949300  0.47307400  0.86638600  1
  C  519  1  0.21120000  0.49365400  0.87459400  1
  C  520  1  0.20436500  0.51631600  0.86631400  1
  C  521  1  0.18570500  0.51798600  0.84887300  1
  C  529  1  0.42701000  0.22919200  0.89905200  1
  C  530  1  0.40894000  0.22175900  0.91545800  1
  C  531  1  0.39537400  0.23859800  0.92903700  1
  C  532  1  0.39961200  0.26386400  0.92729700  1
  C  533  1  0.41786900  0.27108900  0.91092500  1
  C  534  1  0.43110400  0.25431800  0.89714100  1
  C  536  1  0.37212500  0.20521500  0.94568400  1
  C  537  1  0.38713700  0.18808800  0.93362900  1
  C  541  1  0.35017200  0.20332200  0.96074100  1
  C  542  1  0.33584900  0.18011600  0.96522800  1
  C  548  1  0.38900900  0.16111500  0.93241800  1
  C  549  1  0.37708100  0.14263100  0.94941800  1
  C  555  1  0.44026800  0.21213000  0.88583800  1
  C  557  1  0.38805800  0.28179100  0.94123100  1
  C  559  1  0.56733100  0.76487300  0.89895100  1
  C  560  1  0.58525900  0.77228100  0.91550200  1
  C  561  1  0.59875700  0.75543600  0.92912000  1
  C  562  1  0.59449700  0.73017300  0.92735200  1
  C  563  1  0.57623000  0.72296700  0.91098800  1
  C  564  1  0.56310500  0.73975400  0.89712600  1
  C  566  1  0.62199800  0.78883300  0.94575200  1
  C  567  1  0.60699400  0.80597000  0.93369700  1
  C  571  1  0.64396100  0.79073400  0.96077700  1
  C  572  1  0.65824000  0.81396500  0.96524100  1
  C  578  1  0.60507700  0.83294000  0.93244700  1
  C  579  1  0.61698900  0.85144500  0.94943000  1
  C  585  1  0.55428800  0.78201400  0.88563300  1
  C  587  1  0.60602300  0.71223900  0.94127800  1
  C  589  1  0.56731300  0.22917000  0.09509700  1
  C  590  1  0.58525600  0.22177500  0.07855300  1
  C  591  1  0.59874600  0.23862500  0.06493100  1
  C  592  1  0.59447200  0.26388600  0.06671300  1
  C  593  1  0.57621400  0.27108300  0.08308800  1
  C  594  1  0.56308700  0.25428800  0.09693700  1
  C  596  1  0.62199900  0.20523300  0.04829700  1
  C  597  1  0.60698900  0.18809300  0.06034000  1
  C  601  1  0.64395700  0.20333500  0.03325600  1
  C  602  1  0.65823900  0.18010000  0.02881100  1
  C  608  1  0.60508500  0.16112300  0.06161000  1
  C  609  1  0.61699200  0.14261200  0.04462900  1
  C  615  1  0.55428500  0.21202300  0.10843000  1
  C  617  1  0.60602900  0.28184300  0.05285300  1
  C  619  1  0.42706000  0.76494800  0.09508600  1
  C  620  1  0.40896900  0.77232200  0.07865500  1
  C  621  1  0.39540800  0.75547800  0.06506400  1
  C  622  1  0.39964600  0.73021500  0.06680000  1
  C  623  1  0.41792600  0.72303000  0.08317500  1
  C  624  1  0.43116800  0.73981900  0.09697000  1
  C  626  1  0.37213400  0.78883900  0.04840100  1
  C  627  1  0.38715200  0.80597100  0.06044000  1
  C  631  1  0.35019400  0.79073200  0.03331900  1
  C  632  1  0.33586000  0.81393300  0.02883300  1
  C  638  1  0.38901600  0.83294400  0.06164400  1
  C  639  1  0.37708300  0.85142400  0.04464400  1
  C  645  1  0.44033500  0.78213700  0.10820200  1
  C  647  1  0.38805600  0.71227200  0.05288100  1
  C  649  1  0.89905200  0.42701500  0.22919200  1
  C  650  1  0.91545800  0.40894200  0.22175900  1
  C  651  1  0.92903600  0.39537600  0.23859900  1
  C  652  1  0.92729700  0.39961200  0.26386600  1
  C  653  1  0.91092500  0.41786900  0.27108900  1
  C  654  1  0.89714100  0.43110500  0.25431800  1
  C  656  1  0.94568400  0.37212600  0.20521700  1
  C  657  1  0.93362700  0.38713900  0.18809000  1
  C  661  1  0.96074000  0.35017200  0.20332200  1
  C  662  1  0.96522800  0.33584900  0.18011800  1
  C  668  1  0.93241600  0.38900900  0.16111500  1
  C  669  1  0.94941800  0.37708100  0.14263100  1
  C  675  1  0.88584000  0.44027500  0.21213100  1
  C  677  1  0.94122800  0.38805600  0.28179500  1
  C  679  1  0.89894700  0.56732500  0.76489200  1
  C  680  1  0.91550200  0.58525800  0.77228400  1
  C  681  1  0.92912200  0.59875200  0.75543600  1
  C  682  1  0.92735500  0.59448300  0.73017700  1
  C  683  1  0.91098100  0.57621900  0.72298000  1
  C  684  1  0.89712100  0.56309200  0.73977200  1
  C  686  1  0.94575200  0.62199900  0.78883200  1
  C  687  1  0.93369900  0.60699800  0.80597000  1
  C  691  1  0.96077900  0.64396300  0.79073200  1
  C  692  1  0.96524100  0.65824000  0.81396300  1
  C  698  1  0.93244700  0.60507900  0.83294000  1
  C  699  1  0.94943000  0.61698900  0.85144500  1
  C  705  1  0.88561700  0.55433000  0.78207200  1
  C  707  1  0.94127100  0.60602100  0.71223900  1
  C  709  1  0.09508100  0.56731300  0.22918500  1
  C  710  1  0.07854900  0.58525600  0.22177700  1
  C  711  1  0.06493000  0.59874800  0.23862600  1
  C  712  1  0.06671100  0.59447400  0.26388600  1
  C  713  1  0.08308400  0.57621900  0.27109100  1
  C  714  1  0.09693100  0.56309100  0.25430000  1
  C  716  1  0.04829800  0.62199900  0.20523100  1
  C  717  1  0.06034200  0.60698900  0.18809300  1
  C  721  1  0.03325600  0.64395700  0.20333300  1
  C  722  1  0.02881100  0.65823900  0.18010000  1
  C  728  1  0.06161100  0.60508500  0.16112200  1
  C  729  1  0.04462900  0.61699200  0.14261300  1
  C  735  1  0.10840300  0.55427200  0.21206100  1
  C  737  1  0.05285200  0.60603000  0.28184300  1
  C  739  1  0.09509400  0.42705800  0.76495900  1
  C  740  1  0.07865700  0.40896900  0.77232600  1
  C  741  1  0.06506500  0.39541200  0.75548100  1
  C  742  1  0.06680200  0.39965000  0.73021800  1
  C  743  1  0.08317800  0.41793400  0.72303700  1
  C  744  1  0.09697400  0.43117400  0.73982900  1
  C  746  1  0.04840100  0.37213400  0.78883900  1
  C  747  1  0.06043900  0.38715200  0.80597100  1
  C  751  1  0.03331900  0.35019600  0.79073200  1
  C  752  1  0.02883300  0.33586000  0.81393300  1
  C  758  1  0.06164400  0.38901600  0.83294400  1
  C  759  1  0.04464300  0.37708300  0.85142400  1
  C  765  1  0.10821500  0.44031700  0.78216200  1
  C  767  1  0.05287900  0.38806000  0.71227500  1
  C  769  1  0.22921500  0.89906100  0.42698100  1
  C  770  1  0.22176600  0.91546900  0.40892200  1
  C  771  1  0.23860500  0.92904800  0.39535800  1
  C  772  1  0.26387300  0.92730800  0.39959600  1
  C  773  1  0.27110500  0.91093900  0.41784700  1
  C  774  1  0.25434300  0.89715200  0.43107500  1
  C  776  1  0.20521500  0.94569100  0.37211700  1
  C  777  1  0.18809000  0.93363200  0.38713400  1
  C  781  1  0.20332000  0.96074500  0.35016500  1
  C  782  1  0.18011300  0.96523000  0.33584600  1
  C  788  1  0.16111500  0.93242000  0.38900700  1
  C  789  1  0.14263000  0.94941800  0.37708000  1
  C  795  1  0.21219400  0.88586000  0.44028100  1
  C  797  1  0.28179800  0.94123800  0.38804700  1
  C  799  1  0.76489200  0.89895600  0.56731800  1
  C  800  1  0.77228600  0.91550400  0.58525800  1
  C  801  1  0.75543800  0.92912200  0.59875400  1
  C  802  1  0.73017700  0.92735300  0.59448300  1
  C  803  1  0.72298000  0.91098100  0.57621900  1
  C  804  1  0.73977400  0.89712100  0.56309200  1
  C  806  1  0.78883200  0.94575400  0.62199900  1
  C  807  1  0.80597000  0.93370100  0.60699900  1
  C  811  1  0.79073200  0.96078100  0.64396400  1
  C  812  1  0.81396500  0.96524100  0.65824200  1
  C  818  1  0.83294000  0.93244900  0.60507900  1
  C  819  1  0.85144700  0.94943000  0.61699000  1
  C  825  1  0.78205400  0.88562600  0.55430500  1
  C  827  1  0.71223700  0.94126700  0.60601900  1
  C  829  1  0.22916100  0.09510400  0.56731600  1
  C  830  1  0.22177100  0.07855400  0.58525600  1
  C  831  1  0.23862500  0.06493200  0.59874500  1
  C  832  1  0.26388400  0.06671400  0.59446900  1
  C  833  1  0.27107600  0.08309000  0.57620900  1
  C  834  1  0.25427900  0.09694100  0.56308300  1
  C  836  1  0.20523300  0.04829800  0.62199900  1
  C  837  1  0.18809300  0.06033900  0.60699000  1
  C  841  1  0.20333300  0.03325700  0.64395700  1
  C  842  1  0.18010000  0.02881000  0.65823900  1
  C  848  1  0.16112200  0.06161000  0.60508500  1
  C  849  1  0.14261200  0.04462800  0.61699200  1
  C  855  1  0.21200200  0.10843900  0.55430500  1
  C  857  1  0.28184200  0.05285200  0.60602500  1
  C  859  1  0.76493600  0.09506700  0.42705500  1
  C  860  1  0.77232000  0.07864700  0.40896600  1
  C  861  1  0.75547800  0.06506100  0.39540600  1
  C  862  1  0.73021300  0.06679700  0.39964500  1
  C  863  1  0.72302300  0.08317000  0.41792300  1
  C  864  1  0.73980800  0.09696200  0.43116700  1
  C  866  1  0.78883900  0.04840100  0.37213400  1
  C  867  1  0.80597100  0.06044000  0.38715200  1
  C  871  1  0.79073200  0.03331700  0.35019600  1
  C  872  1  0.81393300  0.02883200  0.33586000  1
  C  878  1  0.83294400  0.06164500  0.38901600  1
  C  879  1  0.85142400  0.04464400  0.37708300  1
  C  885  1  0.78210800  0.10817400  0.44032600  1
  C  887  1  0.71227300  0.05287700  0.38805600  1
  C  889  1  0.22912400  0.42709800  0.09509500  1
  C  890  1  0.22173700  0.40899300  0.07867000  1
  C  891  1  0.23857400  0.39542400  0.06506900  1
  C  892  1  0.26383900  0.39966100  0.06679000  1
  C  893  1  0.27103600  0.41792300  0.08317800  1
  C  894  1  0.25425900  0.43117200  0.09697800  1
  C  896  1  0.20521900  0.37215200  0.04839100  1
  C  897  1  0.18809100  0.38715900  0.06045200  1
  C  901  1  0.20332700  0.35019600  0.03332600  1
  C  902  1  0.18012700  0.33585800  0.02883500  1
  C  908  1  0.16111700  0.38901400  0.06164700  1
  C  909  1  0.14263600  0.37708300  0.04464400  1
  C  915  1  0.21197100  0.44040700  0.10824900  1
  C  917  1  0.28177900  0.38808100  0.05286400  1
  C  919  1  0.76486700  0.56730200  0.09507100  1
  C  920  1  0.77228100  0.58524900  0.07854200  1
  C  921  1  0.75543500  0.59875500  0.06492700  1
  C  922  1  0.73017200  0.59448800  0.06669200  1
  C  923  1  0.72296300  0.57622800  0.08306100  1
  C  924  1  0.73974800  0.56309400  0.09691400  1
  C  926  1  0.78883300  0.62200100  0.04830900  1
  C  927  1  0.80596800  0.60699600  0.06036300  1
  C  931  1  0.79073700  0.64395000  0.03326500  1
  C  932  1  0.81396500  0.65824000  0.02881200  1
  C  938  1  0.83293800  0.60507900  0.06161100  1
  C  939  1  0.85144500  0.61699000  0.04462900  1
  C  945  1  0.78198400  0.55424200  0.10840000  1
  C  947  1  0.71221200  0.60606100  0.05283600  1
  C  949  1  0.22919600  0.56729800  0.89899200  1
  C  950  1  0.22177800  0.58525400  0.91550700  1
  C  951  1  0.23862500  0.59875400  0.92912400  1
  C  952  1  0.26388800  0.59448800  0.92735000  1
  C  953  1  0.27109600  0.57623400  0.91097700  1
  C  954  1  0.25431300  0.56309600  0.89713200  1
  C  956  1  0.20522800  0.62200100  0.94574700  1
  C  957  1  0.18809100  0.60698300  0.93371000  1
  C  961  1  0.20332700  0.64396300  0.96077700  1
  C  962  1  0.18009600  0.65824000  0.96524100  1
  C  968  1  0.16112000  0.60508100  0.93244500  1
  C  969  1  0.14261300  0.61699000  0.94943000  1
  C  975  1  0.21209400  0.55422900  0.88568000  1
  C  977  1  0.28182900  0.60602100  0.94125500  1
  C  979  1  0.76488200  0.42683300  0.89901900  1
  C  980  1  0.77228600  0.40884900  0.91551400  1
  C  981  1  0.75543800  0.39532500  0.92910900  1
  C  982  1  0.73017300  0.39958000  0.92734300  1
  C  983  1  0.72297400  0.41785200  0.91098100  1
  C  984  1  0.73976100  0.43102100  0.89715500  1
  C  986  1  0.78883500  0.37207100  0.94572200  1
  C  987  1  0.80597000  0.38709100  0.93368800  1
  C  991  1  0.79073900  0.35012700  0.96077400  1
  C  992  1  0.81395800  0.33583000  0.96523900  1
  C  998  1  0.83294200  0.38898900  0.93243800  1
  C  999  1  0.85144200  0.37707200  0.94942500  1
  C  1005  1  0.78201800  0.43990400  0.88572000  1
  C  1007  1  0.71222300  0.38800000  0.94121700  1
  C  1009  1  0.42715000  0.89899600  0.76488300  1
  C  1010  1  0.40901100  0.91538800  0.77231100  1
  C  1011  1  0.39541500  0.92898900  0.75548300  1
  C  1012  1  0.39963700  0.92727900  0.73021100  1
  C  1013  1  0.41788900  0.91090000  0.72299000  1
  C  1014  1  0.43115800  0.89710800  0.73974600  1
  C  1016  1  0.37214800  0.94566200  0.78884200  1
  C  1017  1  0.38716600  0.93359800  0.80596200  1
  C  1021  1  0.35019000  0.96072900  0.79073500  1
  C  1022  1  0.33585700  0.96522400  0.81393600  1
  C  1028  1  0.38901600  0.93241100  0.83294000  1
  C  1029  1  0.37708300  0.94941600  0.85142200  1
  C  1035  1  0.44064800  0.88584000  0.78190100  1
  C  1037  1  0.38806900  0.94122400  0.71228200  1
  C  1039  1  0.56723900  0.89901900  0.22919600  1
  C  1040  1  0.58521400  0.91551100  0.22177300  1
  C  1041  1  0.59873600  0.92910800  0.23861700  1
  C  1042  1  0.59447600  0.92734400  0.26388000  1
  C  1043  1  0.57621600  0.91097700  0.27109400  1
  C  1044  1  0.56305600  0.89714600  0.25431500  1
  C  1046  1  0.62198100  0.94572900  0.20522000  1
  C  1047  1  0.60697600  0.93367700  0.18808600  1
  C  1051  1  0.64392800  0.96078100  0.20332200  1
  C  1052  1  0.65822800  0.96524200  0.18010300  1
  C  1058  1  0.60506800  0.93243800  0.16111500  1
  C  1059  1  0.61698700  0.94942700  0.14261800  1
  C  1065  1  0.55416600  0.88570900  0.21209500  1
  C  1067  1  0.60601400  0.94125500  0.28181800  1
  C  1069  1  0.56730200  0.09508100  0.76487300  1
  C  1070  1  0.58525000  0.07855200  0.77228300  1
  C  1071  1  0.59874800  0.06493500  0.75543300  1
  C  1072  1  0.59447800  0.06671600  0.73017200  1
  C  1073  1  0.57622100  0.08308700  0.72296700  1
  C  1074  1  0.56308900  0.09693000  0.73975500  1
  C  1076  1  0.62199900  0.04830900  0.78882800  1
  C  1077  1  0.60698500  0.06034700  0.80596600  1
  C  1081  1  0.64395900  0.03327500  0.79072600  1
  C  1082  1  0.65823900  0.02881600  0.81396000  1
  C  1088  1  0.60508300  0.06161300  0.83293700  1
  C  1089  1  0.61699000  0.04463000  0.85144700  1
  C  1095  1  0.55424200  0.10840500  0.78199100  1
  C  1097  1  0.60602700  0.05285700  0.71221400  1
  C  1099  1  0.42681000  0.09505500  0.22917200  1
  C  1100  1  0.40883200  0.07855000  0.22177300  1
  C  1101  1  0.39531500  0.06495200  0.23862300  1
  C  1102  1  0.39957300  0.06672600  0.26388600  1
  C  1103  1  0.41784900  0.08308700  0.27108300  1
  C  1104  1  0.43101200  0.09691300  0.25429100  1
  C  1106  1  0.37206700  0.04832800  0.20522800  1
  C  1107  1  0.38708300  0.06036400  0.18809000  1
  C  1111  1  0.35012200  0.03327700  0.20332400  1
  C  1112  1  0.33582800  0.02881600  0.18010000  1
  C  1118  1  0.38898700  0.06161800  0.16111900  1
  C  1119  1  0.37707200  0.04463200  0.14261700  1
  C  1125  1  0.43989500  0.10832400  0.21202300  1
  C  1127  1  0.38800900  0.05285100  0.28184300  1
  C  1129  1  0.89898300  0.22912200  0.56699900  1
  C  1130  1  0.91540300  0.22173500  0.58509000  1
  C  1131  1  0.92899100  0.23858000  0.59864700  1
  C  1132  1  0.92726000  0.26384100  0.59440200  1
  C  1133  1  0.91087500  0.27103600  0.57613800  1
  C  1134  1  0.89708300  0.25425100  0.56289400  1
  C  1136  1  0.94566400  0.20521700  0.62191100  1
  C  1137  1  0.93360900  0.18808600  0.60690600  1
  C  1141  1  0.96073100  0.20332700  0.64386400  1
  C  1142  1  0.96522300  0.18012800  0.65819700  1
  C  1148  1  0.93241100  0.16111300  0.60504100  1
  C  1149  1  0.94941400  0.14263600  0.61697400  1
  C  1155  1  0.88586200  0.21194900  0.55374600  1
  C  1157  1  0.94121700  0.28176800  0.60596200  1
  C  1159  1  0.89894700  0.76490700  0.42673600  1
  C  1160  1  0.91550900  0.77228600  0.40880700  1
  C  1161  1  0.92912200  0.75543500  0.39531300  1
  C  1162  1  0.92734300  0.73017500  0.39958900  1
  C  1163  1  0.91097200  0.72298900  0.41786000  1
  C  1164  1  0.89711900  0.73979000  0.43098500  1
  C  1166  1  0.94575200  0.78882600  0.37206000  1
  C  1167  1  0.93370400  0.80596800  0.38706000  1
  C  1171  1  0.96078300  0.79072800  0.35010200  1
  C  1172  1  0.96524400  0.81396000  0.33582100  1
  C  1178  1  0.93244900  0.83293800  0.38897800  1
  C  1179  1  0.94943000  0.85144500  0.37706900  1
  C  1185  1  0.88561000  0.78211300  0.43969000  1
  C  1187  1  0.94121100  0.71221900  0.38802200  1
  C  1189  1  0.09508600  0.22916500  0.42678100  1
  C  1190  1  0.07855600  0.22177300  0.40882000  1
  C  1191  1  0.06493700  0.23862100  0.39531600  1
  C  1192  1  0.06671100  0.26388200  0.39958500  1
  C  1193  1  0.08308900  0.27107800  0.41784300  1
  C  1194  1  0.09693300  0.25428400  0.43098800  1
  C  1196  1  0.04831000  0.20522900  0.37206000  1
  C  1197  1  0.06034800  0.18809300  0.38707600  1
  C  1201  1  0.03328300  0.20332900  0.35009500  1
  C  1202  1  0.02882000  0.18009500  0.33581700  1
  C  1208  1  0.06161300  0.16112100  0.38897600  1
  C  1209  1  0.04463000  0.14261200  0.37706900  1
  C  1215  1  0.10842600  0.21200900  0.43980500  1
  C  1217  1  0.05282900  0.28183600  0.38803300  1
  C  1219  1  0.09504300  0.76486400  0.56692900  1
  C  1220  1  0.07864900  0.77230200  0.58505800  1
  C  1221  1  0.06504900  0.75547600  0.59865500  1
  C  1222  1  0.06676500  0.73020200  0.59444200  1
  C  1223  1  0.08312900  0.72297600  0.57618000  1
  C  1224  1  0.09692600  0.73972700  0.56291800  1
  C  1226  1  0.04840400  0.78884200  0.62192900  1
  C  1227  1  0.06045100  0.80596100  0.60689500  1
  C  1231  1  0.03332100  0.79073900  0.64387400  1
  C  1232  1  0.02883200  0.81394200  0.65820600  1
  C  1238  1  0.06164400  0.83293800  0.60504500  1
  C  1239  1  0.04464400  0.85142400  0.61697600  1
  C  1245  1  0.10821800  0.78185200  0.55342700  1
  C  1247  1  0.05286100  0.71225900  0.60603800  1
  C  1249  1  0.56906700  0.76609900  0.09561000  1
  C  1250  1  0.58689300  0.77205200  0.07863200  1
  C  1251  1  0.59997500  0.75443500  0.06578400  1
  C  1252  1  0.59483600  0.72942400  0.06938900  1
  C  1253  1  0.57595500  0.72353800  0.08557600  1
  C  1254  1  0.56332800  0.74140900  0.09836700  1
  C  1256  1  0.62270000  0.78755600  0.04740500  1
  C  1257  1  0.60806400  0.80523800  0.05912900  1
  C  1261  1  0.64473500  0.78983800  0.03262200  1
  C  1262  1  0.65833800  0.81358100  0.02858700  1
  C  1268  1  0.60571900  0.83221800  0.06074700  1
  C  1269  1  0.61725200  0.85138400  0.04427300  1
  C  1275  1  0.55537800  0.78458300  0.10555300  1
  C  1277  1  0.60333800  0.71076200  0.05473000  1
  C  1279  1  0.42521000  0.22771300  0.09451000  1
  C  1280  1  0.40812600  0.22201100  0.07682600  1
  C  1281  1  0.39477800  0.23978100  0.06453500  1
  C  1282  1  0.39983900  0.26474000  0.06871000  1
  C  1283  1  0.41900200  0.27029100  0.08475800  1
  C  1284  1  0.43134100  0.25220400  0.09759600  1
  C  1286  1  0.37123900  0.20670300  0.04703200  1
  C  1287  1  0.38626700  0.18894300  0.05816800  1
  C  1291  1  0.34897300  0.20437200  0.03261400  1
  C  1292  1  0.33560300  0.18049800  0.02859400  1
  C  1298  1  0.38832100  0.16197700  0.06039500  1
  C  1299  1  0.37674100  0.14263400  0.04419000  1
  C  1305  1  0.43223500  0.20973400  0.11045100  1
  C  1307  1  0.39084800  0.28373100  0.05477500  1
  C  1309  1  0.42497800  0.76627400  0.89930000  1
  C  1310  1  0.40801100  0.77207700  0.91705800  1
  C  1311  1  0.39478500  0.75432900  0.92951300  1
  C  1312  1  0.39988100  0.72935900  0.92541700  1
  C  1313  1  0.41897300  0.72374100  0.90933300  1
  C  1314  1  0.43117600  0.74178000  0.89633400  1
  C  1316  1  0.37128400  0.78742100  0.94701100  1
  C  1317  1  0.38635000  0.80516600  0.93590000  1
  C  1321  1  0.34901400  0.78972500  0.96142900  1
  C  1322  1  0.33561000  0.81357600  0.96545900  1
  C  1328  1  0.38833000  0.83213100  0.93362300  1
  C  1329  1  0.37674500  0.85144400  0.94986400  1
  C  1335  1  0.43233000  0.78421700  0.88350800  1
  C  1337  1  0.39085700  0.71041300  0.93936300  1
  C  1339  1  0.56721700  0.22829700  0.90092000  1
  C  1340  1  0.58516700  0.22253100  0.91783600  1
  C  1341  1  0.59921800  0.24013000  0.92952600  1
  C  1342  1  0.59441500  0.26511400  0.92529300  1
  C  1343  1  0.57525200  0.27088500  0.90928400  1
  C  1344  1  0.56213600  0.25289000  0.89698000  1
  C  1346  1  0.62280800  0.20680900  0.94668500  1
  C  1347  1  0.60765100  0.18915600  0.93562100  1
  C  1351  1  0.64491700  0.20426400  0.96130700  1
  C  1352  1  0.65837700  0.18043300  0.96540300  1
  C  1358  1  0.60559100  0.16216800  0.93336600  1
  C  1359  1  0.61715600  0.14284300  0.94964300  1
  C  1365  1  0.56198700  0.21022600  0.88437000  1
  C  1367  1  0.60355700  0.28389100  0.93940300  1
  C  1369  1  0.09561700  0.56905300  0.76610600  1
  C  1370  1  0.07863900  0.58688400  0.77205400  1
  C  1371  1  0.06579000  0.59996900  0.75443900  1
  C  1372  1  0.06938900  0.59483400  0.72942600  1
  C  1373  1  0.08557800  0.57595300  0.72354100  1
  C  1374  1  0.09837200  0.56332300  0.74141400  1
  C  1376  1  0.04740900  0.62269500  0.78755800  1
  C  1377  1  0.05913300  0.60806000  0.80523700  1
  C  1381  1  0.03262400  0.64473000  0.78983800  1
  C  1382  1  0.02858800  0.65833600  0.81358100  1
  C  1388  1  0.06074900  0.60571700  0.83221800  1
  C  1389  1  0.04427400  0.61725200  0.85138400  1
  C  1395  1  0.10556400  0.55535300  0.78459000  1
  C  1397  1  0.05472400  0.60333900  0.71076400  1
  C  1399  1  0.09451800  0.42524300  0.22769900  1
  C  1400  1  0.07684000  0.40813500  0.22200900  1
  C  1401  1  0.06453900  0.39478100  0.23977600  1
  C  1402  1  0.06869300  0.39987000  0.26472900  1
  C  1403  1  0.08476600  0.41900700  0.27028900  1
  C  1404  1  0.09760800  0.43135000  0.25219800  1
  C  1406  1  0.04703600  0.37123900  0.20670300  1
  C  1407  1  0.05817500  0.38626700  0.18894500  1
  C  1411  1  0.03261500  0.34897300  0.20437000  1
  C  1412  1  0.02859400  0.33560300  0.18049600  1
  C  1418  1  0.06039700  0.38832100  0.16197700  1
  C  1419  1  0.04419100  0.37674100  0.14263500  1
  C  1425  1  0.11048100  0.43224400  0.20970300  1
  C  1427  1  0.05477200  0.39084600  0.28372900  1
  C  1429  1  0.89931600  0.42503900  0.76630300  1
  C  1430  1  0.91706300  0.40804200  0.77207900  1
  C  1431  1  0.92950600  0.39479900  0.75432900  1
  C  1432  1  0.92540300  0.39989300  0.72936100  1
  C  1433  1  0.90931700  0.41898900  0.72375600  1
  C  1434  1  0.89633200  0.43120600  0.74180300  1
  C  1436  1  0.94700900  0.37128400  0.78740900  1
  C  1437  1  0.93590700  0.38635400  0.80515700  1
  C  1441  1  0.96142900  0.34901200  0.78971800  1
  C  1442  1  0.96545700  0.33561200  0.81357200  1
  C  1448  1  0.93362700  0.38833000  0.83212200  1
  C  1449  1  0.94986200  0.37674600  0.85144000  1
  C  1455  1  0.88352900  0.43240800  0.78426900  1
  C  1457  1  0.93934700  0.39086400  0.71041100  1
  C  1459  1  0.90089300  0.56723200  0.22827200  1
  C  1460  1  0.91782700  0.58516600  0.22252800  1
  C  1461  1  0.92952000  0.59921500  0.24012900  1
  C  1462  1  0.92528700  0.59441500  0.26511200  1
  C  1463  1  0.90928200  0.57525600  0.27088700  1
  C  1464  1  0.89697900  0.56214000  0.25288400  1
  C  1466  1  0.94668000  0.62280400  0.20680500  1
  C  1467  1  0.93561200  0.60765000  0.18915600  1
  C  1471  1  0.96130500  0.64491200  0.20426000  1
  C  1472  1  0.96540300  0.65837700  0.18043300  1
  C  1478  1  0.93336200  0.60558900  0.16216700  1
  C  1479  1  0.94964100  0.61715400  0.14284400  1
  C  1485  1  0.88430600  0.56205000  0.21019000  1
  C  1487  1  0.93939900  0.60355700  0.28388600  1
  C  1489  1  0.76614100  0.09566800  0.56902900  1
  C  1490  1  0.77207000  0.07866600  0.58686100  1
  C  1491  1  0.75445300  0.06580900  0.59995000  1
  C  1492  1  0.72944000  0.06940300  0.59481800  1
  C  1493  1  0.72356700  0.08559400  0.57593300  1
  C  1494  1  0.74144300  0.09839800  0.56330500  1
  C  1496  1  0.78756000  0.04741800  0.62268600  1
  C  1497  1  0.80523800  0.05914300  0.60804800  1
  C  1501  1  0.78983800  0.03263000  0.64472300  1
  C  1502  1  0.81357800  0.02859000  0.65833200  1
  C  1508  1  0.83222000  0.06075100  0.60571300  1
  C  1509  1  0.85138200  0.04427400  0.61725200  1
  C  1515  1  0.78463300  0.10562100  0.55529200  1
  C  1517  1  0.71077800  0.05473400  0.60332900  1
  C  1519  1  0.22770800  0.09452500  0.42521600  1
  C  1520  1  0.22200700  0.07684500  0.40812600  1
  C  1521  1  0.23977600  0.06454600  0.39478000  1
  C  1522  1  0.26473600  0.06871600  0.39984300  1
  C  1523  1  0.27028700  0.08476400  0.41900300  1
  C  1524  1  0.25220200  0.09760500  0.43134500  1
  C  1526  1  0.20670100  0.04703700  0.37124200  1
  C  1527  1  0.18894100  0.05817600  0.38626900  1
  C  1531  1  0.20437200  0.03261600  0.34897600  1
  C  1532  1  0.18049800  0.02859400  0.33560400  1
  C  1538  1  0.16197500  0.06039700  0.38832300  1
  C  1539  1  0.14263400  0.04419000  0.37674100  1
  C  1545  1  0.20972300  0.11045400  0.43227400  1
  C  1547  1  0.28372600  0.05478000  0.39085100  1
  C  1549  1  0.76632100  0.89956100  0.42530000  1
  C  1550  1  0.77206100  0.91722900  0.40820200  1
  C  1551  1  0.75430500  0.92955300  0.39485700  1
  C  1552  1  0.72934300  0.92540300  0.39993100  1
  C  1553  1  0.72375200  0.90932000  0.41904300  1
  C  1554  1  0.74182000  0.89643800  0.43136100  1
  C  1556  1  0.78738700  0.94698600  0.37127500  1
  C  1557  1  0.80513900  0.93592000  0.38636800  1
  C  1561  1  0.78971100  0.96141500  0.34900900  1
  C  1562  1  0.81356900  0.96545300  0.33561300  1
  C  1568  1  0.83210600  0.93362100  0.38833200  1
  C  1569  1  0.85142900  0.94985200  0.37674800  1
  C  1575  1  0.78425500  0.88353500  0.43225500  1
  C  1577  1  0.71038900  0.93932700  0.39086400  1
  C  1579  1  0.22821800  0.90095400  0.56725300  1
  C  1580  1  0.22251100  0.91791000  0.58517600  1
  C  1581  1  0.24013000  0.92957100  0.59921800  1
  C  1582  1  0.26510200  0.92530700  0.59437500  1
  C  1583  1  0.27084000  0.90929700  0.57520300  1
  C  1584  1  0.25281600  0.89698000  0.56213400  1
  C  1586  1  0.20682500  0.94673000  0.62283900  1
  C  1587  1  0.18915400  0.93570500  0.60767500  1
  C  1591  1  0.20429500  0.96132500  0.64496100  1
  C  1592  1  0.18044500  0.96540800  0.65838800  1
  C  1598  1  0.16216800  0.93340700  0.60561200  1
  C  1599  1  0.14282400  0.94965900  0.61717000  1
  C  1605  1  0.21009600  0.88437400  0.56218100  1
  C  1607  1  0.28390600  0.93937600  0.60352100  1
  C  1609  1  0.76627600  0.56842900  0.89992200  1
  C  1610  1  0.77193100  0.58568600  0.91746300  1
  C  1611  1  0.75418300  0.59922400  0.92956700  1
  C  1612  1  0.72923100  0.59419100  0.92535800  1
  C  1613  1  0.72364800  0.57501300  0.90932900  1
  C  1614  1  0.74175700  0.56249600  0.89664200  1
  C  1616  1  0.78730800  0.62282300  0.94694100  1
  C  1617  1  0.80504900  0.60772000  0.93589400  1
  C  1621  1  0.78970000  0.64505800  0.96139000  1
  C  1622  1  0.81357200  0.65843100  0.96543700  1
  C  1628  1  0.83201600  0.60570400  0.93357600  1
  C  1629  1  0.85136400  0.61727000  0.94979000  1
  C  1635  1  0.78431100  0.56190000  0.88379400  1
  C  1637  1  0.71031200  0.60330200  0.93932600  1
  C  1639  1  0.22766300  0.42551300  0.89975200  1
  C  1640  1  0.22201800  0.40831400  0.91736400  1
  C  1641  1  0.23978600  0.39486600  0.92955400  1
  C  1642  1  0.26473400  0.39992900  0.92535800  1
  C  1643  1  0.27028200  0.41908600  0.90929500  1
  C  1644  1  0.25216900  0.43151100  0.89652800  1
  C  1646  1  0.20671500  0.37125800  0.94700200  1
  C  1647  1  0.18895400  0.38630700  0.93590000  1
  C  1651  1  0.20437200  0.34899200  0.96142400  1
  C  1652  1  0.18050100  0.33561300  0.96545500  1
  C  1658  1  0.16198500  0.38833300  0.93365200  1
  C  1659  1  0.14264300  0.37675000  0.94985500  1
  C  1665  1  0.20966700  0.43211800  0.88360300  1
  C  1667  1  0.28369900  0.39086600  0.93930000  1
  C  1669  1  0.76633500  0.42519400  0.09447900  1
  C  1670  1  0.77205200  0.40811900  0.07680400  1
  C  1671  1  0.75428200  0.39479400  0.06450200  1
  C  1672  1  0.72932900  0.39989700  0.06867300  1
  C  1673  1  0.72375600  0.41901800  0.08475000  1
  C  1674  1  0.74184700  0.43131300  0.09761500  1
  C  1676  1  0.78736400  0.37122400  0.04704900  1
  C  1677  1  0.80513000  0.38630900  0.05809900  1
  C  1681  1  0.78969400  0.34896400  0.03262800  1
  C  1682  1  0.81356900  0.33559900  0.02859700  1
  C  1688  1  0.83209400  0.38830300  0.06041500  1
  C  1689  1  0.85143500  0.37673700  0.04419700  1
  C  1695  1  0.78432300  0.43217200  0.11039600  1
  C  1697  1  0.71039800  0.39085100  0.05472000  1
  C  1699  1  0.22794900  0.56878600  0.09527800  1
  C  1700  1  0.22207400  0.58663500  0.07828800  1
  C  1701  1  0.23971100  0.59988700  0.06563500  1
  C  1702  1  0.26472700  0.59484000  0.06935300  1
  C  1703  1  0.27055200  0.57588400  0.08549000  1
  C  1704  1  0.25264100  0.56312300  0.09812400  1
  C  1706  1  0.20660000  0.62274500  0.04737900  1
  C  1707  1  0.18891600  0.60796300  0.05890800  1
  C  1711  1  0.20426900  0.64480400  0.03263300  1
  C  1712  1  0.18048900  0.65835200  0.02859800  1
  C  1718  1  0.16194100  0.60568300  0.06066400  1
  C  1719  1  0.14271500  0.61723500  0.04427800  1
  C  1725  1  0.20937000  0.55530100  0.10543400  1
  C  1727  1  0.28344500  0.60338100  0.05477400  1
  C  1729  1  0.56851900  0.09422400  0.22778500  1
  C  1730  1  0.58573100  0.07664600  0.22210800  1
  C  1731  1  0.59922700  0.06449400  0.23985700  1
  C  1732  1  0.59418800  0.06869200  0.26481000  1
  C  1733  1  0.57501600  0.08472200  0.27039700  1
  C  1734  1  0.56254500  0.09745800  0.25229900  1
  C  1736  1  0.62281200  0.04710000  0.20673700  1
  C  1737  1  0.60771800  0.05816300  0.18899600  1
  C  1741  1  0.64505800  0.03266100  0.20435800  1
  C  1742  1  0.65843500  0.02861800  0.18048700  1
  C  1748  1  0.60570800  0.06047300  0.16203000  1
  C  1749  1  0.61727500  0.04425700  0.14268500  1
  C  1755  1  0.56189500  0.11032400  0.20977200  1
  C  1757  1  0.60325800  0.05473800  0.28374700  1
  C  1759  1  0.42516900  0.09449500  0.76633900  1
  C  1760  1  0.40810800  0.07680500  0.77205000  1
  C  1761  1  0.39477100  0.06451700  0.75428000  1
  C  1762  1  0.39987200  0.06868700  0.72932900  1
  C  1763  1  0.41901200  0.08474500  0.72375800  1
  C  1764  1  0.43133800  0.09758100  0.74185400  1
  C  1766  1  0.37123300  0.04702400  0.78736400  1
  C  1767  1  0.38625700  0.05816000  0.80512700  1
  C  1771  1  0.34896900  0.03260800  0.78969600  1
  C  1772  1  0.33559900  0.02859300  0.81357100  1
  C  1778  1  0.38831500  0.06039900  0.83209200  1
  C  1779  1  0.37673700  0.04419200  0.85143500  1
  C  1785  1  0.43217400  0.11040100  0.78432900  1
  C  1787  1  0.39083200  0.05473600  0.71037700  1
  C  1789  1  0.42572000  0.89997600  0.22773500  1
  C  1790  1  0.40836900  0.91745200  0.22211700  1
  C  1791  1  0.39482300  0.92954400  0.23987300  1
  C  1792  1  0.39986400  0.92532900  0.26482600  1
  C  1793  1  0.41901200  0.90925500  0.27038100  1
  C  1794  1  0.43155000  0.89659500  0.25226100  1
  C  1796  1  0.37119700  0.94691800  0.20676600  1
  C  1797  1  0.38632900  0.93592300  0.18901400  1
  C  1801  1  0.34898500  0.96140200  0.20437000  1
  C  1802  1  0.33562400  0.96544400  0.18048900  1
  C  1808  1  0.38834100  0.93358700  0.16204900  1
  C  1809  1  0.37678800  0.94979800  0.14269200  1
  C  1815  1  0.43220400  0.88385200  0.20964800  1
  C  1817  1  0.39077700  0.93930000  0.28375100  1
  C  1819  1  0.56808000  0.89959000  0.76606500  1
  C  1820  1  0.58606100  0.91658600  0.77160200  1
  C  1821  1  0.59975100  0.92880000  0.75400100  1
  C  1822  1  0.59481800  0.92490900  0.72899400  1
  C  1823  1  0.57582700  0.90874400  0.72322100  1
  C  1824  1  0.56271200  0.89644000  0.74125900  1
  C  1826  1  0.62280800  0.94675900  0.78726500  1
  C  1827  1  0.60781200  0.93552300  0.80491200  1
  C  1831  1  0.64490100  0.96139700  0.78982600  1
  C  1832  1  0.65838800  0.96543500  0.81365700  1
  C  1838  1  0.60558500  0.93339400  0.83189400  1
  C  1839  1  0.61714300  0.94966800  0.85123300  1
  C  1845  1  0.55456800  0.88970000  0.78505800  1
  C  1847  1  0.60361000  0.93940500  0.71030100  1
  C  1849  1  0.09435900  0.76634600  0.42590500  1
  C  1850  1  0.07735300  0.77178500  0.40796800  1
  C  1851  1  0.06523100  0.75409300  0.39432900  1
  C  1852  1  0.06921100  0.72912700  0.39937100  1
  C  1853  1  0.08538500  0.72347800  0.41838900  1
  C  1854  1  0.09759000  0.74160700  0.43142100  1
  C  1856  1  0.04721900  0.78724500  0.37121200  1
  C  1857  1  0.05842800  0.80496100  0.38615900  1
  C  1861  1  0.03262900  0.78976600  0.34909700  1
  C  1862  1  0.02861700  0.81362800  0.33566700  1
  C  1868  1  0.06060800  0.83192400  0.38842000  1
  C  1869  1  0.04436200  0.85127600  0.37688900  1
  C  1875  1  0.10483900  0.78534300  0.43882900  1
  C  1877  1  0.05473800  0.71040600  0.39058800  1
  C  1879  1  0.09464600  0.22762700  0.56896400  1
  C  1880  1  0.07685000  0.22194400  0.58592900  1
  C  1881  1  0.06453700  0.23973600  0.59924700  1
  C  1882  1  0.06870600  0.26469100  0.59417000  1
  C  1883  1  0.08475700  0.27021900  0.57501600  1
  C  1884  1  0.09760000  0.25210800  0.56272700  1
  C  1886  1  0.04704200  0.20670100  0.62281500  1
  C  1887  1  0.05815200  0.18893100  0.60777200  1
  C  1891  1  0.03262000  0.20437200  0.64508100  1
  C  1892  1  0.02859800  0.18049800  0.65845300  1
  C  1898  1  0.06039800  0.16197100  0.60573900  1
  C  1899  1  0.04419600  0.14263400  0.61731800  1
  C  1905  1  0.11045400  0.20965700  0.56159200  1
  C  1907  1  0.05477300  0.28367700  0.60319200  1
  C  1909  1  0.89921700  0.76638600  0.56909900  1
  C  1910  1  0.91699300  0.77211200  0.58609100  1
  C  1911  1  0.92945900  0.75434300  0.59929900  1
  C  1912  1  0.92534900  0.72937700  0.59420600  1
  C  1913  1  0.90927700  0.72381300  0.57508600  1
  C  1914  1  0.89627800  0.74188100  0.56290700  1
  C  1916  1  0.94703100  0.78739400  0.62279700  1
  C  1917  1  0.93593800  0.80515700  0.60773800  1
  C  1921  1  0.96144600  0.78969800  0.64507200  1
  C  1922  1  0.96546400  0.81356300  0.65845500  1
  C  1928  1  0.93365600  0.83211900  0.60574800  1
  C  1929  1  0.94987700  0.85144900  0.61732400  1
  C  1935  1  0.88364300  0.78444900  0.56141900  1
  C  1937  1  0.93933100  0.71042200  0.60318600  1
  C  1939  1  0.89839400  0.22796000  0.42501800  1
  C  1940  1  0.91540300  0.22202500  0.40719300  1
  C  1941  1  0.92825200  0.23964400  0.39409200  1
  C  1942  1  0.92465200  0.26466900  0.39918500  1
  C  1943  1  0.90848300  0.27052300  0.41810300  1
  C  1944  1  0.89567300  0.25265400  0.43074000  1
  C  1946  1  0.94660800  0.20653000  0.37133800  1
  C  1947  1  0.93492900  0.18885100  0.38601200  1
  C  1951  1  0.96143700  0.20423700  0.34932900  1
  C  1952  1  0.96546900  0.18049000  0.33572700  1
  C  1958  1  0.93331700  0.16187000  0.38835000  1
  C  1959  1  0.94978100  0.14269500  0.37681500  1
  C  1965  1  0.88845900  0.20945300  0.43875700  1
  C  1967  1  0.93930200  0.28336400  0.39068400  1
  N  19  1  0.37700200  0.27721800  0.96106200  1
  N  20  1  0.37127800  0.28175000  0.04255900  1
  N  21  1  0.28175500  0.37126400  0.95148200  1
  N  22  1  0.27723600  0.37702900  0.03301500  1
  N  41  1  0.61707000  0.71683000  0.96110300  1
  N  42  1  0.62298600  0.71236000  0.04260400  1
  N  43  1  0.71227700  0.62290500  0.95148300  1
  N  44  1  0.71680200  0.61707000  0.03298800  1
  N  63  1  0.61708000  0.27726100  0.03303100  1
  N  64  1  0.62314900  0.28175700  0.95154500  1
  N  65  1  0.71230900  0.37124000  0.04257300  1
  N  66  1  0.71681800  0.37699500  0.96106700  1
  N  85  1  0.37701100  0.71683200  0.03303200  1
  N  86  1  0.37126200  0.71232400  0.95154300  1
  N  87  1  0.28168500  0.62299000  0.04259300  1
  N  88  1  0.27724300  0.61707100  0.96107800  1
  N  107  1  0.96105300  0.37699100  0.27722700  1
  N  108  1  0.04255000  0.37127600  0.28175300  1
  N  109  1  0.95143100  0.28165100  0.37104000  1
  N  110  1  0.03298300  0.27725600  0.37701500  1
  N  129  1  0.96109600  0.61707300  0.71682100  1
  N  130  1  0.04259800  0.62299400  0.71234900  1
  N  131  1  0.95148300  0.71232400  0.62280100  1
  N  132  1  0.03300000  0.71683200  0.61704100  1
  N  151  1  0.03302800  0.61707300  0.27725400  1
  N  152  1  0.95154100  0.62314300  0.28173900  1
  N  153  1  0.04256700  0.71227500  0.37098100  1
  N  154  1  0.96103300  0.71680500  0.37697000  1
  N  173  1  0.03302600  0.37702200  0.71683800  1
  N  174  1  0.95153200  0.37127100  0.71232700  1
  N  175  1  0.04256200  0.28176200  0.62277600  1
  N  176  1  0.96105100  0.27722200  0.61703700  1
  N  195  1  0.27721800  0.96106900  0.37699900  1
  N  196  1  0.28174100  0.04256400  0.37128200  1
  N  197  1  0.37119000  0.95149400  0.28176600  1
  N  198  1  0.37698200  0.03300900  0.27725800  1
  N  217  1  0.71682100  0.96109100  0.61707100  1
  N  218  1  0.71236700  0.04260100  0.62297600  1
  N  219  1  0.62321700  0.95154300  0.71232200  1
  N  220  1  0.61707300  0.03303400  0.71679600  1
  N  239  1  0.27725900  0.03302600  0.61707300  1
  N  240  1  0.28177000  0.95153000  0.62310200  1
  N  241  1  0.37122400  0.04258600  0.71229300  1
  N  242  1  0.37701700  0.96106400  0.71683800  1
  N  261  1  0.71684100  0.03302300  0.37702400  1
  N  262  1  0.71232900  0.95152500  0.37128000  1
  N  263  1  0.62284600  0.04254700  0.28177100  1
  N  264  1  0.61708000  0.96107500  0.27724100  1
  N  283  1  0.87631900  0.77711200  0.46016400  1
  N  284  1  0.87758000  0.78481500  0.53948100  1
  N  285  1  0.78584900  0.87741800  0.45414200  1
  N  286  1  0.77703000  0.87643800  0.53378000  1
  N  305  1  0.11760500  0.21696900  0.46034900  1
  N  306  1  0.11640900  0.20889300  0.53963600  1
  N  307  1  0.20834400  0.11663800  0.45414800  1
  N  308  1  0.21703600  0.11760600  0.53377100  1
  N  327  1  0.11645900  0.77715500  0.53232700  1
  N  328  1  0.12353200  0.78230800  0.45177900  1
  N  329  1  0.20431400  0.87535900  0.54207700  1
  N  330  1  0.21719600  0.87725400  0.46110200  1
  N  349  1  0.87763200  0.21647800  0.53268200  1
  N  350  1  0.87026600  0.21325400  0.45234800  1
  N  351  1  0.78080600  0.12381900  0.54171300  1
  N  352  1  0.77758200  0.11642400  0.46138100  1
  N  371  1  0.46171100  0.87746500  0.77727200  1
  N  372  1  0.54258800  0.87018500  0.78312600  1
  N  373  1  0.45430400  0.78500100  0.87770400  1
  N  374  1  0.53374100  0.77689400  0.87655300  1
  N  393  1  0.46047200  0.11743800  0.21698400  1
  N  394  1  0.54020700  0.11694500  0.20765700  1
  N  395  1  0.45410300  0.20834400  0.11663500  1
  N  396  1  0.53373700  0.21706500  0.11756200  1
  N  415  1  0.53364900  0.11742200  0.77690800  1
  N  416  1  0.45402700  0.11658500  0.78559500  1
  N  417  1  0.54201200  0.20409300  0.87527100  1
  N  418  1  0.46104400  0.21702300  0.87708700  1
  N  437  1  0.53357500  0.87668300  0.21715300  1
  N  438  1  0.45376900  0.87691400  0.20717500  1
  N  439  1  0.54173100  0.78059500  0.12363600  1
  N  440  1  0.46139700  0.77765200  0.11647400  1
  N  459  1  0.77705700  0.46049900  0.87664900  1
  N  460  1  0.78660200  0.54026600  0.87703600  1
  N  461  1  0.87764000  0.45437600  0.78513400  1
  N  462  1  0.87640900  0.53382200  0.77703900  1
  N  481  1  0.21646300  0.46144600  0.11659900  1
  N  482  1  0.21319000  0.54158800  0.12349900  1
  N  483  1  0.11680300  0.45407400  0.20817600  1
  N  484  1  0.11747500  0.53371400  0.21715700  1
  N  503  1  0.77690300  0.53364700  0.11741600  1
  N  504  1  0.78560400  0.45402300  0.11658200  1
  N  505  1  0.87543500  0.54189100  0.20431400  1
  N  506  1  0.87709200  0.46105900  0.21702000  1
  N  525  1  0.21716900  0.53363600  0.87666700  1
  N  526  1  0.20746500  0.45379300  0.87690600  1
  N  527  1  0.12364800  0.54169500  0.78062600  1
  N  528  1  0.11653300  0.46136300  0.77769500  1
  N  535  1  0.37778000  0.22903200  0.94290500  1
  N  538  1  0.40411000  0.19807700  0.91903600  1
  N  565  1  0.61633700  0.76501100  0.94299600  1
  N  568  1  0.59007000  0.79596200  0.91908400  1
  N  595  1  0.61633500  0.22905500  0.05105700  1
  N  598  1  0.59007200  0.19809700  0.07496500  1
  N  625  1  0.37781300  0.76502800  0.05118200  1
  N  628  1  0.40412000  0.79599500  0.07504400  1
  N  655  1  0.94290500  0.37778200  0.22903300  1
  N  658  1  0.91903600  0.40411100  0.19807700  1
  N  685  1  0.94299800  0.61633500  0.76501000  1
  N  688  1  0.91908800  0.59007400  0.79596200  1
  N  715  1  0.05105800  0.61633700  0.22905300  1
  N  718  1  0.07496500  0.59006800  0.19809700  1
  N  745  1  0.05118300  0.37781500  0.76502800  1
  N  748  1  0.07504300  0.40411900  0.79599700  1
  N  775  1  0.22903300  0.94291500  0.37777000  1
  N  778  1  0.19808100  0.91903900  0.40410200  1
  N  805  1  0.76501000  0.94300000  0.61633700  1
  N  808  1  0.79596400  0.91909000  0.59007400  1
  N  835  1  0.22905500  0.05105800  0.61633500  1
  N  838  1  0.19809500  0.07496300  0.59007600  1
  N  865  1  0.76502800  0.05118100  0.37781100  1
  N  868  1  0.79599500  0.07504100  0.40412200  1
  N  895  1  0.22903000  0.37782500  0.05118300  1
  N  898  1  0.19806400  0.40413500  0.07506000  1
  N  925  1  0.76501000  0.61634000  0.05105700  1
  N  928  1  0.79596100  0.59006300  0.07496800  1
  N  955  1  0.22905000  0.61634000  0.94299300  1
  N  958  1  0.19809700  0.59006100  0.91909000  1
  N  985  1  0.76501300  0.37773200  0.94297100  1
  N  988  1  0.79596600  0.40403000  0.91909100  1
  N  1015  1  0.37781600  0.94287200  0.76503300  1
  N  1018  1  0.40415500  0.91899100  0.79598800  1
  N  1045  1  0.61632200  0.94297500  0.22904200  1
  N  1048  1  0.59003100  0.91908100  0.19809000  1
  N  1075  1  0.61633800  0.05106600  0.76500600  1
  N  1078  1  0.59006100  0.07496800  0.79596200  1
  N  1105  1  0.37772600  0.05108300  0.22905000  1
  N  1108  1  0.40401800  0.07496700  0.19809300  1
  N  1135  1  0.94287400  0.22903000  0.61624100  1
  N  1138  1  0.91900700  0.19806100  0.58993700  1
  N  1165  1  0.94299600  0.76500400  0.37772600  1
  N  1168  1  0.91909700  0.79596200  0.40398400  1
  N  1195  1  0.05106800  0.22905100  0.37772400  1
  N  1198  1  0.07496700  0.19809500  0.40400000  1
  N  1225  1  0.05117500  0.76503100  0.61625700  1
  N  1228  1  0.07505300  0.79598200  0.58990500  1
  N  1255  1  0.61723200  0.76362800  0.05101600  1
  N  1258  1  0.59161700  0.79549100  0.07414000  1
  N  1285  1  0.37688000  0.23064700  0.05047000  1
  N  1288  1  0.40329600  0.19862300  0.07250600  1
  N  1315  1  0.37693000  0.76347900  0.94360900  1
  N  1318  1  0.40324900  0.79548200  0.92139900  1
  N  1345  1  0.61727900  0.23080000  0.94328500  1
  N  1348  1  0.59025400  0.19907800  0.92191400  1
  N  1375  1  0.05102100  0.61722800  0.76363000  1
  N  1378  1  0.07414600  0.59161000  0.79549200  1
  N  1405  1  0.05047100  0.37688300  0.23064600  1
  N  1408  1  0.07251500  0.40329600  0.19862300  1
  N  1435  1  0.94359800  0.37693400  0.76346800  1
  N  1438  1  0.92141500  0.40326500  0.79547800  1
  N  1465  1  0.94328100  0.61727700  0.23079700  1
  N  1468  1  0.92190300  0.59025200  0.19907700  1
  N  1495  1  0.76363500  0.05103500  0.61721200  1
  N  1498  1  0.79550100  0.07416300  0.59159200  1
  N  1525  1  0.23064600  0.05047600  0.37688500  1
  N  1528  1  0.19861900  0.07252100  0.40329400  1
  N  1555  1  0.76344400  0.94357600  0.37693200  1
  N  1558  1  0.79545800  0.92153700  0.40336800  1
  N  1585  1  0.23081700  0.94332200  0.61730000  1
  N  1588  1  0.19906800  0.92201100  0.59027400  1
  N  1615  1  0.76335100  0.61720500  0.94351500  1
  N  1618  1  0.79532300  0.59058700  0.92172700  1
  N  1645  1  0.23066000  0.37691400  0.94356400  1
  N  1648  1  0.19863500  0.40341400  0.92166200  1
  N  1675  1  0.76341900  0.37687400  0.05046900  1
  N  1678  1  0.79544400  0.40329600  0.07247800  1
  N  1705  1  0.23053200  0.61727300  0.05099600  1
  N  1708  1  0.19865900  0.59138700  0.07376600  1
  N  1735  1  0.61719000  0.05052500  0.23069200  1
  N  1738  1  0.59061200  0.07237400  0.19871500  1
  N  1765  1  0.37687600  0.05045300  0.76341600  1
  N  1768  1  0.40328100  0.07249100  0.79544000  1
  N  1795  1  0.37682600  0.94348300  0.23071900  1
  N  1798  1  0.40345400  0.92174600  0.19873400  1
  N  1825  1  0.61736500  0.94317500  0.76328600  1
  N  1828  1  0.59096700  0.92121300  0.79493800  1
  N  1855  1  0.05085800  0.76327900  0.37667600  1
  N  1858  1  0.07274100  0.79509200  0.40303600  1
  N  1885  1  0.05047600  0.23063800  0.61715800  1
  N  1888  1  0.07250900  0.19857000  0.59074000  1
  N  1915  1  0.94359400  0.76345900  0.61714500  1
  N  1918  1  0.92140400  0.79549400  0.59086100  1
  N  1945  1  0.94300900  0.23045500  0.37682000  1
  N  1948  1  0.91991600  0.19859200  0.40246900  1
