# generated using pymatgen
data_CuH95(C25N)4
_symmetry_space_group_name_H-M   'P 1'
_cell_length_a   20.97474000
_cell_length_b   20.98554000
_cell_length_c   27.25519508
_cell_angle_alpha   112.60677501
_cell_angle_beta   112.57238268
_cell_angle_gamma   90.09562000
_symmetry_Int_Tables_number   1
_chemical_formula_structural   CuH95(C25N)4
_chemical_formula_sum   'Cu4 H380 C400 N16'
_cell_volume   10068.73100805
_cell_formula_units_Z   4
loop_
 _symmetry_equiv_pos_site_id
 _symmetry_equiv_pos_as_xyz
  1  'x, y, z'
loop_
 _atom_site_type_symbol
 _atom_site_label
 _atom_site_symmetry_multiplicity
 _atom_site_fract_x
 _atom_site_fract_y
 _atom_site_fract_z
 _atom_site_occupancy
  Cu  Cu0  1  0.13094000  0.13320000  0.49888000  1
  Cu  Cu1  1  0.38285000  0.88121000  0.99873000  1
  Cu  Cu2  1  0.63396000  0.63143000  0.50103000  1
  Cu  Cu3  1  0.88282000  0.38342000  0.00096000  1
  H  H4  1  0.31541000  0.54506000  0.78167000  1
  H  H5  1  0.10289000  0.55891000  0.75641000  1
  H  H6  1  0.05714000  0.68830000  0.94451000  1
  H  H7  1  0.99626000  0.77649000  0.81823000  1
  H  H8  1  0.07765000  0.77662000  0.76814000  1
  H  H9  1  0.13005000  0.70965000  0.76073000  1
  H  H10  1  0.03797000  0.68694000  0.72722000  1
  H  H11  1  0.14518000  0.61919000  0.95173000  1
  H  H12  1  0.14248000  0.56804000  0.88141000  1
  H  H13  1  0.21384000  0.63642000  0.93266000  1
  H  H14  1  0.92968000  0.78756000  0.87485000  1
  H  H15  1  0.93810000  0.73239000  0.91191000  1
  H  H16  1  0.99182000  0.81598000  0.94846000  1
  H  H17  1  0.50261000  0.71424000  0.82985000  1
  H  H18  1  0.52508000  0.72516000  0.99608000  1
  H  H19  1  0.43275000  0.64773000  0.99315000  1
  H  H20  1  0.38762000  0.71918000  0.99704000  1
  H  H21  1  0.34424000  0.63418000  0.94176000  1
  H  H22  1  0.62003000  0.74807000  0.91124000  1
  H  H23  1  0.59908000  0.82088000  0.95929000  1
  H  H24  1  0.63062000  0.75315000  0.98057000  1
  H  H25  1  0.31393000  0.67679000  0.76024000  1
  H  H26  1  0.39337000  0.68840000  0.75276000  1
  H  H27  1  0.35713000  0.60525000  0.74092000  1
  H  H28  1  0.27633000  0.46611000  0.70077000  1
  H  H29  1  0.93324000  0.21855000  0.64680000  1
  H  H30  1  0.83813000  0.34393000  0.55498000  1
  H  H31  1  0.90590000  0.43311000  0.55538000  1
  H  H32  1  0.98454000  0.47192000  0.62137000  1
  H  H33  1  0.98980000  0.41747000  0.55589000  1
  H  H34  1  0.05552000  0.25170000  0.71109000  1
  H  H35  1  0.09336000  0.23609000  0.66063000  1
  H  H36  1  0.10887000  0.32185000  0.71580000  1
  H  H37  1  0.76409000  0.26451000  0.56479000  1
  H  H38  1  0.79395000  0.18400000  0.54111000  1
  H  H39  1  0.80242000  0.22486000  0.61396000  1
  H  H40  1  0.30630000  0.31549000  0.51065000  1
  H  H41  1  0.34767000  0.21280000  0.62591000  1
  H  H42  1  0.17646000  0.41254000  0.55757000  1
  H  H43  1  0.25787000  0.44696000  0.56412000  1
  H  H44  1  0.20195000  0.37628000  0.49828000  1
  H  H45  1  0.38716000  0.23307000  0.50863000  1
  H  H46  1  0.42988000  0.21972000  0.57344000  1
  H  H47  1  0.35411000  0.16061000  0.51590000  1
  H  H48  1  0.21384000  0.27071000  0.67563000  1
  H  H49  1  0.28923000  0.23023000  0.68708000  1
  H  H50  1  0.29703000  0.32219000  0.72552000  1
  H  H51  1  0.26371000  0.98973000  0.29430000  1
  H  H52  1  0.25709000  0.19299000  0.28934000  1
  H  H53  1  0.29843000  0.42415000  0.44055000  1
  H  H54  1  0.07788000  0.34058000  0.35057000  1
  H  H55  1  0.10172000  0.15817000  0.28649000  1
  H  H56  1  0.06923000  0.18425000  0.34120000  1
  H  H57  1  0.04095000  0.21706000  0.28710000  1
  H  H58  1  0.38202000  0.34889000  0.45684000  1
  H  H59  1  0.35548000  0.25741000  0.43318000  1
  H  H60  1  0.36164000  0.29020000  0.38407000  1
  H  H61  1  0.21516000  0.50305000  0.42789000  1
  H  H62  1  0.12658000  0.46772000  0.37629000  1
  H  H63  1  0.15223000  0.47952000  0.44956000  1
  H  H64  1  0.04175000  0.97160000  0.31109000  1
  H  H65  1  0.08196000  0.06048000  0.35197000  1
  H  H66  1  0.09659000  0.00948000  0.28972000  1
  H  H67  1  0.08918000  0.91503000  0.37403000  1
  H  H68  1  0.31037000  0.91478000  0.44597000  1
  H  H69  1  0.39061000  0.00543000  0.45748000  1
  H  H70  1  0.36606000  0.98751000  0.38299000  1
  H  H71  1  0.36192000  0.07077000  0.43167000  1
  H  H72  1  0.12995000  0.83595000  0.41726000  1
  H  H73  1  0.20548000  0.80431000  0.40909000  1
  H  H74  1  0.21352000  0.86769000  0.47744000  1
  H  H75  1  0.30985000  0.16461000  0.23889000  1
  H  H76  1  0.26093000  0.95207000  0.21542000  1
  H  H77  1  0.23376000  0.73906000  0.00705000  1
  H  H78  1  0.38467000  0.76580000  0.17617000  1
  H  H79  1  0.38655000  0.95526000  0.25172000  1
  H  H80  1  0.39668000  0.87627000  0.26143000  1
  H  H81  1  0.45204000  0.90829000  0.23788000  1
  H  H82  1  0.15706000  0.83261000  0.00954000  1
  H  H83  1  0.19853000  0.92111000  0.05690000  1
  H  H84  1  0.22429000  0.87105000  0.00060000  1
  H  H85  1  0.27655000  0.63519000  0.02330000  1
  H  H86  1  0.36840000  0.66459000  0.05531000  1
  H  H87  1  0.32881000  0.64485000  0.09558000  1
  H  H88  1  0.46491000  0.27500000  0.19029000  1
  H  H89  1  0.25882000  0.20381000  0.05019000  1
  H  H90  1  0.51302000  0.19776000  0.24155000  1
  H  H91  1  0.45458000  0.13502000  0.24033000  1
  H  H92  1  0.45635000  0.22542000  0.27698000  1
  H  H93  1  0.19807000  0.09351000  0.10142000  1
  H  H94  1  0.17886000  0.11669000  0.04163000  1
  H  H95  1  0.22075000  0.04369000  0.04321000  1
  H  H96  1  0.32764000  0.31368000  0.07351000  1
  H  H97  1  0.40836000  0.34999000  0.13679000  1
  H  H98  1  0.40616000  0.28440000  0.07126000  1
  H  H99  1  0.79456000  0.06513000  0.28162000  1
  H  H100  1  0.80941000  0.85294000  0.25695000  1
  H  H101  1  0.93835000  0.80756000  0.44491000  1
  H  H102  1  0.02653000  0.74648000  0.31851000  1
  H  H103  1  0.02709000  0.82786000  0.26870000  1
  H  H104  1  0.96020000  0.88040000  0.26124000  1
  H  H105  1  0.93734000  0.78841000  0.22767000  1
  H  H106  1  0.86965000  0.89599000  0.45241000  1
  H  H107  1  0.81821000  0.89279000  0.38203000  1
  H  H108  1  0.88656000  0.96432000  0.43283000  1
  H  H109  1  0.03692000  0.67954000  0.37479000  1
  H  H110  1  0.98191000  0.68844000  0.41214000  1
  H  H111  1  0.06577000  0.74157000  0.44842000  1
  H  H112  1  0.96377000  0.25270000  0.32968000  1
  H  H113  1  0.97473000  0.27550000  0.49600000  1
  H  H114  1  0.89875000  0.18378000  0.49401000  1
  H  H115  1  0.96924000  0.13744000  0.49676000  1
  H  H116  1  0.88359000  0.09521000  0.44217000  1
  H  H117  1  0.99740000  0.36991000  0.41054000  1
  H  H118  1  0.06997000  0.35020000  0.45972000  1
  H  H119  1  0.00114000  0.38125000  0.47966000  1
  H  H120  1  0.92648000  0.06409000  0.26014000  1
  H  H121  1  0.93862000  0.14359000  0.25295000  1
  H  H122  1  0.85521000  0.10758000  0.24085000  1
  H  H123  1  0.71988000  0.02401000  0.19728000  1
  H  H124  1  0.46890000  0.68269000  0.14681000  1
  H  H125  1  0.59475000  0.58876000  0.05500000  1
  H  H126  1  0.68396000  0.65729000  0.05589000  1
  H  H127  1  0.72218000  0.73569000  0.12205000  1
  H  H128  1  0.66810000  0.74130000  0.05668000  1
  H  H129  1  0.50134000  0.80452000  0.21114000  1
  H  H130  1  0.48683000  0.84383000  0.16177000  1
  H  H131  1  0.57228000  0.85792000  0.21695000  1
  H  H132  1  0.51532000  0.51417000  0.06435000  1
  H  H133  1  0.43477000  0.54372000  0.04038000  1
  H  H134  1  0.47496000  0.55201000  0.11317000  1
  H  H135  1  0.56537000  0.05599000  0.01033000  1
  H  H136  1  0.46440000  0.09807000  0.12691000  1
  H  H137  1  0.66286000  0.92633000  0.05698000  1
  H  H138  1  0.69797000  0.00774000  0.06404000  1
  H  H139  1  0.62715000  0.95247000  0.99807000  1
  H  H140  1  0.48285000  0.13690000  0.00878000  1
  H  H141  1  0.46967000  0.17942000  0.07368000  1
  H  H142  1  0.41077000  0.10334000  0.01629000  1
  H  H143  1  0.52594000  0.96560000  0.17843000  1
  H  H144  1  0.48236000  0.03884000  0.18794000  1
  H  H145  1  0.57472000  0.05033000  0.22691000  1
  H  H146  1  0.23977000  0.01346000  0.79450000  1
  H  H147  1  0.44302000  0.00695000  0.78942000  1
  H  H148  1  0.67443000  0.04843000  0.94058000  1
  H  H149  1  0.59080000  0.82797000  0.85022000  1
  H  H150  1  0.40828000  0.85204000  0.78657000  1
  H  H151  1  0.43432000  0.81943000  0.84114000  1
  H  H152  1  0.46692000  0.79109000  0.78678000  1
  H  H153  1  0.59909000  0.13200000  0.95725000  1
  H  H154  1  0.50760000  0.10514000  0.93373000  1
  H  H155  1  0.54004000  0.11174000  0.88458000  1
  H  H156  1  0.75336000  0.96497000  0.92753000  1
  H  H157  1  0.71784000  0.87629000  0.87608000  1
  H  H158  1  0.72981000  0.90243000  0.94943000  1
  H  H159  1  0.22168000  0.79164000  0.81139000  1
  H  H160  1  0.31058000  0.83182000  0.85239000  1
  H  H161  1  0.25983000  0.84639000  0.79010000  1
  H  H162  1  0.16492000  0.83916000  0.87423000  1
  H  H163  1  0.16476000  0.06036000  0.94613000  1
  H  H164  1  0.25628000  0.14034000  0.95833000  1
  H  H165  1  0.23744000  0.11621000  0.88369000  1
  H  H166  1  0.32094000  0.11150000  0.93164000  1
  H  H167  1  0.08539000  0.88006000  0.91713000  1
  H  H168  1  0.05400000  0.95562000  0.90896000  1
  H  H169  1  0.11711000  0.96359000  0.97736000  1
  H  H170  1  0.41463000  0.06041000  0.73916000  1
  H  H171  1  0.20212000  0.01079000  0.71562000  1
  H  H172  1  0.98916000  0.98326000  0.50737000  1
  H  H173  1  0.01573000  0.13481000  0.67630000  1
  H  H174  1  0.20505000  0.13575000  0.75205000  1
  H  H175  1  0.12609000  0.14750000  0.76167000  1
  H  H176  1  0.15946000  0.20181000  0.73798000  1
  H  H177  1  0.08319000  0.90621000  0.51057000  1
  H  H178  1  0.17158000  0.94833000  0.55770000  1
  H  H179  1  0.12107000  0.97308000  0.50090000  1
  H  H180  1  0.88540000  0.02683000  0.52324000  1
  H  H181  1  0.91511000  0.11864000  0.55569000  1
  H  H182  1  0.89477000  0.07875000  0.59551000  1
  H  H183  1  0.52542000  0.21470000  0.69087000  1
  H  H184  1  0.45371000  0.00900000  0.55030000  1
  H  H185  1  0.44777000  0.26292000  0.74215000  1
  H  H186  1  0.38544000  0.20412000  0.74109000  1
  H  H187  1  0.47598000  0.20613000  0.77732000  1
  H  H188  1  0.34354000  0.94824000  0.60158000  1
  H  H189  1  0.36679000  0.92901000  0.54182000  1
  H  H190  1  0.29359000  0.97070000  0.54330000  1
  H  H191  1  0.56340000  0.07809000  0.57326000  1
  H  H192  1  0.59982000  0.15874000  0.63669000  1
  H  H193  1  0.53380000  0.15654000  0.57140000  1
  H  H194  1  0.76304000  0.53323000  0.21834000  1
  H  H195  1  0.80300000  0.34604000  0.24331000  1
  H  H196  1  0.74388000  0.11257000  0.05513000  1
  H  H197  1  0.95823000  0.17781000  0.18172000  1
  H  H198  1  0.00862000  0.30876000  0.23161000  1
  H  H199  1  0.94937000  0.36896000  0.23888000  1
  H  H200  1  0.95976000  0.31070000  0.27260000  1
  H  H201  1  0.66754000  0.19359000  0.04779000  1
  H  H202  1  0.68658000  0.26101000  0.11811000  1
  H  H203  1  0.70416000  0.28129000  0.06708000  1
  H  H204  1  0.91244000  0.05461000  0.12527000  1
  H  H205  1  0.82012000  0.02627000  0.08840000  1
  H  H206  1  0.86716000  0.04275000  0.05159000  1
  H  H207  1  0.88398000  0.67281000  0.17038000  1
  H  H208  1  0.72998000  0.52847000  0.00363000  1
  H  H209  1  0.65495000  0.43951000  0.00651000  1
  H  H210  1  0.72249000  0.39051000  0.00266000  1
  H  H211  1  0.69249000  0.40224000  0.05782000  1
  H  H212  1  0.83862000  0.70859000  0.08954000  1
  H  H213  1  0.86015000  0.63908000  0.03933000  1
  H  H214  1  0.77189000  0.65173000  0.02086000  1
  H  H215  1  0.91637000  0.55437000  0.24029000  1
  H  H216  1  0.93510000  0.64105000  0.24724000  1
  H  H217  1  0.86387000  0.61679000  0.25922000  1
  H  H218  1  0.77273000  0.57659000  0.30266000  1
  H  H219  1  0.57158000  0.28563000  0.35290000  1
  H  H220  1  0.78925000  0.28470000  0.44564000  1
  H  H221  1  0.87755000  0.35246000  0.44493000  1
  H  H222  1  0.85003000  0.36409000  0.37855000  1
  H  H223  1  0.86048000  0.43535000  0.44353000  1
  H  H224  1  0.53966000  0.34313000  0.28824000  1
  H  H225  1  0.57450000  0.43175000  0.33777000  1
  H  H226  1  0.60498000  0.39073000  0.28265000  1
  H  H227  1  0.70054000  0.20058000  0.43628000  1
  H  H228  1  0.64355000  0.25400000  0.45974000  1
  H  H229  1  0.61145000  0.18911000  0.38710000  1
  H  H230  1  0.80490000  0.79549000  0.48945000  1
  H  H231  1  0.58738000  0.72122000  0.37316000  1
  H  H232  1  0.85549000  0.61911000  0.44287000  1
  H  H233  1  0.88357000  0.69320000  0.43552000  1
  H  H234  1  0.87887000  0.70427000  0.50165000  1
  H  H235  1  0.72394000  0.87801000  0.49161000  1
  H  H236  1  0.64694000  0.85619000  0.42609000  1
  H  H237  1  0.64344000  0.83712000  0.48273000  1
  H  H238  1  0.59732000  0.53724000  0.32153000  1
  H  H239  1  0.54415000  0.60092000  0.31205000  1
  H  H240  1  0.59759000  0.57360000  0.27308000  1
  H  H241  1  0.69483000  0.96869000  0.70513000  1
  H  H242  1  0.90297000  0.96714000  0.71001000  1
  H  H243  1  0.98369000  0.85785000  0.55934000  1
  H  H244  1  0.99021000  0.72760000  0.64960000  1
  H  H245  1  0.87104000  0.81508000  0.71300000  1
  H  H246  1  0.84237000  0.72801000  0.65826000  1
  H  H247  1  0.92930000  0.75371000  0.71260000  1
  H  H248  1  0.89164000  0.92463000  0.54260000  1
  H  H249  1  0.82353000  0.92122000  0.56594000  1
  H  H250  1  0.90496000  0.97700000  0.61522000  1
  H  H251  1  0.07570000  0.78759000  0.57254000  1
  H  H252  1  0.09147000  0.75016000  0.62386000  1
  H  H253  1  0.03031000  0.70301000  0.55045000  1
  H  H254  1  0.65982000  0.73046000  0.68866000  1
  H  H255  1  0.70789000  0.72976000  0.64775000  1
  H  H256  1  0.71898000  0.80668000  0.70988000  1
  H  H257  1  0.54012000  0.71521000  0.62593000  1
  H  H258  1  0.46818000  0.86413000  0.55364000  1
  H  H259  1  0.54783000  0.93244000  0.54180000  1
  H  H260  1  0.60413000  0.98241000  0.61640000  1
  H  H261  1  0.63901000  0.92955000  0.56798000  1
  H  H262  1  0.41775000  0.71304000  0.58274000  1
  H  H263  1  0.39447000  0.79671000  0.59067000  1
  H  H264  1  0.38948000  0.73610000  0.52241000  1
  H  H265  1  0.92518000  0.07013000  0.76048000  1
  H  H266  1  0.73618000  0.04504000  0.78399000  1
  H  H267  1  0.73221000  0.22659000  0.99299000  1
  H  H268  1  0.58968000  0.20874000  0.82403000  1
  H  H269  1  0.70456000  0.13654000  0.74868000  1
  H  H270  1  0.61538000  0.13257000  0.73818000  1
  H  H271  1  0.66738000  0.21357000  0.76159000  1
  H  H272  1  0.82282000  0.14619000  0.98981000  1
  H  H273  1  0.86412000  0.14107000  0.94266000  1
  H  H274  1  0.87018000  0.22269000  0.99933000  1
  H  H275  1  0.61249000  0.25392000  0.97715000  1
  H  H276  1  0.60952000  0.31320000  0.94459000  1
  H  H277  1  0.54950000  0.23344000  0.90492000  1
  H  H278  1  0.08402000  0.27489000  0.80953000  1
  H  H279  1  0.15371000  0.20793000  0.94902000  1
  H  H280  1  0.95554000  0.27183000  0.75886000  1
  H  H281  1  0.89414000  0.21430000  0.75993000  1
  H  H282  1  0.94775000  0.17987000  0.72295000  1
  H  H283  1  0.99197000  0.09572000  0.89774000  1
  H  H284  1  0.07515000  0.13583000  0.95740000  1
  H  H285  1  0.00067000  0.17627000  0.95629000  1
  H  H286  1  0.24005000  0.25451000  0.92620000  1
  H  H287  1  0.21292000  0.27175000  0.86280000  1
  H  H288  1  0.21249000  0.33497000  0.92824000  1
  H  H289  1  0.78376000  0.51395000  0.71933000  1
  H  H290  1  0.59644000  0.55423000  0.74448000  1
  H  H291  1  0.36284000  0.49320000  0.55496000  1
  H  H292  1  0.42729000  0.70769000  0.68122000  1
  H  H293  1  0.55842000  0.75828000  0.73157000  1
  H  H294  1  0.61855000  0.69912000  0.73953000  1
  H  H295  1  0.55955000  0.70985000  0.77267000  1
  H  H296  1  0.44390000  0.41711000  0.54821000  1
  H  H297  1  0.51146000  0.43633000  0.61852000  1
  H  H298  1  0.53152000  0.45371000  0.56731000  1
  H  H299  1  0.30428000  0.66166000  0.62456000  1
  H  H300  1  0.27599000  0.56941000  0.58760000  1
  H  H301  1  0.29289000  0.61645000  0.55095000  1
  H  H302  1  0.92261000  0.63438000  0.67051000  1
  H  H303  1  0.77866000  0.47966000  0.50404000  1
  H  H304  1  0.68948000  0.40495000  0.50661000  1
  H  H305  1  0.64069000  0.47267000  0.50310000  1
  H  H306  1  0.65218000  0.44232000  0.55798000  1
  H  H307  1  0.95875000  0.58740000  0.58939000  1
  H  H308  1  0.88983000  0.61143000  0.54075000  1
  H  H309  1  0.90057000  0.52254000  0.52019000  1
  H  H310  1  0.80390000  0.66649000  0.74035000  1
  H  H311  1  0.89051000  0.68581000  0.74730000  1
  H  H312  1  0.86692000  0.61464000  0.75961000  1
  H  H313  1  0.82725000  0.52446000  0.80393000  1
  H  H314  1  0.53595000  0.32259000  0.85402000  1
  H  H315  1  0.53495000  0.54031000  0.94635000  1
  H  H316  1  0.60320000  0.62847000  0.94600000  1
  H  H317  1  0.61374000  0.60089000  0.87912000  1
  H  H318  1  0.68563000  0.61114000  0.94365000  1
  H  H319  1  0.59342000  0.29024000  0.78950000  1
  H  H320  1  0.68226000  0.32565000  0.83822000  1
  H  H321  1  0.63992000  0.35539000  0.78289000  1
  H  H322  1  0.45014000  0.45150000  0.93647000  1
  H  H323  1  0.50386000  0.39521000  0.96077000  1
  H  H324  1  0.43946000  0.36235000  0.88791000  1
  H  H325  1  0.04580000  0.55520000  0.98982000  1
  H  H326  1  0.97203000  0.33781000  0.87286000  1
  H  H327  1  0.86905000  0.60508000  0.94414000  1
  H  H328  1  0.94211000  0.63363000  0.93583000  1
  H  H329  1  0.95475000  0.62885000  0.00227000  1
  H  H330  1  0.12874000  0.47458000  0.99091000  1
  H  H331  1  0.10625000  0.39622000  0.92619000  1
  H  H332  1  0.08794000  0.39525000  0.98390000  1
  H  H333  1  0.78576000  0.35164000  0.81599000  1
  H  H334  1  0.84830000  0.29470000  0.81613000  1
  H  H335  1  0.83182000  0.34216000  0.77212000  1
  H  H336  1  0.21918000  0.44535000  0.20529000  1
  H  H337  1  0.21763000  0.65360000  0.21068000  1
  H  H338  1  0.10841000  0.73450000  0.06027000  1
  H  H339  1  0.97823000  0.74125000  0.15072000  1
  H  H340  1  0.06524000  0.62193000  0.21385000  1
  H  H341  1  0.97815000  0.59342000  0.15916000  1
  H  H342  1  0.00404000  0.68037000  0.21345000  1
  H  H343  1  0.17475000  0.64233000  0.04314000  1
  H  H344  1  0.17148000  0.57420000  0.06644000  1
  H  H345  1  0.22724000  0.65567000  0.11572000  1
  H  H346  1  0.03897000  0.82729000  0.07449000  1
  H  H347  1  0.00075000  0.84236000  0.12525000  1
  H  H348  1  0.95412000  0.78174000  0.05155000  1
  H  H349  1  0.98047000  0.41037000  0.18887000  1
  H  H350  1  0.97965000  0.45842000  0.14797000  1
  H  H351  1  0.05656000  0.46972000  0.21015000  1
  H  H352  1  0.96528000  0.29086000  0.12615000  1
  H  H353  1  0.11396000  0.21884000  0.05346000  1
  H  H354  1  0.18193000  0.29848000  0.04137000  1
  H  H355  1  0.23247000  0.35396000  0.11608000  1
  H  H356  1  0.17990000  0.38981000  0.06838000  1
  H  H357  1  0.96325000  0.16861000  0.08320000  1
  H  H358  1  0.04693000  0.14539000  0.09100000  1
  H  H359  1  0.98611000  0.14009000  0.02272000  1
  H  H360  1  0.32096000  0.67519000  0.26073000  1
  H  H361  1  0.29476000  0.48666000  0.28440000  1
  H  H362  1  0.47632000  0.48187000  0.49287000  1
  H  H363  1  0.45815000  0.33925000  0.32377000  1
  H  H364  1  0.38398000  0.45273000  0.24787000  1
  H  H365  1  0.38447000  0.36410000  0.23840000  1
  H  H366  1  0.46329000  0.41958000  0.26164000  1
  H  H367  1  0.39606000  0.57270000  0.48971000  1
  H  H368  1  0.39138000  0.61409000  0.44271000  1
  H  H369  1  0.47284000  0.61986000  0.49942000  1
  H  H370  1  0.50324000  0.36194000  0.47675000  1
  H  H371  1  0.56312000  0.35972000  0.44482000  1
  H  H372  1  0.48363000  0.29926000  0.40459000  1
  H  H373  1  0.52436000  0.83431000  0.30928000  1
  H  H374  1  0.45854000  0.90322000  0.44952000  1
  H  H375  1  0.52152000  0.70554000  0.25832000  1
  H  H376  1  0.46331000  0.64426000  0.25890000  1
  H  H377  1  0.42961000  0.69881000  0.22281000  1
  H  H378  1  0.34682000  0.74136000  0.39819000  1
  H  H379  1  0.38691000  0.82450000  0.45792000  1
  H  H380  1  0.42748000  0.75008000  0.45664000  1
  H  H381  1  0.50418000  0.98986000  0.42639000  1
  H  H382  1  0.52143000  0.96296000  0.36299000  1
  H  H383  1  0.58483000  0.96276000  0.42843000  1
  C  C384  1  0.31239000  0.79705000  0.94262000  1
  C  C385  1  0.25274000  0.67726000  0.85841000  1
  C  C386  1  0.30226000  0.63987000  0.84086000  1
  C  C387  1  0.27689000  0.57422000  0.79346000  1
  C  C388  1  0.20520000  0.54582000  0.76160000  1
  C  C389  1  0.15795000  0.58407000  0.78073000  1
  C  C390  1  0.18007000  0.64869000  0.82879000  1
  C  C391  1  0.12670000  0.68255000  0.84864000  1
  C  C392  1  0.11672000  0.67032000  0.89298000  1
  C  C393  1  0.06509000  0.69889000  0.91092000  1
  C  C394  1  0.02197000  0.73869000  0.88533000  1
  C  C395  1  0.03050000  0.74735000  0.83975000  1
  C  C396  1  0.08129000  0.71881000  0.82008000  1
  C  C397  1  0.08245000  0.72388000  0.76666000  1
  C  C398  1  0.15694000  0.62136000  0.91647000  1
  C  C399  1  0.96747000  0.77024000  0.90603000  1
  C  C400  1  0.37840000  0.66892000  0.86801000  1
  C  C401  1  0.40845000  0.67904000  0.83240000  1
  C  C402  1  0.47982000  0.70693000  0.85747000  1
  C  C403  1  0.52246000  0.72677000  0.91675000  1
  C  C404  1  0.49269000  0.71327000  0.95040000  1
  C  C405  1  0.42164000  0.68431000  0.92707000  1
  C  C406  1  0.39464000  0.67016000  0.96643000  1
  C  C407  1  0.59707000  0.76378000  0.94329000  1
  C  C408  1  0.36585000  0.66170000  0.76842000  1
  C  C409  1  0.17725000  0.47715000  0.71040000  1
  C  C410  1  0.22214000  0.44231000  0.68536000  1
  C  C411  1  0.19863000  0.37567000  0.63972000  1
  C  C412  1  0.12845000  0.34412000  0.62022000  1
  C  C413  1  0.08310000  0.37978000  0.64449000  1
  C  C414  1  0.10636000  0.44775000  0.68887000  1
  C  C415  1  0.01157000  0.34298000  0.62668000  1
  C  C416  1  0.00495000  0.29109000  0.64612000  1
  C  C417  1  0.93798000  0.25771000  0.63081000  1
  C  C418  1  0.87713000  0.27428000  0.59649000  1
  C  C419  1  0.88469000  0.32804000  0.57967000  1
  C  C420  1  0.95091000  0.36331000  0.59501000  1
  C  C421  1  0.95743000  0.42453000  0.58051000  1
  C  C422  1  0.06917000  0.27437000  0.68554000  1
  C  C423  1  0.80568000  0.23518000  0.57832000  1
  C  C424  1  0.25588000  0.34702000  0.56949000  1
  C  C425  1  0.29975000  0.30830000  0.54601000  1
  C  C426  1  0.33324000  0.25993000  0.56581000  1
  C  C427  1  0.32237000  0.25075000  0.61045000  1
  C  C428  1  0.27930000  0.28833000  0.63503000  1
  C  C429  1  0.24579000  0.33704000  0.61435000  1
  C  C430  1  0.22065000  0.39820000  0.54601000  1
  C  C431  1  0.37850000  0.21637000  0.53942000  1
  C  C432  1  0.26924000  0.27705000  0.68320000  1
  C  C433  1  0.10809000  0.21892000  0.54500000  1
  C  C434  1  0.17417000  0.15349000  0.45384000  1
  C  C435  1  0.22084000  0.13478000  0.37713000  1
  C  C436  1  0.23295000  0.06488000  0.35530000  1
  C  C437  1  0.25453000  0.04335000  0.30999000  1
  C  C438  1  0.26373000  0.08770000  0.28459000  1
  C  C439  1  0.25213000  0.15681000  0.30797000  1
  C  C440  1  0.23108000  0.18143000  0.35369000  1
  C  C441  1  0.21599000  0.25407000  0.37225000  1
  C  C442  1  0.27130000  0.31185000  0.40339000  1
  C  C443  1  0.25546000  0.37963000  0.41639000  1
  C  C444  1  0.18614000  0.39115000  0.39849000  1
  C  C445  1  0.13210000  0.33274000  0.36622000  1
  C  C446  1  0.14576000  0.26424000  0.35247000  1
  C  C447  1  0.08654000  0.20256000  0.31482000  1
  C  C448  1  0.34646000  0.30145000  0.42058000  1
  C  C449  1  0.16938000  0.46428000  0.41378000  1
  C  C450  1  0.22136000  0.01330000  0.37733000  1
  C  C451  1  0.15232000  0.98612000  0.36416000  1
  C  C452  1  0.08999000  0.00811000  0.32739000  1
  C  C453  1  0.14224000  0.93530000  0.38327000  1
  C  C454  1  0.19828000  0.90859000  0.41252000  1
  C  C455  1  0.26610000  0.93536000  0.42385000  1
  C  C456  1  0.27890000  0.98782000  0.40740000  1
  C  C457  1  0.35318000  0.01445000  0.42061000  1
  C  C458  1  0.18596000  0.85121000  0.42999000  1
  C  C459  1  0.28340000  0.06217000  0.23504000  1
  C  C460  1  0.30636000  0.10837000  0.21666000  1
  C  C461  1  0.32458000  0.08497000  0.16937000  1
  C  C462  1  0.32276000  0.01215000  0.14051000  1
  C  C463  1  0.30098000  0.96375000  0.15833000  1
  C  C464  1  0.27995000  0.99013000  0.20397000  1
  C  C465  1  0.30356000  0.88771000  0.13329000  1
  C  C466  1  0.26065000  0.84321000  0.07433000  1
  C  C467  1  0.26642000  0.77217000  0.05274000  1
  C  C468  1  0.31178000  0.74320000  0.08817000  1
  C  C469  1  0.35044000  0.78736000  0.14720000  1
  C  C470  1  0.34847000  0.85910000  0.17052000  1
  C  C471  1  0.39782000  0.90250000  0.23372000  1
  C  C472  1  0.20746000  0.86881000  0.03358000  1
  C  C473  1  0.32131000  0.66789000  0.06418000  1
  C  C474  1  0.34108000  0.13810000  0.15024000  1
  C  C475  1  0.40457000  0.18649000  0.18317000  1
  C  C476  1  0.41526000  0.23852000  0.16538000  1
  C  C477  1  0.36401000  0.24520000  0.11723000  1
  C  C478  1  0.30038000  0.19806000  0.08656000  1
  C  C479  1  0.28798000  0.14461000  0.10212000  1
  C  C480  1  0.46009000  0.18558000  0.23803000  1
  C  C481  1  0.21764000  0.09713000  0.07036000  1
  C  C482  1  0.37704000  0.30138000  0.09884000  1
  C  C483  1  0.35489000  0.94889000  0.05522000  1
  C  C484  1  0.04734000  0.06286000  0.44243000  1
  C  C485  1  0.92739000  0.00313000  0.35851000  1
  C  C486  1  0.88979000  0.05251000  0.34090000  1
  C  C487  1  0.82409000  0.02690000  0.29356000  1
  C  C488  1  0.79600000  0.95511000  0.26183000  1
  C  C489  1  0.83430000  0.90806000  0.28115000  1
  C  C490  1  0.89892000  0.93042000  0.32922000  1
  C  C491  1  0.93285000  0.87713000  0.34915000  1
  C  C492  1  0.92052000  0.86714000  0.39345000  1
  C  C493  1  0.94895000  0.81545000  0.41130000  1
  C  C494  1  0.98863000  0.77220000  0.38560000  1
  C  C495  1  0.99743000  0.78077000  0.34009000  1
  C  C496  1  0.96905000  0.83164000  0.32052000  1
  C  C497  1  0.97431000  0.83280000  0.26716000  1
  C  C498  1  0.87162000  0.90749000  0.41698000  1
  C  C499  1  0.01985000  0.71749000  0.40610000  1
  C  C500  1  0.91874000  0.12868000  0.36805000  1
  C  C501  1  0.92878000  0.15866000  0.33239000  1
  C  C502  1  0.95654000  0.23004000  0.35739000  1
  C  C503  1  0.97628000  0.27279000  0.41662000  1
  C  C504  1  0.96288000  0.24308000  0.45033000  1
  C  C505  1  0.93409000  0.17202000  0.42711000  1
  C  C506  1  0.92023000  0.14519000  0.46668000  1
  C  C507  1  0.01276000  0.34756000  0.44297000  1
  C  C508  1  0.91160000  0.11609000  0.26842000  1
  C  C509  1  0.72795000  0.92685000  0.21013000  1
  C  C510  1  0.69453000  0.97100000  0.18367000  1
  C  C511  1  0.62687000  0.94871000  0.13957000  1
  C  C512  1  0.59369000  0.87959000  0.12135000  1
  C  C513  1  0.62937000  0.83359000  0.14494000  1
  C  C514  1  0.69725000  0.85660000  0.18936000  1
  C  C515  1  0.59269000  0.76188000  0.12664000  1
  C  C516  1  0.54099000  0.75485000  0.14621000  1
  C  C517  1  0.50796000  0.68774000  0.13079000  1
  C  C518  1  0.52475000  0.62716000  0.09632000  1
  C  C519  1  0.57857000  0.63513000  0.07965000  1
  C  C520  1  0.61347000  0.70152000  0.09505000  1
  C  C521  1  0.67499000  0.70863000  0.08101000  1
  C  C522  1  0.52452000  0.81877000  0.18615000  1
  C  C523  1  0.48575000  0.55555000  0.07781000  1
  C  C524  1  0.59799000  0.00615000  0.06950000  1
  C  C525  1  0.55877000  0.04970000  0.04599000  1
  C  C526  1  0.51055000  0.08314000  0.06610000  1
  C  C527  1  0.50216000  0.07269000  0.11119000  1
  C  C528  1  0.54024000  0.02993000  0.13582000  1
  C  C529  1  0.58852000  0.99622000  0.11461000  1
  C  C530  1  0.64896000  0.97079000  0.04575000  1
  C  C531  1  0.46645000  0.12806000  0.03967000  1
  C  C532  1  0.53004000  0.02054000  0.18466000  1
  C  C533  1  0.46801000  0.85813000  0.04617000  1
  C  C534  1  0.40356000  0.92342000  0.95356000  1
  C  C535  1  0.38495000  0.97092000  0.87740000  1
  C  C536  1  0.31500000  0.98289000  0.85553000  1
  C  C537  1  0.29345000  0.00444000  0.81023000  1
  C  C538  1  0.33782000  0.01385000  0.78488000  1
  C  C539  1  0.40694000  0.00223000  0.80822000  1
  C  C540  1  0.43161000  0.98118000  0.85392000  1
  C  C541  1  0.50428000  0.96602000  0.87227000  1
  C  C542  1  0.56210000  0.02129000  0.90352000  1
  C  C543  1  0.62989000  0.00547000  0.91640000  1
  C  C544  1  0.64137000  0.93615000  0.89831000  1
  C  C545  1  0.58293000  0.88215000  0.86600000  1
  C  C546  1  0.51441000  0.89581000  0.85233000  1
  C  C547  1  0.45264000  0.83667000  0.81472000  1
  C  C548  1  0.55161000  0.09642000  0.92102000  1
  C  C549  1  0.71450000  0.91932000  0.91352000  1
  C  C550  1  0.26338000  0.97122000  0.87755000  1
  C  C551  1  0.23615000  0.90222000  0.86440000  1
  C  C552  1  0.25824000  0.83984000  0.82772000  1
  C  C553  1  0.18521000  0.89220000  0.88346000  1
  C  C554  1  0.15840000  0.94826000  0.91262000  1
  C  C555  1  0.18530000  0.01603000  0.92402000  1
  C  C556  1  0.23791000  0.02875000  0.90766000  1
  C  C557  1  0.26472000  0.10302000  0.92106000  1
  C  C558  1  0.10079000  0.93604000  0.92992000  1
  C  C559  1  0.31226000  0.03357000  0.73536000  1
  C  C560  1  0.35834000  0.05669000  0.71693000  1
  C  C561  1  0.33483000  0.07471000  0.66954000  1
  C  C562  1  0.26197000  0.07276000  0.64069000  1
  C  C563  1  0.21374000  0.05086000  0.65859000  1
  C  C564  1  0.24019000  0.02990000  0.70422000  1
  C  C565  1  0.13768000  0.05329000  0.63361000  1
  C  C566  1  0.09328000  0.01019000  0.57470000  1
  C  C567  1  0.02226000  0.01601000  0.55304000  1
  C  C568  1  0.99330000  0.06162000  0.58838000  1
  C  C569  1  0.03736000  0.10043000  0.64742000  1
  C  C570  1  0.10910000  0.09836000  0.67080000  1
  C  C571  1  0.15266000  0.14776000  0.73396000  1
  C  C572  1  0.11909000  0.95678000  0.53421000  1
  C  C573  1  0.91808000  0.07139000  0.56428000  1
  C  C574  1  0.38800000  0.09119000  0.65043000  1
  C  C575  1  0.43659000  0.15455000  0.68353000  1
  C  C576  1  0.48868000  0.16522000  0.66576000  1
  C  C577  1  0.49518000  0.11412000  0.61744000  1
  C  C578  1  0.44795000  0.05055000  0.58668000  1
  C  C579  1  0.39449000  0.03813000  0.60225000  1
  C  C580  1  0.43584000  0.20991000  0.73855000  1
  C  C581  1  0.34708000  0.96775000  0.57048000  1
  C  C582  1  0.55114000  0.12734000  0.59886000  1
  C  C583  1  0.19830000  0.10534000  0.55577000  1
  C  C584  1  0.85499000  0.36936000  0.05733000  1
  C  C585  1  0.81902000  0.39432000  0.14144000  1
  C  C586  1  0.79908000  0.46132000  0.15906000  1
  C  C587  1  0.78072000  0.48311000  0.20641000  1
  C  C588  1  0.78433000  0.44314000  0.23817000  1
  C  C589  1  0.80353000  0.37685000  0.21899000  1
  C  C590  1  0.82002000  0.35107000  0.17088000  1
  C  C591  1  0.83403000  0.27786000  0.15104000  1
  C  C592  1  0.77742000  0.22361000  0.10670000  1
  C  C593  1  0.78800000  0.15407000  0.08883000  1
  C  C594  1  0.85331000  0.13647000  0.11456000  1
  C  C595  1  0.90757000  0.19051000  0.16014000  1
  C  C596  1  0.89879000  0.26097000  0.17972000  1
  C  C597  1  0.95737000  0.31543000  0.23308000  1
  C  C598  1  0.70503000  0.24050000  0.08314000  1
  C  C599  1  0.86395000  0.06122000  0.09408000  1
  C  C600  1  0.80091000  0.51030000  0.13194000  1
  C  C601  1  0.84637000  0.57605000  0.16766000  1
  C  C602  1  0.84923000  0.62234000  0.14261000  1
  C  C603  1  0.81023000  0.60560000  0.08327000  1
  C  C604  1  0.76340000  0.54199000  0.04944000  1
  C  C605  1  0.75753000  0.49437000  0.07278000  1
  C  C606  1  0.70402000  0.42805000  0.03328000  1
  C  C607  1  0.82050000  0.65396000  0.05693000  1
  C  C608  1  0.89286000  0.59782000  0.23175000  1
  C  C609  1  0.76770000  0.46657000  0.28974000  1
  C  C610  1  0.76068000  0.53718000  0.31616000  1
  C  C611  1  0.73699000  0.55899000  0.36021000  1
  C  C612  1  0.72199000  0.50808000  0.37839000  1
  C  C613  1  0.73400000  0.43848000  0.35475000  1
  C  C614  1  0.75756000  0.41702000  0.31039000  1
  C  C615  1  0.71546000  0.38512000  0.37303000  1
  C  C616  1  0.64421000  0.35839000  0.35338000  1
  C  C617  1  0.62662000  0.30687000  0.36900000  1
  C  C618  1  0.67788000  0.28114000  0.40380000  1
  C  C619  1  0.74836000  0.30604000  0.42067000  1
  C  C620  1  0.76782000  0.35679000  0.40503000  1
  C  C621  1  0.84344000  0.37828000  0.41944000  1
  C  C622  1  0.58786000  0.38232000  0.31337000  1
  C  C623  1  0.65740000  0.22823000  0.42248000  1
  C  C624  1  0.77823000  0.68649000  0.43029000  1
  C  C625  1  0.76260000  0.75360000  0.45383000  1
  C  C626  1  0.69435000  0.76706000  0.43383000  1
  C  C627  1  0.64084000  0.71153000  0.38881000  1
  C  C628  1  0.65421000  0.64412000  0.36413000  1
  C  C629  1  0.72365000  0.63149000  0.38521000  1
  C  C630  1  0.85290000  0.67480000  0.45399000  1
  C  C631  1  0.67671000  0.83849000  0.46011000  1
  C  C632  1  0.59513000  0.58595000  0.31531000  1
  C  C633  1  0.67149000  0.56135000  0.45363000  1
  C  C634  1  0.69966000  0.71913000  0.54626000  1
  C  C635  1  0.75698000  0.84301000  0.62216000  1
  C  C636  1  0.70898000  0.87701000  0.64410000  1
  C  C637  1  0.73276000  0.94387000  0.68941000  1
  C  C638  1  0.80250000  0.97854000  0.71481000  1
  C  C639  1  0.84815000  0.94351000  0.69133000  1
  C  C640  1  0.82709000  0.87677000  0.64558000  1
  C  C641  1  0.88144000  0.84331000  0.62723000  1
  C  C642  1  0.90818000  0.86752000  0.59616000  1
  C  C643  1  0.96325000  0.83897000  0.58343000  1
  C  C644  1  0.99278000  0.78775000  0.60154000  1
  C  C645  1  0.96654000  0.76594000  0.63375000  1
  C  C646  1  0.91152000  0.79309000  0.64724000  1
  C  C647  1  0.88720000  0.77155000  0.68477000  1
  C  C648  1  0.88025000  0.92522000  0.57875000  1
  C  C649  1  0.05080000  0.75580000  0.58642000  1
  C  C650  1  0.63534000  0.84348000  0.62215000  1
  C  C651  1  0.62122000  0.78782000  0.63547000  1
  C  C652  1  0.68001000  0.76232000  0.67229000  1
  C  C653  1  0.55124000  0.75883000  0.61652000  1
  C  C654  1  0.49534000  0.78569000  0.58727000  1
  C  C655  1  0.51088000  0.84198000  0.57577000  1
  C  C656  1  0.57984000  0.87097000  0.59206000  1
  C  C657  1  0.59354000  0.93191000  0.57881000  1
  C  C658  1  0.42041000  0.75614000  0.56987000  1
  C  C659  1  0.82665000  0.04774000  0.76442000  1
  C  C660  1  0.89134000  0.08899000  0.78290000  1
  C  C661  1  0.91537000  0.15445000  0.83029000  1
  C  C662  1  0.87143000  0.18151000  0.85922000  1
  C  C663  1  0.80515000  0.14198000  0.84134000  1
  C  C664  1  0.78574000  0.07546000  0.79554000  1
  C  C665  1  0.75421000  0.16966000  0.86647000  1
  C  C666  1  0.76878000  0.18580000  0.92548000  1
  C  C667  1  0.71950000  0.21341000  0.94724000  1
  C  C668  1  0.65513000  0.22355000  0.91193000  1
  C  C669  1  0.64016000  0.20319000  0.85288000  1
  C  C670  1  0.68844000  0.17763000  0.82940000  1
  C  C671  1  0.66841000  0.16365000  0.76613000  1
  C  C672  1  0.83503000  0.17300000  0.96606000  1
  C  C673  1  0.60402000  0.25739000  0.93608000  1
  C  C674  1  0.98764000  0.19021000  0.84939000  1
  C  C675  1  0.00290000  0.22122000  0.81665000  1
  C  C676  1  0.07267000  0.24990000  0.83437000  1
  C  C677  1  0.12766000  0.24658000  0.88231000  1
  C  C678  1  0.11140000  0.21327000  0.91285000  1
  C  C679  1  0.04245000  0.18511000  0.89736000  1
  C  C680  1  0.94691000  0.22223000  0.76206000  1
  C  C681  1  0.02684000  0.14618000  0.92894000  1
  C  C682  1  0.20219000  0.27829000  0.90073000  1
  C  C683  1  0.89427000  0.29896000  0.94475000  1
  C  C684  1  0.61949000  0.60407000  0.55747000  1
  C  C685  1  0.64427000  0.56875000  0.64184000  1
  C  C686  1  0.71143000  0.54913000  0.65957000  1
  C  C687  1  0.73350000  0.53140000  0.70725000  1
  C  C688  1  0.69360000  0.53535000  0.73917000  1
  C  C689  1  0.62718000  0.55432000  0.71996000  1
  C  C690  1  0.60113000  0.57003000  0.67146000  1
  C  C691  1  0.52783000  0.58372000  0.65138000  1
  C  C692  1  0.47378000  0.52700000  0.60691000  1
  C  C693  1  0.40418000  0.53743000  0.58873000  1
  C  C694  1  0.38634000  0.60269000  0.61422000  1
  C  C695  1  0.44020000  0.65706000  0.65988000  1
  C  C696  1  0.51069000  0.64843000  0.67982000  1
  C  C697  1  0.56490000  0.70716000  0.73329000  1
  C  C698  1  0.49082000  0.45465000  0.58349000  1
  C  C699  1  0.31106000  0.61323000  0.59342000  1
  C  C700  1  0.76033000  0.55086000  0.63232000  1
  C  C701  1  0.82599000  0.59655000  0.66793000  1
  C  C702  1  0.87223000  0.59944000  0.64282000  1
  C  C703  1  0.85561000  0.56023000  0.58352000  1
  C  C704  1  0.79212000  0.51322000  0.54981000  1
  C  C705  1  0.74447000  0.50741000  0.57318000  1
  C  C706  1  0.67813000  0.45397000  0.53357000  1
  C  C707  1  0.90388000  0.57066000  0.55713000  1
  C  C708  1  0.84759000  0.64333000  0.73195000  1
  C  C709  1  0.71717000  0.51898000  0.79084000  1
  C  C710  1  0.78778000  0.51189000  0.81719000  1
  C  C711  1  0.80933000  0.48724000  0.86063000  1
  C  C712  1  0.75831000  0.47187000  0.87863000  1
  C  C713  1  0.68887000  0.48460000  0.85547000  1
  C  C714  1  0.66762000  0.50866000  0.81144000  1
  C  C715  1  0.63546000  0.46624000  0.87380000  1
  C  C716  1  0.60872000  0.39504000  0.85428000  1
  C  C717  1  0.55719000  0.37759000  0.86998000  1
  C  C718  1  0.53138000  0.42894000  0.90467000  1
  C  C719  1  0.55629000  0.49935000  0.92142000  1
  C  C720  1  0.60709000  0.51869000  0.90574000  1
  C  C721  1  0.62851000  0.59426000  0.92004000  1
  C  C722  1  0.63240000  0.33858000  0.81409000  1
  C  C723  1  0.47825000  0.40857000  0.92323000  1
  C  C724  1  0.93674000  0.52832000  0.93070000  1
  C  C725  1  0.00398000  0.51290000  0.95408000  1
  C  C726  1  0.01759000  0.44472000  0.93381000  1
  C  C727  1  0.96221000  0.39121000  0.88867000  1
  C  C728  1  0.89467000  0.40441000  0.86401000  1
  C  C729  1  0.88183000  0.47370000  0.88541000  1
  C  C730  1  0.92473000  0.60283000  0.95468000  1
  C  C731  1  0.08905000  0.42724000  0.96023000  1
  C  C732  1  0.83701000  0.34508000  0.81471000  1
  C  C733  1  0.81205000  0.42056000  0.95318000  1
  C  C734  1  0.96984000  0.44993000  0.04631000  1
  C  C735  1  0.09334000  0.50772000  0.12273000  1
  C  C736  1  0.12729000  0.45961000  0.14449000  1
  C  C737  1  0.19420000  0.48330000  0.18973000  1
  C  C738  1  0.22886000  0.55304000  0.21523000  1
  C  C739  1  0.19387000  0.59882000  0.19195000  1
  C  C740  1  0.12707000  0.57783000  0.14625000  1
  C  C741  1  0.09357000  0.63215000  0.12793000  1
  C  C742  1  0.11781000  0.65886000  0.09685000  1
  C  C743  1  0.08941000  0.71402000  0.08428000  1
  C  C744  1  0.03833000  0.74372000  0.10257000  1
  C  C745  1  0.01644000  0.71746000  0.13472000  1
  C  C746  1  0.04342000  0.66232000  0.14805000  1
  C  C747  1  0.02181000  0.63814000  0.18562000  1
  C  C748  1  0.17545000  0.63091000  0.07930000  1
  C  C749  1  0.00673000  0.80202000  0.08780000  1
  C  C750  1  0.09366000  0.38600000  0.12241000  1
  C  C751  1  0.03795000  0.37193000  0.13574000  1
  C  C752  1  0.01233000  0.43064000  0.17253000  1
  C  C753  1  0.00892000  0.30196000  0.11673000  1
  C  C754  1  0.03572000  0.24605000  0.08739000  1
  C  C755  1  0.09191000  0.26154000  0.07575000  1
  C  C756  1  0.12102000  0.33049000  0.09215000  1
  C  C757  1  0.18190000  0.34403000  0.07874000  1
  C  C758  1  0.00626000  0.17120000  0.07018000  1
  C  C759  1  0.29811000  0.57694000  0.26477000  1
  C  C760  1  0.33969000  0.64136000  0.28315000  1
  C  C761  1  0.40524000  0.66513000  0.33045000  1
  C  C762  1  0.43209000  0.62107000  0.35927000  1
  C  C763  1  0.39219000  0.55500000  0.34142000  1
  C  C764  1  0.32552000  0.53596000  0.29584000  1
  C  C765  1  0.41964000  0.50396000  0.36644000  1
  C  C766  1  0.43574000  0.51854000  0.42544000  1
  C  C767  1  0.46323000  0.46921000  0.44714000  1
  C  C768  1  0.47329000  0.40484000  0.41175000  1
  C  C769  1  0.45281000  0.38981000  0.35268000  1
  C  C770  1  0.42735000  0.43811000  0.32925000  1
  C  C771  1  0.41331000  0.41807000  0.26596000  1
  C  C772  1  0.42308000  0.58487000  0.46607000  1
  C  C773  1  0.50717000  0.35379000  0.43590000  1
  C  C774  1  0.44100000  0.73741000  0.34960000  1
  C  C775  1  0.47140000  0.75292000  0.31659000  1
  C  C776  1  0.49982000  0.82276000  0.33433000  1
  C  C777  1  0.49676000  0.87759000  0.38252000  1
  C  C778  1  0.46386000  0.86108000  0.41323000  1
  C  C779  1  0.43601000  0.79205000  0.39774000  1
  C  C780  1  0.47189000  0.69723000  0.26162000  1
  C  C781  1  0.39726000  0.77625000  0.42937000  1
  C  C782  1  0.52812000  0.95220000  0.40092000  1
  C  C783  1  0.54944000  0.64292000  0.44458000  1
  N  N784  1  0.27744000  0.74312000  0.90460000  1
  N  N785  1  0.10831000  0.27570000  0.57780000  1
  N  N786  1  0.19724000  0.15505000  0.42076000  1
  N  N787  1  0.34236000  0.98632000  0.09461000  1
  N  N788  1  0.99332000  0.02807000  0.40448000  1
  N  N789  1  0.52486000  0.86070000  0.08020000  1
  N  N790  1  0.40513000  0.94713000  0.92087000  1
  N  N791  1  0.23585000  0.09246000  0.59486000  1
  N  N792  1  0.83885000  0.37305000  0.09537000  1
  N  N793  1  0.69442000  0.53026000  0.41959000  1
  N  N794  1  0.73372000  0.77565000  0.57876000  1
  N  N795  1  0.89159000  0.24698000  0.90515000  1
  N  N796  1  0.62280000  0.58824000  0.59557000  1
  N  N797  1  0.78041000  0.44347000  0.91929000  1
  N  N798  1  0.02609000  0.48444000  0.07917000  1
  N  N799  1  0.49760000  0.64084000  0.40513000  1
