# generated using pymatgen
data_H40C59N4
_symmetry_space_group_name_H-M   'P 1'
_cell_length_a   40.45550000
_cell_length_b   46.04705266
_cell_length_c   46.04702424
_cell_angle_alpha   78.87373525
_cell_angle_beta   63.93100535
_cell_angle_gamma   63.94177116
_symmetry_Int_Tables_number   1
_chemical_formula_structural   H40C59N4
_chemical_formula_sum   'H320 C472 N32'
_cell_volume   69219.80089704
_cell_formula_units_Z   8
loop_
 _symmetry_equiv_pos_site_id
 _symmetry_equiv_pos_as_xyz
  1  'x, y, z'
loop_
 _atom_site_type_symbol
 _atom_site_label
 _atom_site_symmetry_multiplicity
 _atom_site_fract_x
 _atom_site_fract_y
 _atom_site_fract_z
 _atom_site_occupancy
  C  1  1  0.92232250  0.67790050  0.13703850  1
  C  2  1  0.95514350  0.68569000  0.11500100  1
  C  3  1  0.99950350  0.62645050  0.10268650  1
  C  4  1  0.96692350  0.61815200  0.12414600  1
  C  5  1  0.97376650  0.58497300  0.12794900  1
  C  6  1  0.01171750  0.56003450  0.11173050  1
  C  7  1  0.04347400  0.56910900  0.09050800  1
  C  8  1  0.03740800  0.60183250  0.08601050  1
  C  9  1  0.95005600  0.71839000  0.10970300  1
  C  10  1  0.91288600  0.74343050  0.12592250  1
  C  11  1  0.87983450  0.73640850  0.14813150  1
  C  12  1  0.88515300  0.70361600  0.15324900  1
  C  13  1  0.89618150  0.64086850  0.13337150  1
  C  14  1  0.86434350  0.63202150  0.15572350  1
  C  15  1  0.88726900  0.62634050  0.20006650  1
  C  16  1  0.91855600  0.63621700  0.17866200  1
  C  17  1  0.88217800  0.61880500  0.23257700  1
  C  18  1  0.90704700  0.62178450  0.24443450  1
  C  19  1  0.93775750  0.63235300  0.22400700  1
  C  20  1  0.94350200  0.63884800  0.19123300  1
  C  21  1  0.89946300  0.64758100  0.10103200  1
  C  22  1  0.87209150  0.64583150  0.09093950  1
  C  23  1  0.84047550  0.63738800  0.11371400  1
  C  24  1  0.83676500  0.63047750  0.14571650  1
  C  37  1  0.92596050  0.64333900  0.14330000  1
  C  38  1  0.85879550  0.62380400  0.18975900  1
  C  41  1  0.99521400  0.66047750  0.09705450  1
  C  44  1  0.96025800  0.63855500  0.23569400  1
  C  45  1  0.84331250  0.76120700  0.16445400  1
  C  46  1  0.87720700  0.65147350  0.05906350  1
  C  50  1  0.01797600  0.52755250  0.11652250  1
  C  52  1  0.73440450  0.47176900  0.71858500  1
  C  53  1  0.75298700  0.46399550  0.74060750  1
  C  54  1  0.72591300  0.52324900  0.75280300  1
  C  55  1  0.70649300  0.53153500  0.73135200  1
  C  56  1  0.68401450  0.56471600  0.72749800  1
  C  57  1  0.68086317  0.58966683  0.74366183  1
  C  58  1  0.70047650  0.58060150  0.76487250  1
  C  59  1  0.72258600  0.54788050  0.76941550  1
  C  60  1  0.77526250  0.43129900  0.74594700  1
  C  61  1  0.77932650  0.40624500  0.72976700  1
  C  62  1  0.76146050  0.41325100  0.70756900  1
  C  63  1  0.73911800  0.44603850  0.70242550  1
  C  64  1  0.66757600  0.50885150  0.72226450  1
  C  65  1  0.64921000  0.51768650  0.69994350  1
  C  66  1  0.71085750  0.52321400  0.65550700  1
  C  67  1  0.73063450  0.51337350  0.67688950  1
  C  68  1  0.73077000  0.53064250  0.62295850  1
  C  69  1  0.77051350  0.52759650  0.61104950  1
  C  70  1  0.79137650  0.51707250  0.63145950  1
  C  71  1  0.77081050  0.51069400  0.66427200  1
  C  72  1  0.64522850  0.50219900  0.75463200  1
  C  73  1  0.60598250  0.50398850  0.76478250  1
  C  74  1  0.58865750  0.51243150  0.74204150  1
  C  75  1  0.61003800  0.51929100  0.71001400  1
  C  88  1  0.70979150  0.50632800  0.71227800  1
  C  89  1  0.66949400  0.52582000  0.66587700  1
  C  92  1  0.74995450  0.48922250  0.75849250  1
  C  95  1  0.83179400  0.51081200  0.61973600  1
  C  96  1  0.76608250  0.38844500  0.69124800  1
  C  97  1  0.58490400  0.49833200  0.79667000  1
  C  101  1  0.65947100  0.62215100  0.73883700  1
  C  103  1  0.47494900  0.86585050  0.53074350  1
  C  104  1  0.43434100  0.88791500  0.53859400  1
  C  105  1  0.44902550  0.90005850  0.47935850  1
  C  106  1  0.48990350  0.87856850  0.47099450  1
  C  107  1  0.51614450  0.87468000  0.43778900  1
  C  108  1  0.50304900  0.89085000  0.41288600  1
  C  109  1  0.46221950  0.91209700  0.42202500  1
  C  110  1  0.43565050  0.91666750  0.45477250  1
  C  111  1  0.40681500  0.89330150  0.57132050  1
  C  112  1  0.41902150  0.87712300  0.59632900  1
  C  113  1  0.45908350  0.85486900  0.58924400  1
  C  114  1  0.48648350  0.84968450  0.55642950  1
  C  115  1  0.53810850  0.86942400  0.49348100  1
  C  116  1  0.57879900  0.84706350  0.48454350  1
  C  117  1  0.56138200  0.80268850  0.47920750  1
  C  118  1  0.52022050  0.82411100  0.48915300  1
  C  119  1  0.57391650  0.77014650  0.47183150  1
  C  120  1  0.54598300  0.75827850  0.47504650  1
  C  121  1  0.50470400  0.77872250  0.48570350  1
  C  122  1  0.49255800  0.81153350  0.49200450  1
  C  123  1  0.52819200  0.90177400  0.50009200  1
  C  124  1  0.55738800  0.91187550  0.49816750  1
  C  125  1  0.59745550  0.88909350  0.48962350  1
  C  126  1  0.60800450  0.85708100  0.48280200  1
  C  139  1  0.50577600  0.85949350  0.49614650  1
  C  140  1  0.59248150  0.81300950  0.47643850  1
  C  143  1  0.41939000  0.90579450  0.51341850  1
  C  146  1  0.47591750  0.76704850  0.49214950  1
  C  147  1  0.47085100  0.83852700  0.61400700  1
  C  148  1  0.54665700  0.94375000  0.50380800  1
  C  152  1  0.52920150  0.88601900  0.38037800  1
  C  154  1  0.86858950  0.28407200  0.32473500  1
  C  155  1  0.85785650  0.26201150  0.31693250  1
  C  156  1  0.82579150  0.24969250  0.37617250  1
  C  157  1  0.83686250  0.27117650  0.38448550  1
  C  158  1  0.82618800  0.27498400  0.41767200  1
  C  159  1  0.80447100  0.25875250  0.44260250  1
  C  160  1  0.79398550  0.23750700  0.43351300  1
  C  161  1  0.80457400  0.23300650  0.40078450  1
  C  162  1  0.86827150  0.25670350  0.28422750  1
  C  163  1  0.88919200  0.27294550  0.25919250  1
  C  164  1  0.89997700  0.29518300  0.26622800  1
  C  165  1  0.88952350  0.30030450  0.29902350  1
  C  166  1  0.89834650  0.28044950  0.36179150  1
  C  167  1  0.90775800  0.30281350  0.37069750  1
  C  168  1  0.84046600  0.34711600  0.37635200  1
  C  169  1  0.83065150  0.32569650  0.36642850  1
  C  170  1  0.81301250  0.37962150  0.38387650  1
  C  171  1  0.77632500  0.39146150  0.38083150  1
  C  172  1  0.76612150  0.37101900  0.37020400  1
  C  173  1  0.79316650  0.33824500  0.36374400  1
  C  174  1  0.92747150  0.24813550  0.35502050  1
  C  175  1  0.96493750  0.23808300  0.35675800  1
  C  176  1  0.97369950  0.26086600  0.36527100  1
  C  177  1  0.94532950  0.29283750  0.37225850  1
  C  190  1  0.85865200  0.29034450  0.35930550  1
  C  191  1  0.87920850  0.33683050  0.37895050  1
  C  194  1  0.83575050  0.24404900  0.34213900  1
  C  197  1  0.73197150  0.38268150  0.36395350  1
  C  198  1  0.92013050  0.31153500  0.24143400  1
  C  199  1  0.99183150  0.20625150  0.35096150  1
  C  203  1  0.79340300  0.26353800  0.47509300  1
  C  205  1  0.07692800  0.86479050  0.32501350  1
  C  206  1  0.04398050  0.88663400  0.31729200  1
  C  207  1  0.00078850  0.90132850  0.37624450  1
  C  208  1  0.03353900  0.88012450  0.38443850  1
  C  209  1  0.02731500  0.87753400  0.41745000  1
  C  210  1  0.98970450  0.89444000  0.44235900  1
  C  211  1  0.95780000  0.91548100  0.43340300  1
  C  212  1  0.96333400  0.91894600  0.40080000  1
  C  213  1  0.04841950  0.89073900  0.28474200  1
  C  214  1  0.08513100  0.87363900  0.25976400  1
  C  215  1  0.11835400  0.85166150  0.26668950  1
  C  216  1  0.11358750  0.84757100  0.29937100  1
  C  217  1  0.10479500  0.86959850  0.36020850  1
  C  218  1  0.13675550  0.84736800  0.36898800  1
  C  219  1  0.11135700  0.80385000  0.37858800  1
  C  220  1  0.08027800  0.82486300  0.36832100  1
  C  221  1  0.11507500  0.77194800  0.38841300  1
  C  222  1  0.08916050  0.76017300  0.38717500  1
  C  223  1  0.05895250  0.78001700  0.37589000  1
  C  224  1  0.05435500  0.81234000  0.36733200  1
  C  225  1  0.10226100  0.90167000  0.35225300  1
  C  226  1  0.13039750  0.91151650  0.35292850  1
  C  227  1  0.16228300  0.88883300  0.36105700  1
  C  228  1  0.16536450  0.85708800  0.36901100  1
  C  241  1  0.07394750  0.85984000  0.35940800  1
  C  242  1  0.14111150  0.81387550  0.37915750  1
  C  245  1  0.00441900  0.90564350  0.34239850  1
  C  248  1  0.03659900  0.76769100  0.37032800  1
  C  249  1  0.15455450  0.83489400  0.24180400  1
  C  250  1  0.12517550  0.94335550  0.34783450  1
  C  254  1  0.98388650  0.89011500  0.47473500  1
  C  256  1  0.26415850  0.28501350  0.53040550  1
  C  257  1  0.24529000  0.26319050  0.53817750  1
  C  258  1  0.27565900  0.24847800  0.47924200  1
  C  259  1  0.29544050  0.26966000  0.47099900  1
  C  260  1  0.31961750  0.27222700  0.43797200  1
  C  261  1  0.32376400  0.25531950  0.41309850  1
  C  262  1  0.30390300  0.23430250  0.42210050  1
  C  263  1  0.28032350  0.23085600  0.45472100  1
  C  264  1  0.22130200  0.25910850  0.57074450  1
  C  265  1  0.21599800  0.27620650  0.59569050  1
  C  266  1  0.23422250  0.29815650  0.58871550  1
  C  267  1  0.25801800  0.30223300  0.55601700  1
  C  268  1  0.33202100  0.28020150  0.49512850  1
  C  269  1  0.35056950  0.30241550  0.48624350  1
  C  270  1  0.29121900  0.34591900  0.47668300  1
  C  271  1  0.27084400  0.32492750  0.48707250  1
  C  272  1  0.27284150  0.37781600  0.46685900  1
  C  273  1  0.23381300  0.38963600  0.46830900  1
  C  274  1  0.21212500  0.36981200  0.47970600  1
  C  275  1  0.23133800  0.33747750  0.48820850  1
  C  276  1  0.35359500  0.24814650  0.50312850  1
  C  277  1  0.39226650  0.23831300  0.50242100  1
  C  278  1  0.40962200  0.26099000  0.49421200  1
  C  279  1  0.38893500  0.29271000  0.48618600  1
  C  292  1  0.29058750  0.28995300  0.49598900  1
  C  293  1  0.33163000  0.33587850  0.47599350  1
  C  296  1  0.24977550  0.24418550  0.51310650  1
  C  299  1  0.17179300  0.38215150  0.48554650  1
  C  300  1  0.22884400  0.31491400  0.61357100  1
  C  301  1  0.41379400  0.20648400  0.50753500  1
  C  305  1  0.34598250  0.25962750  0.38071050  1
  C  307  1  0.52590750  0.47221750  0.13814950  1
  C  308  1  0.56659450  0.46449050  0.11632350  1
  C  309  1  0.55079250  0.52341500  0.10150200  1
  C  310  1  0.50982950  0.53161000  0.12267800  1
  C  311  1  0.48301100  0.56460500  0.12518300  1
  C  312  1  0.49569800  0.58950100  0.10822300  1
  C  313  1  0.53657850  0.58054750  0.08721950  1
  C  314  1  0.56367700  0.54795550  0.08382850  1
  C  315  1  0.59472200  0.43195000  0.11227400  1
  C  316  1  0.58298850  0.40698300  0.12939600  1
  C  317  1  0.54281650  0.41390900  0.15134200  1
  C  318  1  0.51489300  0.44658700  0.15539800  1
  C  319  1  0.46286500  0.50730300  0.13326100  1
  C  320  1  0.42211450  0.51606800  0.15547700  1
  C  321  1  0.43779350  0.52585750  0.19897850  1
  C  322  1  0.47915300  0.51560950  0.17798450  1
  C  323  1  0.42417650  0.53577650  0.23086450  1
  C  324  1  0.45127250  0.53464750  0.24264250  1
  C  325  1  0.49276750  0.52343550  0.22280150  1
  C  326  1  0.50601050  0.51473550  0.19050850  1
  C  327  1  0.47341700  0.49925350  0.10120350  1
  C  328  1  0.44465050  0.49983300  0.09135700  1
  C  329  1  0.40462650  0.50794850  0.11403050  1
  C  330  1  0.39353300  0.51598450  0.14576350  1
  C  343  1  0.49446400  0.50659800  0.14302300  1
  C  344  1  0.40752250  0.52631750  0.18895550  1
  C  347  1  0.58103850  0.48958450  0.09726750  1
  C  350  1  0.52061450  0.51804400  0.23512700  1
  C  351  1  0.53148450  0.38902700  0.16809500  1
  C  352  1  0.45500350  0.49470200  0.05952000  1
  C  356  1  0.46910550  0.62186600  0.11246800  1
  C  358  1  0.13310300  0.67749400  0.71763500  1
  C  359  1  0.14416750  0.68527100  0.73947700  1
  C  360  1  0.17280100  0.62633900  0.75415100  1
  C  361  1  0.16128950  0.61808850  0.73295550  1
  C  362  1  0.17018450  0.58505950  0.73036550  1
  C  363  1  0.19093350  0.56019200  0.74726000  1
  C  364  1  0.20176900  0.56920150  0.76828650  1
  C  365  1  0.19268350  0.60182300  0.77175700  1
  C  366  1  0.13554550  0.71783700  0.74358900  1
  C  367  1  0.11589600  0.74277950  0.72649850  1
  C  368  1  0.10469250  0.73580050  0.70452050  1
  C  369  1  0.11362200  0.70310350  0.70042250  1
  C  370  1  0.10056350  0.64218900  0.72244200  1
  C  371  1  0.09090150  0.63330700  0.70022600  1
  C  372  1  0.15980250  0.62379150  0.65670050  1
  C  373  1  0.16978650  0.63417400  0.67769500  1
  C  374  1  0.18801850  0.61396000  0.62480100  1
  C  375  1  0.22561500  0.61538000  0.61299000  1
  C  376  1  0.23590150  0.62678400  0.63281000  1
  C  377  1  0.20816150  0.63530300  0.66514400  1
  C  378  1  0.07099650  0.65016450  0.75450850  1
  C  379  1  0.03305150  0.64940900  0.76436200  1
  C  380  1  0.02391700  0.64117600  0.74169300  1
  C  381  1  0.05261150  0.63320050  0.70995350  1
  C  394  1  0.14112600  0.64307600  0.71267800  1
  C  395  1  0.12007800  0.62310350  0.66674350  1
  C  398  1  0.16476350  0.66020600  0.75847600  1
  C  401  1  0.27043100  0.63257250  0.62047750  1
  C  402  1  0.08523700  0.76065100  0.68775600  1
  C  403  1  0.00641300  0.65452650  0.79619950  1
  C  407  1  0.20113350  0.52780650  0.74294050  1
  C  817  1  0.03848850  0.72528400  0.34841600  1
  C  818  1  0.01721700  0.70655900  0.36827500  1
  C  819  1  0.00185050  0.69255500  0.35539300  1
  C  820  1  0.00784850  0.69649800  0.32233700  1
  C  821  1  0.02971700  0.71542000  0.30248800  1
  C  822  1  0.04512450  0.72929750  0.31554550  1
  C  824  1  0.99086750  0.68396400  0.30859400  1
  C  825  1  0.97976150  0.65751700  0.32208900  1
  C  826  1  0.96441900  0.64538350  0.30736350  1
  C  827  1  0.96078850  0.65882100  0.27823400  1
  C  828  1  0.97123950  0.68530750  0.26463250  1
  C  829  1  0.98654200  0.69767400  0.27926200  1
  C  834  1  0.99811000  0.72524150  0.26390350  1
  C  835  1  0.03598950  0.72098200  0.26786900  1
  C  843  1  0.10947000  0.42479950  0.50693750  1
  C  844  1  0.08931100  0.44355400  0.48710800  1
  C  845  1  0.04705000  0.45751400  0.50000500  1
  C  846  1  0.02395350  0.45347750  0.53304150  1
  C  847  1  0.04491550  0.43457450  0.55287550  1
  C  848  1  0.08725850  0.42074800  0.53980700  1
  C  850  1  0.98069950  0.46587300  0.54677100  1
  C  851  1  0.95656600  0.49228450  0.53330750  1
  C  852  1  0.91436600  0.50429650  0.54803350  1
  C  853  1  0.89511550  0.49076650  0.57712850  1
  C  854  1  0.91853100  0.46428950  0.59067750  1
  C  855  1  0.96082800  0.45204900  0.57605100  1
  C  860  1  0.98468100  0.42451600  0.59137900  1
  C  861  1  0.02214600  0.42893050  0.58747650  1
  C  869  1  0.31133900  0.65397800  0.57781600  1
  C  870  1  0.35132000  0.63421950  0.55894350  1
  C  871  1  0.38064400  0.64715550  0.54501150  1
  C  872  1  0.37066100  0.68017150  0.54917350  1
  C  873  1  0.32986200  0.69994500  0.56816100  1
  C  874  1  0.30063600  0.68682700  0.58198400  1
  C  876  1  0.40014100  0.69394600  0.53678100  1
  C  877  1  0.43771400  0.68056000  0.51031200  1
  C  878  1  0.46515200  0.69531950  0.49832550  1
  C  879  1  0.45529600  0.72436350  0.51194950  1
  C  880  1  0.41835500  0.73783400  0.53848100  1
  C  881  1  0.39072050  0.72317600  0.55069600  1
  C  886  1  0.35156950  0.73841550  0.57829950  1
  C  887  1  0.31798350  0.73452500  0.57391300  1
  C  895  1  0.54088600  0.49559100  0.27735800  1
  C  896  1  0.54248800  0.51547000  0.29593000  1
  C  897  1  0.57073400  0.50255200  0.30993600  1
  C  898  1  0.59763750  0.46945600  0.30610400  1
  C  899  1  0.59544400  0.44959350  0.28732350  1
  C  900  1  0.56694800  0.46268050  0.27347650  1
  C  902  1  0.62837350  0.45566900  0.31862600  1
  C  903  1  0.62609600  0.46920900  0.34499100  1
  C  904  1  0.65618000  0.45445250  0.35710650  1
  C  905  1  0.68884450  0.42525350  0.34373050  1
  C  906  1  0.69187800  0.41159900  0.31733200  1
  C  907  1  0.66192700  0.42626050  0.30498550  1
  C  912  1  0.66558500  0.41085400  0.27751400  1
  C  913  1  0.62365950  0.41493700  0.28185600  1
  C  1025  1  0.88245950  0.63179750  0.01316350  1
  C  1026  1  0.86848450  0.66017800  0.99616500  1
  C  1027  1  0.88109600  0.65927500  0.96255800  1
  C  1028  1  0.90768950  0.62999950  0.94493950  1
  C  1029  1  0.92031350  0.60119100  0.96256000  1
  C  1030  1  0.90734000  0.60227250  0.99639050  1
  C  1032  1  0.92689000  0.62942350  0.91016750  1
  C  1033  1  0.91109550  0.65455750  0.89060950  1
  C  1034  1  0.93333200  0.65551450  0.85719450  1
  C  1035  1  0.97194950  0.63114700  0.84244600  1
  C  1036  1  0.98684100  0.60474750  0.86096750  1
  C  1037  1  0.96456100  0.60347550  0.89452850  1
  C  1042  1  0.98230100  0.57596450  0.91361950  1
  C  1043  1  0.94920100  0.57026950  0.94476550  1
  C  1051  1  0.52460050  0.51790600  0.84260300  1
  C  1052  1  0.52199250  0.48950000  0.85953500  1
  C  1053  1  0.50018350  0.49032300  0.89315500  1
  C  1054  1  0.48002350  0.51954050  0.91084150  1
  C  1055  1  0.48138300  0.54839050  0.89327550  1
  C  1056  1  0.50316400  0.54740150  0.85942350  1
  C  1058  1  0.46405850  0.52001300  0.94560900  1
  C  1059  1  0.45385850  0.49485750  0.96514850  1
  C  1060  1  0.44374200  0.49382900  0.99854900  1
  C  1061  1  0.44336250  0.51812600  0.01329800  1
  C  1062  1  0.45036400  0.54454450  0.99480450  1
  C  1063  1  0.46026150  0.54589350  0.96125950  1
  C  1068  1  0.46956100  0.57342000  0.94219000  1
  C  1069  1  0.46168300  0.57924900  0.91114700  1
  C  1077  1  0.56119150  0.98960200  0.48428900  1
  C  1078  1  0.54681100  0.00652900  0.51271500  1
  C  1079  1  0.53499350  0.04014650  0.51190450  1
  C  1080  1  0.53751850  0.05782550  0.48267950  1
  C  1081  1  0.55383550  0.04026300  0.45380600  1
  C  1082  1  0.56586950  0.00642000  0.45478900  1
  C  1084  1  0.51871550  0.09259200  0.48221900  1
  C  1085  1  0.50927750  0.11212850  0.50741550  1
  C  1086  1  0.48597450  0.14552400  0.50844300  1
  C  1087  1  0.47168850  0.16027000  0.48410100  1
  C  1088  1  0.48327150  0.14177650  0.45765250  1
  C  1089  1  0.50695750  0.10824200  0.45629500  1
  C  1094  1  0.51683700  0.08917450  0.42872250  1
  C  1095  1  0.55575500  0.05813400  0.42293700  1
  C  1103  1  0.03224550  0.16027300  0.37073700  1
  C  1104  1  0.06332450  0.14328900  0.34237100  1
  C  1105  1  0.08427350  0.10967400  0.34325800  1
  C  1106  1  0.07512000  0.09205200  0.37250700  1
  C  1107  1  0.04481300  0.10965400  0.40131500  1
  C  1108  1  0.02403450  0.14349400  0.40025000  1
  C  1110  1  0.09066600  0.05728150  0.37304950  1
  C  1111  1  0.12611500  0.03772400  0.34796500  1
  C  1112  1  0.13732650  0.00430800  0.34698500  1
  C  1113  1  0.11337900  0.98956700  0.37126100  1
  C  1114  1  0.07983450  0.00809200  0.39760200  1
  C  1115  1  0.06854300  0.04164650  0.39891950  1
  C  1120  1  0.03163700  0.06073850  0.42639350  1
  C  1121  1  0.03357750  0.09184250  0.43220250  1
  C  1233  1  0.98590850  0.49272850  0.15258750  1
  C  1234  1  0.01323850  0.46120600  0.14100900  1
  C  1235  1  0.00351050  0.43463000  0.15566700  1
  C  1236  1  0.96623200  0.43876100  0.18207600  1
  C  1237  1  0.93932350  0.47069250  0.19414450  1
  C  1238  1  0.94920600  0.49720950  0.17918650  1
  C  1240  1  0.95527500  0.41216350  0.19791550  1
  C  1241  1  0.97202450  0.38211250  0.18246450  1
  C  1242  1  0.95927450  0.35719100  0.19814900  1
  C  1243  1  0.92912100  0.36169800  0.22980600  1
  C  1244  1  0.91201450  0.39141550  0.24540050  1
  C  1245  1  0.92437700  0.41663950  0.22974850  1
  C  1250  1  0.90498100  0.44806250  0.24664450  1
  C  1251  1  0.90026500  0.47633250  0.22233850  1
  C  1259  1  0.62847550  0.65698900  0.70289400  1
  C  1260  1  0.61296100  0.68851350  0.71436450  1
  C  1261  1  0.59133550  0.71512450  0.69972650  1
  C  1262  1  0.58440200  0.71103050  0.67342150  1
  C  1263  1  0.60122550  0.67909250  0.66146250  1
  C  1264  1  0.62263550  0.65253900  0.67640900  1
  C  1266  1  0.56276900  0.73767150  0.65756550  1
  C  1267  1  0.53425000  0.76780500  0.67295000  1
  C  1268  1  0.51231150  0.79276650  0.65726350  1
  C  1269  1  0.51817050  0.78823950  0.62566250  1
  C  1270  1  0.54616200  0.75845000  0.61013100  1
  C  1271  1  0.56802700  0.73317700  0.62579200  1
  C  1276  1  0.59670650  0.70167550  0.60897250  1
  C  1277  1  0.59578700  0.67349450  0.63337350  1
  C  1285  1  0.59611450  0.84997650  0.34553250  1
  C  1286  1  0.60033750  0.86156100  0.31400700  1
  C  1287  1  0.63666000  0.84691050  0.28743450  1
  C  1288  1  0.66977700  0.82047950  0.29157150  1
  C  1289  1  0.66472050  0.80840450  0.32350450  1
  C  1290  1  0.62831350  0.82336750  0.35001650  1
  C  1292  1  0.70735950  0.80465650  0.26498450  1
  C  1293  1  0.72069450  0.82011900  0.23494400  1
  C  1294  1  0.75841400  0.80446100  0.21004900  1
  C  1295  1  0.78404300  0.77280350  0.21455050  1
  C  1296  1  0.77138600  0.75718850  0.24424550  1
  C  1297  1  0.73376650  0.77282100  0.26945100  1
  C  1302  1  0.72169450  0.75591050  0.30086050  1
  C  1303  1  0.69811500  0.78020050  0.32915150  1
  C  1311  1  0.78941400  0.29957000  0.50994200  1
  C  1312  1  0.77367150  0.28797700  0.54146000  1
  C  1313  1  0.76873150  0.30262100  0.56804900  1
  C  1314  1  0.77956200  0.32904450  0.56393650  1
  C  1315  1  0.79440600  0.34112150  0.53200950  1
  C  1316  1  0.79949600  0.32617300  0.50548000  1
  C  1318  1  0.77465950  0.34487800  0.59054600  1
  C  1319  1  0.77334350  0.32942850  0.62060150  1
  C  1320  1  0.77036600  0.34511850  0.64553850  1
  C  1321  1  0.76881950  0.37678350  0.64105250  1
  C  1322  1  0.77035250  0.39237550  0.61133350  1
  C  1323  1  0.77368300  0.37671900  0.58609200  1
  C  1328  1  0.77618700  0.39361900  0.55467100  1
  C  1329  1  0.80524150  0.36932400  0.52638900  1
  C  1337  1  0.01473550  0.85220800  0.50947700  1
  C  1338  1  0.98864300  0.86442850  0.54098550  1
  C  1339  1  0.99856000  0.84910700  0.56732900  1
  C  1340  1  0.03482250  0.82140400  0.56294700  1
  C  1341  1  0.06036100  0.80870500  0.53105500  1
  C  1342  1  0.05030500  0.82430900  0.50477100  1
  C  1344  1  0.04612850  0.80506150  0.58925850  1
  C  1345  1  0.03146750  0.82061150  0.61883050  1
  C  1346  1  0.04482550  0.80447250  0.64332950  1
  C  1347  1  0.07353400  0.77223000  0.63888700  1
  C  1348  1  0.08847000  0.75648450  0.60967050  1
  C  1349  1  0.07548300  0.77257700  0.58485500  1
  C  1354  1  0.09268550  0.75552650  0.55387850  1
  C  1355  1  0.09830250  0.77924150  0.52514650  1
  C  1363  1  0.37352300  0.29761600  0.34593800  1
  C  1364  1  0.39142950  0.28527600  0.31445100  1
  C  1365  1  0.41241500  0.30059050  0.28812750  1
  C  1366  1  0.41633700  0.32842500  0.29251100  1
  C  1367  1  0.39698200  0.34125500  0.32437300  1
  C  1368  1  0.37621650  0.32565000  0.35063800  1
  C  1370  1  0.43769800  0.34474200  0.26622900  1
  C  1371  1  0.46842500  0.32910750  0.23677050  1
  C  1372  1  0.49027600  0.34521100  0.21234500  1
  C  1373  1  0.48213550  0.37750850  0.21673650  1
  C  1374  1  0.45180900  0.39335100  0.24582300  1
  C  1375  1  0.42998100  0.37729000  0.27057500  1
  C  1380  1  0.39886550  0.39443250  0.30143650  1
  C  1381  1  0.39928450  0.37084850  0.33028250  1
  C  1389  1  0.40351350  0.65665350  0.15036250  1
  C  1390  1  0.39800200  0.68812200  0.13799000  1
  C  1391  1  0.36171900  0.71447000  0.15327200  1
  C  1392  1  0.32992250  0.71013500  0.18111000  1
  C  1393  1  0.33637350  0.67829000  0.19395900  1
  C  1394  1  0.37273100  0.65199700  0.17838500  1
  C  1396  1  0.29228300  0.73645150  0.19742450  1
  C  1397  1  0.27727350  0.76592900  0.18179200  1
  C  1398  1  0.23938850  0.79042100  0.19791500  1
  C  1399  1  0.21522500  0.78608450  0.23023350  1
  C  1400  1  0.22961450  0.75696950  0.24606550  1
  C  1401  1  0.26743550  0.73215200  0.22998600  1
  C  1406  1  0.28132300  0.70128100  0.24713200  1
  C  1407  1  0.30442500  0.67243450  0.22355250  1
  C  1415  1  0.20843350  0.49301250  0.70494350  1
  C  1416  1  0.22208500  0.46153250  0.71727150  1
  C  1417  1  0.22747600  0.43518850  0.70195750  1
  C  1418  1  0.21913650  0.43954350  0.67414550  1
  C  1419  1  0.20654750  0.47140050  0.66132950  1
  C  1420  1  0.20100300  0.49768550  0.67693150  1
  C  1422  1  0.22408550  0.41324400  0.65784000  1
  C  1423  1  0.22291050  0.38376750  0.67347550  1
  C  1424  1  0.22558750  0.35929350  0.65736950  1
  C  1425  1  0.22930050  0.36366600  0.62508200  1
  C  1426  1  0.23040000  0.39278350  0.60925150  1
  C  1427  1  0.22741200  0.41757150  0.62530550  1
  C  1432  1  0.22757100  0.44844750  0.60816250  1
  C  1433  1  0.19828700  0.47728300  0.63176300  1
  H  25  1  0.82009400  0.63594200  0.10717800  1
  H  26  1  0.81374800  0.62412300  0.16171200  1
  H  27  1  0.85969600  0.61163800  0.24812100  1
  H  28  1  0.90191150  0.61678700  0.26830900  1
  H  29  1  0.96574150  0.64650150  0.17620450  1
  H  30  1  0.92258450  0.65355550  0.08447150  1
  H  31  1  0.95021000  0.57900700  0.14332600  1
  H  32  1  0.07146150  0.55196450  0.07824650  1
  H  33  1  0.06112350  0.60759100  0.07053700  1
  H  34  1  0.86131850  0.69813350  0.16902750  1
  H  35  1  0.97355600  0.72424450  0.09386350  1
  H  36  1  0.91036250  0.76682700  0.12158300  1
  H  39  1  0.82844050  0.63986700  0.20518700  1
  H  40  1  0.86093150  0.59894300  0.19398500  1
  H  42  1  0.01703500  0.66281000  0.10338000  1
  H  43  1  0.00297950  0.66543650  0.07120650  1
  H  47  1  0.88613650  0.66897450  0.04710850  1
  H  48  1  0.98662600  0.63909450  0.22024050  1
  H  49  1  0.83598300  0.78314650  0.15472750  1
  H  51  1  0.04264750  0.51075300  0.10167500  1
  H  76  1  0.56027800  0.51389100  0.74861100  1
  H  77  1  0.59664200  0.52562700  0.69403700  1
  H  78  1  0.71665200  0.53778850  0.60743050  1
  H  79  1  0.78426750  0.53251800  0.58715100  1
  H  80  1  0.78569450  0.50304000  0.67928100  1
  H  81  1  0.65780000  0.49621600  0.77116500  1
  H  82  1  0.66987300  0.57067350  0.71212250  1
  H  83  1  0.69909600  0.59775250  0.77709650  1
  H  84  1  0.73658100  0.54212950  0.78488950  1
  H  85  1  0.72558000  0.45150700  0.68665400  1
  H  86  1  0.78878650  0.42545750  0.76177350  1
  H  87  1  0.79585300  0.38285250  0.73411850  1
  H  90  1  0.67055950  0.50974150  0.65051250  1
  H  91  1  0.65104350  0.55068000  0.66160900  1
  H  93  1  0.78045300  0.48685400  0.75215300  1
  H  94  1  0.73680500  0.48431550  0.78435250  1
  H  98  1  0.59940950  0.48089850  0.80864950  1
  H  99  1  0.84325800  0.51027750  0.63517950  1
  H  100  1  0.77088350  0.36652500  0.70101000  1
  H  102  1  0.65266000  0.63896700  0.75358900  1
  H  127  1  0.61933950  0.89562050  0.48806650  1
  H  128  1  0.63737900  0.84107850  0.47638650  1
  H  129  1  0.60356300  0.75459000  0.46462200  1
  H  130  1  0.55605800  0.73437550  0.47019250  1
  H  131  1  0.46266500  0.82657350  0.49972950  1
  H  132  1  0.49908800  0.91833450  0.50613750  1
  H  133  1  0.54566850  0.85928600  0.43177800  1
  H  134  1  0.45131950  0.92432850  0.40490750  1
  H  135  1  0.40618100  0.93217050  0.46057950  1
  H  136  1  0.51579600  0.83387350  0.55090850  1
  H  137  1  0.37746250  0.90915700  0.57721800  1
  H  138  1  0.39820200  0.88149300  0.61974400  1
  H  141  1  0.60687650  0.79763000  0.49245100  1
  H  142  1  0.61510500  0.80872800  0.45153700  1
  H  144  1  0.39516200  0.89948900  0.51589200  1
  H  145  1  0.40674050  0.93165350  0.51829350  1
  H  149  1  0.52014350  0.95577850  0.52119850  1
  H  150  1  0.44896200  0.78250000  0.49278900  1
  H  151  1  0.45650300  0.84837600  0.63587700  1
  H  153  1  0.52127250  0.90082000  0.36358500  1
  H  178  1  0.00061950  0.25436250  0.36670050  1
  H  179  1  0.95230050  0.30884500  0.37864700  1
  H  180  1  0.81989400  0.39517250  0.39108850  1
  H  181  1  0.75756300  0.41533050  0.38582250  1
  H  182  1  0.78600050  0.32320550  0.35606250  1
  H  183  1  0.92096950  0.23156700  0.34899500  1
  H  184  1  0.83432500  0.29038350  0.42364750  1
  H  185  1  0.77827600  0.22523100  0.45065300  1
  H  186  1  0.79637450  0.21751100  0.39501600  1
  H  187  1  0.89753950  0.31610450  0.30451550  1
  H  188  1  0.86064550  0.24084800  0.27836500  1
  H  189  1  0.89607000  0.26860700  0.23579200  1
  H  192  1  0.89412100  0.35228550  0.36293450  1
  H  193  1  0.87278600  0.34103500  0.40383400  1
  H  195  1  0.80761900  0.25034500  0.33979600  1
  H  196  1  0.85386800  0.21820450  0.33717850  1
  H  200  1  0.99476800  0.19430400  0.33350100  1
  H  201  1  0.72105400  0.36723700  0.36340600  1
  H  202  1  0.93725450  0.30179000  0.21950400  1
  H  204  1  0.78355900  0.24869900  0.49188700  1
  H  229  1  0.18297500  0.89537450  0.36194550  1
  H  230  1  0.18836900  0.84119950  0.37542550  1
  H  231  1  0.13738450  0.75671950  0.39589250  1
  H  232  1  0.09352600  0.73660850  0.39352550  1
  H  233  1  0.03243700  0.82691700  0.35918900  1
  H  234  1  0.07890350  0.91829200  0.34660300  1
  H  235  1  0.05097050  0.86234350  0.42337350  1
  H  236  1  0.93004500  0.92817850  0.45056750  1
  H  237  1  0.93949500  0.93421150  0.39510850  1
  H  238  1  0.13752050  0.83196550  0.30480250  1
  H  239  1  0.02482950  0.90643700  0.27893600  1
  H  240  1  0.08721850  0.87727000  0.23647000  1
  H  243  1  0.17098000  0.79751000  0.36330500  1
  H  244  1  0.13950100  0.81081000  0.40385000  1
  H  246  1  0.98191750  0.89933400  0.34123900  1
  H  247  1  0.99721000  0.93126550  0.33633450  1
  H  251  1  0.12062800  0.95479150  0.32837150  1
  H  252  1  0.00987300  0.78263900  0.37015300  1
  H  253  1  0.16080200  0.84364950  0.21942850  1
  H  255  1  0.96061000  0.90613250  0.49129350  1
  H  280  1  0.43778150  0.25444500  0.49324500  1
  H  281  1  0.40251300  0.30857850  0.47965850  1
  H  282  1  0.28743150  0.39302800  0.45929800  1
  H  283  1  0.22096050  0.41319650  0.46195250  1
  H  284  1  0.21584000  0.32290500  0.49643400  1
  H  285  1  0.34119150  0.23152900  0.50883900  1
  H  286  1  0.33403850  0.28739950  0.43201150  1
  H  287  1  0.30596700  0.22160800  0.40496000  1
  H  288  1  0.26601750  0.21561650  0.46044650  1
  H  289  1  0.27180400  0.31782400  0.55054700  1
  H  290  1  0.20757800  0.24342300  0.57658800  1
  H  291  1  0.19845000  0.27258000  0.61900100  1
  H  294  1  0.32937650  0.35228850  0.49174150  1
  H  295  1  0.35161450  0.33886800  0.45125500  1
  H  297  1  0.21978150  0.25051800  0.51430500  1
  H  298  1  0.26210300  0.21856700  0.51917900  1
  H  302  1  0.40125350  0.19511000  0.52708300  1
  H  303  1  0.15965500  0.36720300  0.48609700  1
  H  304  1  0.22142100  0.30619300  0.63595900  1
  H  306  1  0.35537950  0.24354850  0.36418050  1
  H  331  1  0.38307550  0.50877400  0.10749100  1
  H  332  1  0.36410400  0.52238850  0.16164450  1
  H  333  1  0.39437550  0.54325000  0.24607600  1
  H  334  1  0.44051100  0.54112050  0.26617550  1
  H  335  1  0.53607700  0.50665100  0.17593700  1
  H  336  1  0.50243000  0.49362850  0.08458350  1
  H  337  1  0.45341950  0.57052900  0.14036000  1
  H  338  1  0.54715350  0.59770300  0.07447000  1
  H  339  1  0.59321750  0.54226500  0.06857900  1
  H  340  1  0.48551500  0.45202350  0.17098150  1
  H  341  1  0.62412850  0.42613900  0.09658700  1
  H  342  1  0.60420400  0.38368950  0.12577950  1
  H  345  1  0.39353650  0.51046300  0.20535100  1
  H  346  1  0.38439950  0.55098950  0.19198150  1
  H  348  1  0.60465850  0.48848750  0.10359350  1
  H  349  1  0.59437150  0.48345400  0.07165600  1
  H  353  1  0.47899650  0.47521450  0.04810450  1
  H  354  1  0.54737400  0.51821550  0.22028450  1
  H  355  1  0.54772150  0.36662850  0.15940750  1
  H  357  1  0.47578300  0.63838650  0.09637450  1
  H  382  1  0.99671300  0.64022850  0.74823950  1
  H  383  1  0.04554700  0.62670800  0.69407600  1
  H  384  1  0.18098100  0.60642900  0.60957500  1
  H  385  1  0.24481400  0.60904200  0.58941900  1
  H  386  1  0.21543400  0.64351950  0.67972150  1
  H  387  1  0.07769150  0.65587200  0.77112500  1
  H  388  1  0.16173800  0.57909250  0.71518650  1
  H  389  1  0.21683150  0.55206800  0.78099200  1
  H  390  1  0.20121550  0.60755800  0.78702600  1
  H  391  1  0.10533250  0.69763600  0.68481200  1
  H  392  1  0.14340150  0.72368300  0.75928900  1
  H  393  1  0.11011750  0.76609000  0.73013400  1
  H  396  1  0.10656350  0.63887350  0.65035650  1
  H  397  1  0.12484650  0.59837200  0.66371900  1
  H  399  1  0.19354250  0.66142850  0.75215950  1
  H  400  1  0.14634200  0.66626050  0.78410250  1
  H  404  1  0.99943500  0.67406450  0.80757150  1
  H  405  1  0.28190200  0.63328750  0.63544550  1
  H  406  1  0.07007600  0.78300150  0.69657750  1
  H  408  1  0.20827550  0.51127900  0.75901400  1
  H  823  1  0.06093200  0.74275850  0.30113050  1
  H  830  1  0.98350650  0.64610900  0.34244600  1
  H  831  1  0.95666300  0.62628000  0.31767200  1
  H  832  1  0.96749100  0.69573200  0.24392400  1
  H  833  1  0.01217150  0.70357850  0.39225050  1
  H  836  1  0.97318900  0.74764500  0.27568700  1
  H  837  1  0.00428550  0.72725150  0.23813450  1
  H  838  1  0.04247000  0.74242150  0.25821950  1
  H  839  1  0.06170400  0.70006550  0.25383650  1
  H  842  1  0.98512050  0.68030600  0.37093200  1
  H  849  1  0.10212750  0.40725150  0.55419750  1
  H  856  1  0.96920100  0.50379300  0.51301400  1
  H  857  1  0.89775850  0.52342100  0.53778600  1
  H  858  1  0.90455650  0.45379750  0.61135850  1
  H  859  1  0.10525050  0.44653250  0.46312650  1
  H  862  1  0.99409100  0.40210600  0.57953700  1
  H  863  1  0.96710050  0.42242850  0.61713550  1
  H  864  1  0.04047150  0.40753150  0.59712050  1
  H  865  1  0.01276600  0.44986400  0.60154800  1
  H  868  1  0.03359600  0.46971100  0.48446600  1
  H  875  1  0.27137450  0.70117150  0.59554550  1
  H  882  1  0.44538200  0.66030450  0.49874250  1
  H  883  1  0.49199000  0.68512750  0.47915950  1
  H  884  1  0.41164300  0.75847500  0.54904000  1
  H  885  1  0.35939850  0.61024900  0.55589300  1
  H  888  1  0.35407850  0.72651100  0.60066500  1
  H  889  1  0.34335100  0.76416700  0.58046200  1
  H  890  1  0.29004250  0.74409700  0.59536100  1
  H  891  1  0.31320500  0.74866000  0.55303600  1
  H  894  1  0.40963900  0.63166000  0.53273300  1
  H  901  1  0.56544650  0.44826350  0.26009650  1
  H  908  1  0.60205700  0.48961750  0.35635650  1
  H  909  1  0.65369450  0.46478550  0.37616150  1
  H  910  1  0.71626000  0.39083400  0.30695500  1
  H  911  1  0.52369650  0.53948050  0.29879550  1
  H  914  1  0.67878000  0.42253500  0.25504800  1
  H  915  1  0.68508000  0.38506450  0.27557450  1
  H  916  1  0.62674150  0.40524700  0.26047700  1
  H  917  1  0.61190750  0.40100100  0.30284000  1
  H  920  1  0.57208200  0.51809750  0.32205950  1
  H  1031  1  0.91778950  0.58166500  0.00867700  1
  H  1038  1  0.88340150  0.67288350  0.90037650  1
  H  1039  1  0.92167950  0.67443750  0.84383150  1
  H  1040  1  0.01478400  0.58685500  0.85012500  1
  H  1041  1  0.85069650  0.68193050  0.00790450  1
  H  1044  1  0.00219300  0.58128400  0.91990100  1
  H  1045  1  0.00017000  0.55365300  0.89942700  1
  H  1046  1  0.96337000  0.55189600  0.95946000  1
  H  1047  1  0.93270150  0.56097600  0.93822900  1
  H  1050  1  0.87264550  0.68088150  0.95111150  1
  H  1057  1  0.50535550  0.56801300  0.84718900  1
  H  1064  1  0.45420600  0.47656650  0.95537350  1
  H  1065  1  0.43769250  0.47487850  0.01189050  1
  H  1066  1  0.44963300  0.56239700  0.00565400  1
  H  1067  1  0.53775350  0.46776450  0.84775850  1
  H  1070  1  0.50110000  0.56805050  0.93578450  1
  H  1071  1  0.45103350  0.59569750  0.95644350  1
  H  1072  1  0.47213750  0.59764450  0.89645650  1
  H  1073  1  0.42932050  0.58857000  0.91781100  1
  H  1076  1  0.50205250  0.46867700  0.90456400  1
  H  1083  1  0.57600650  0.99417350  0.43415950  1
  H  1090  1  0.51863600  0.10235550  0.52574150  1
  H  1091  1  0.47860550  0.15886100  0.52742500  1
  H  1092  1  0.47323150  0.15262800  0.43975900  1
  H  1093  1  0.54277200  0.99475550  0.53445350  1
  H  1096  1  0.49172150  0.08277150  0.43402050  1
  H  1097  1  0.52117350  0.10343050  0.40645150  1
  H  1098  1  0.56005950  0.04344550  0.40450850  1
  H  1099  1  0.58144800  0.06479600  0.41367800  1
  H  1102  1  0.52166550  0.05154350  0.53356750  1
  H  1109  1  0.00121150  0.15577750  0.42083650  1
  H  1116  1  0.14410200  0.04748750  0.32970150  1
  H  1117  1  0.16241350  0.99094800  0.32808900  1
  H  1118  1  0.06271950  0.99724000  0.41546100  1
  H  1119  1  0.06943650  0.15504200  0.32062900  1
  H  1122  1  0.00552700  0.06706750  0.42097050  1
  H  1123  1  0.02784600  0.04653200  0.44869500  1
  H  1124  1  0.00467000  0.10654550  0.45053750  1
  H  1125  1  0.05653600  0.08526000  0.44159100  1
  H  1128  1  0.10419650  0.09823050  0.32164850  1
  H  1239  1  0.92926200  0.52011700  0.18772900  1
  H  1246  1  0.99297650  0.37813250  0.15917250  1
  H  1247  1  0.97205000  0.33587050  0.18623150  1
  H  1248  1  0.89007650  0.39483400  0.26842900  1
  H  1249  1  0.04031200  0.45737200  0.12196700  1
  H  1252  1  0.92393150  0.44818900  0.25771900  1
  H  1253  1  0.87534450  0.45166500  0.26583000  1
  H  1254  1  0.88882050  0.49883200  0.23489500  1
  H  1255  1  0.87824250  0.47819000  0.21361900  1
  H  1258  1  0.02459250  0.41214500  0.14703000  1
  H  1265  1  0.63396050  0.62963250  0.66793850  1
  H  1272  1  0.52800100  0.77179200  0.69621700  1
  H  1273  1  0.49198200  0.81413050  0.66914550  1
  H  1274  1  0.55055350  0.75501150  0.58714750  1
  H  1275  1  0.61734300  0.69232750  0.73330650  1
  H  1278  1  0.62694550  0.70138000  0.59780500  1
  H  1279  1  0.58970250  0.69811800  0.58986800  1
  H  1280  1  0.61922600  0.65092150  0.62086150  1
  H  1281  1  0.56678300  0.67181050  0.64220150  1
  H  1284  1  0.58152750  0.73760850  0.70825650  1
  H  1291  1  0.62533150  0.81482750  0.37292750  1
  H  1298  1  0.70375550  0.84342700  0.23098700  1
  H  1299  1  0.76700500  0.81639700  0.18875000  1
  H  1300  1  0.78989650  0.73416050  0.24765950  1
  H  1301  1  0.57711600  0.88061600  0.31017300  1
  H  1304  1  0.70262250  0.74485050  0.30094850  1
  H  1305  1  0.74771050  0.73671550  0.30447250  1
  H  1306  1  0.68702750  0.76763700  0.35163800  1
  H  1307  1  0.71827100  0.78890750  0.33104550  1
  H  1310  1  0.63808550  0.85554750  0.26494450  1
  H  1317  1  0.81089550  0.33472550  0.48257650  1
  H  1324  1  0.77571400  0.30613300  0.62456400  1
  H  1325  1  0.76950700  0.33320000  0.66685900  1
  H  1326  1  0.76922600  0.41541000  0.60793100  1
  H  1327  1  0.76565150  0.26893300  0.54528200  1
  H  1330  1  0.74616450  0.40468250  0.55454150  1
  H  1331  1  0.78662050  0.41281050  0.55108250  1
  H  1332  1  0.80413350  0.38188300  0.50389000  1
  H  1333  1  0.83598100  0.36061650  0.52453850  1
  H  1336  1  0.75627850  0.29398050  0.59053150  1
  H  1343  1  0.06934050  0.81531500  0.48185900  1
  H  1350  1  0.01175500  0.84428900  0.62269800  1
  H  1351  1  0.03358950  0.81652500  0.66427900  1
  H  1352  1  0.10934750  0.73304200  0.60628700  1
  H  1353  1  0.96236750  0.88442950  0.54496550  1
  H  1356  1  0.07196850  0.74582500  0.55474100  1
  H  1357  1  0.12171250  0.73531650  0.54998350  1
  H  1358  1  0.10796400  0.76672600  0.50307800  1
  H  1359  1  0.12194950  0.78649600  0.52226900  1
  H  1362  1  0.97836900  0.85831150  0.58984050  1
  H  1369  1  0.36316300  0.33472100  0.37353700  1
  H  1376  1  0.47642300  0.30537650  0.23297950  1
  H  1377  1  0.51227050  0.33309050  0.19149150  1
  H  1378  1  0.44573750  0.41683650  0.24916550  1
  H  1379  1  0.38934200  0.26516900  0.31047800  1
  H  1382  1  0.36942600  0.40399150  0.30038450  1
  H  1383  1  0.40357600  0.41475250  0.30535250  1
  H  1384  1  0.37416850  0.38341350  0.35225150  1
  H  1385  1  0.42716050  0.36374500  0.33334500  1
  H  1388  1  0.42415200  0.29129300  0.26562600  1
  H  1395  1  0.37667500  0.62911550  0.18748550  1
  H  1402  1  0.29301750  0.76969600  0.15805300  1
  H  1403  1  0.22957750  0.81128500  0.18579500  1
  H  1404  1  0.21219250  0.75366350  0.26956550  1
  H  1405  1  0.42024050  0.69206650  0.11789750  1
  H  1408  1  0.30122000  0.70227850  0.25670450  1
  H  1409  1  0.25624750  0.69741050  0.26744750  1
  H  1410  1  0.31691500  0.65045300  0.23612300  1
  H  1411  1  0.28362350  0.66942950  0.21644150  1
  H  1414  1  0.35933500  0.73695650  0.14395850  1
  H  1421  1  0.19110400  0.52057900  0.66787000  1
  H  1428  1  0.21879150  0.37996500  0.69718600  1
  H  1429  1  0.22454900  0.33841850  0.66948450  1
  H  1430  1  0.23311200  0.39611100  0.58577000  1
  H  1431  1  0.22816850  0.45757950  0.73736350  1
  H  1434  1  0.25805000  0.44743800  0.59855600  1
  H  1435  1  0.21889750  0.45233850  0.58787350  1
  H  1436  1  0.20138150  0.49926250  0.61919250  1
  H  1437  1  0.16735300  0.48030950  0.63890650  1
  H  1440  1  0.23828100  0.41269700  0.71125200  1
  N  840  1  0.94513700  0.64809700  0.26498800  1
  N  841  1  0.05345550  0.73873400  0.35948900  1
  N  866  1  0.85549450  0.50141350  0.59040050  1
  N  867  1  0.14897300  0.41131450  0.49581750  1
  N  892  1  0.48163250  0.73765000  0.50131000  1
  N  893  1  0.28300550  0.64280150  0.59129650  1
  N  918  1  0.71774800  0.41198250  0.35445250  1
  N  919  1  0.51486800  0.50667250  0.26388750  1
  N  1048  1  0.99498750  0.63192950  0.81155750  1
  N  1049  1  0.87540750  0.63176700  0.04405700  1
  N  1074  1  0.43630950  0.51729850  0.04418450  1
  N  1075  1  0.54835350  0.51797800  0.81169500  1
  N  1100  1  0.44781350  0.19114150  0.48492150  1
  N  1101  1  0.56829200  0.95871100  0.48420600  1
  N  1126  1  0.12129350  0.95867300  0.37043800  1
  N  1127  1  0.00847700  0.19118650  0.37075550  1
  N  1256  1  0.91556850  0.33968350  0.24672550  1
  N  1257  1  0.99167250  0.51925150  0.14020850  1
  N  1282  1  0.49953600  0.81028250  0.60875450  1
  N  1283  1  0.64839950  0.63044150  0.71523950  1
  N  1308  1  0.81964800  0.75590600  0.19256000  1
  N  1309  1  0.56383600  0.86237400  0.37205600  1
  N  1334  1  0.76541750  0.39370600  0.66308100  1
  N  1335  1  0.79603450  0.28720600  0.48340800  1
  N  1360  1  0.08763350  0.75497850  0.66053450  1
  N  1361  1  0.00881950  0.86510850  0.48314150  1
  N  1386  1  0.50071850  0.39473600  0.19514500  1
  N  1387  1  0.35420150  0.28468750  0.37226950  1
  N  1412  1  0.17947050  0.80773500  0.24747800  1
  N  1413  1  0.43578850  0.63031100  0.13750500  1
  N  1438  1  0.23237200  0.34203700  0.60786000  1
  N  1439  1  0.20138050  0.51935850  0.71787050  1
