# generated using pymatgen
data_H18C30N5O2
_symmetry_space_group_name_H-M   'P 1'
_cell_length_a   35.24160000
_cell_length_b   50.17650000
_cell_length_c   92.17910000
_cell_angle_alpha   90.00000000
_cell_angle_beta   90.00000000
_cell_angle_gamma   90.07490000
_symmetry_Int_Tables_number   1
_chemical_formula_structural   H18C30N5O2
_chemical_formula_sum   'H576 C960 N160 O64'
_cell_volume   163000.17638015
_cell_formula_units_Z   32
loop_
 _symmetry_equiv_pos_site_id
 _symmetry_equiv_pos_as_xyz
  1  'x, y, z'
loop_
 _atom_site_type_symbol
 _atom_site_label
 _atom_site_symmetry_multiplicity
 _atom_site_fract_x
 _atom_site_fract_y
 _atom_site_fract_z
 _atom_site_occupancy
  H  49  1  0.72295900  0.75416600  0.78300900  1
  H  50  1  0.76188800  0.75435800  0.80442700  1
  H  51  1  0.62519300  0.74575800  0.80908200  1
  H  52  1  0.66389200  0.74617800  0.83040400  1
  H  53  1  0.73099500  0.69717300  0.82182700  1
  H  54  1  0.75804100  0.66132200  0.83823700  1
  H  55  1  0.77448600  0.73329500  0.85789600  1
  H  56  1  0.79680400  0.76546300  0.87389300  1
  H  57  1  0.72784200  0.80451800  0.82268100  1
  H  58  1  0.75599500  0.83969200  0.83942200  1
  H  59  1  0.85249000  0.84547000  0.85608000  1
  H  60  1  0.86272400  0.89272500  0.85643400  1
  H  61  1  0.74272900  0.85661000  0.87347100  1
  H  62  1  0.75289100  0.90382700  0.87380200  1
  H  63  1  0.82345500  0.83752200  0.89174300  1
  H  64  1  0.83922800  0.80166900  0.91013700  1
  H  65  1  0.81849700  0.65918200  0.89180500  1
  H  66  1  0.83497900  0.69437100  0.91063300  1
  H  67  1  0.77590100  0.75456800  0.92277400  1
  H  68  1  0.78885400  0.75526100  0.94826000  1
  H  69  1  0.89234900  0.74261100  0.91415800  1
  H  70  1  0.90532000  0.74320700  0.93979500  1
  H  71  1  0.85050700  0.65367900  0.85501500  1
  H  72  1  0.86114500  0.60648500  0.85538300  1
  H  73  1  0.75234600  0.59482400  0.87356300  1
  H  74  1  0.74163900  0.64199700  0.87313900  1
  H  127  1  0.72256600  0.74520200  0.21648800  1
  H  128  1  0.76135100  0.74483700  0.19503600  1
  H  129  1  0.62471100  0.75378900  0.19049800  1
  H  130  1  0.66327000  0.75318900  0.16914000  1
  H  131  1  0.73016600  0.80207100  0.17734700  1
  H  132  1  0.75745900  0.83767800  0.16081600  1
  H  133  1  0.77407200  0.76539600  0.14153900  1
  H  134  1  0.79858800  0.73298300  0.12609300  1
  H  135  1  0.72679900  0.69471200  0.17700800  1
  H  136  1  0.75522000  0.65928300  0.16053100  1
  H  137  1  0.85187600  0.65306000  0.14425100  1
  H  138  1  0.86198500  0.60581400  0.14388300  1
  H  139  1  0.74261800  0.64195400  0.12636100  1
  H  140  1  0.75266400  0.59474600  0.12600500  1
  H  141  1  0.82295200  0.66052300  0.10829900  1
  H  142  1  0.83989000  0.69606700  0.08988100  1
  H  143  1  0.82097400  0.83893600  0.10772000  1
  H  144  1  0.83883700  0.80338400  0.08927800  1
  H  145  1  0.78001300  0.74857700  0.07630300  1
  H  146  1  0.79598500  0.74765100  0.05104300  1
  H  147  1  0.89651200  0.74937500  0.08706700  1
  H  148  1  0.91245400  0.74850900  0.06163200  1
  H  149  1  0.85035400  0.84503100  0.14442700  1
  H  150  1  0.86102800  0.89224600  0.14409200  1
  H  151  1  0.75280400  0.90372100  0.12542000  1
  H  152  1  0.74206900  0.85651700  0.12579800  1
  H  205  1  0.94699500  0.25262100  0.21673200  1
  H  206  1  0.90809200  0.25271300  0.19530800  1
  H  207  1  0.04503200  0.24672700  0.19062200  1
  H  208  1  0.00635100  0.24705800  0.16929300  1
  H  209  1  0.94119100  0.19663100  0.17741700  1
  H  210  1  0.91452100  0.16075100  0.16091400  1
  H  211  1  0.89490700  0.23290200  0.14192800  1
  H  212  1  0.87137300  0.26498000  0.12615700  1
  H  213  1  0.94055900  0.30401200  0.17743900  1
  H  214  1  0.91203900  0.33915900  0.16080600  1
  H  215  1  0.81567800  0.34486200  0.14241700  1
  H  216  1  0.80517700  0.39205400  0.14154200  1
  H  217  1  0.92788400  0.35630700  0.12750500  1
  H  218  1  0.91739100  0.40347300  0.12663100  1
  H  219  1  0.84857500  0.33719600  0.10777800  1
  H  220  1  0.83302700  0.30139800  0.08932900  1
  H  221  1  0.85044400  0.15879900  0.10795400  1
  H  222  1  0.83369200  0.19405300  0.08921200  1
  H  223  1  0.89441100  0.25353300  0.07696800  1
  H  224  1  0.88156200  0.25433500  0.05147400  1
  H  225  1  0.77762900  0.24294900  0.08553300  1
  H  226  1  0.76476300  0.24363700  0.05989000  1
  H  227  1  0.82235900  0.15297000  0.14619600  1
  H  228  1  0.81196000  0.10573500  0.14623700  1
  H  229  1  0.91689200  0.09446900  0.12492700  1
  H  230  1  0.92733000  0.14165200  0.12495000  1
  H  283  1  0.94728100  0.24697500  0.78311100  1
  H  284  1  0.90854700  0.24668000  0.80457800  1
  H  285  1  0.04547800  0.25336200  0.80911200  1
  H  286  1  0.00696100  0.25282200  0.83048600  1
  H  287  1  0.94189600  0.30292700  0.82273000  1
  H  288  1  0.91494600  0.33847200  0.83934300  1
  H  289  1  0.89525300  0.26597200  0.85796900  1
  H  290  1  0.86997300  0.23356500  0.87327400  1
  H  291  1  0.94136700  0.19556100  0.82217900  1
  H  292  1  0.91264400  0.16007000  0.83857200  1
  H  293  1  0.81624100  0.15364000  0.85662400  1
  H  294  1  0.80581100  0.10642100  0.85749600  1
  H  295  1  0.92801900  0.14256200  0.87203600  1
  H  296  1  0.91759000  0.09537300  0.87291400  1
  H  297  1  0.84887800  0.16093800  0.89152400  1
  H  298  1  0.83218000  0.19639100  0.90999700  1
  H  299  1  0.84816100  0.33936800  0.89185200  1
  H  300  1  0.83013700  0.30371500  0.91023500  1
  H  301  1  0.89026800  0.24975100  0.92331300  1
  H  302  1  0.87443700  0.24864400  0.94858400  1
  H  303  1  0.77372500  0.24891000  0.91262600  1
  H  304  1  0.75791900  0.24788500  0.93807200  1
  H  305  1  0.82250000  0.34565600  0.85364800  1
  H  306  1  0.81209000  0.39287000  0.85356900  1
  H  307  1  0.91621400  0.40432100  0.87544700  1
  H  308  1  0.92666600  0.35714700  0.87546800  1
  H  361  1  0.22411300  0.26091700  0.28326500  1
  H  362  1  0.26181900  0.25994200  0.30496900  1
  H  363  1  0.12643900  0.24266000  0.30786300  1
  H  364  1  0.16399400  0.24170400  0.32949600  1
  H  365  1  0.23289000  0.19744600  0.32123200  1
  H  366  1  0.25984900  0.16143600  0.33755700  1
  H  367  1  0.27196000  0.23288700  0.35822700  1
  H  368  1  0.29546400  0.26497700  0.37413400  1
  H  369  1  0.22538500  0.30472200  0.32336000  1
  H  370  1  0.25378300  0.33962300  0.34017400  1
  H  371  1  0.35163000  0.34496800  0.35596000  1
  H  372  1  0.36214600  0.39219100  0.35634800  1
  H  373  1  0.24291800  0.35625200  0.37425700  1
  H  374  1  0.25336000  0.40343900  0.37462400  1
  H  375  1  0.32460000  0.33672100  0.39180300  1
  H  376  1  0.34038200  0.30067400  0.41008600  1
  H  377  1  0.31669100  0.15846400  0.39173200  1
  H  378  1  0.33333333  0.19345600  0.41065000  1
  H  379  1  0.27562900  0.25398900  0.42283000  1
  H  380  1  0.28870200  0.25469300  0.44830600  1
  H  381  1  0.39191200  0.24142500  0.41414800  1
  H  382  1  0.40500500  0.24204700  0.43977800  1
  H  383  1  0.35036500  0.15362200  0.35507900  1
  H  384  1  0.36134600  0.10646700  0.35534200  1
  H  385  1  0.25193600  0.09419200  0.37284700  1
  H  386  1  0.24088000  0.14132100  0.37252000  1
  H  439  1  0.22366200  0.23788200  0.71627000  1
  H  440  1  0.26118000  0.23850700  0.69451600  1
  H  441  1  0.12601100  0.25640300  0.69176200  1
  H  442  1  0.16338100  0.25698500  0.67006900  1
  H  443  1  0.23206100  0.30106700  0.67793400  1
  H  444  1  0.25931000  0.33679000  0.66147200  1
  H  445  1  0.27156300  0.26496500  0.64121100  1
  H  446  1  0.29722000  0.23260900  0.62588000  1
  H  447  1  0.22421800  0.19374900  0.67635600  1
  H  448  1  0.25286600  0.15854700  0.65982700  1
  H  449  1  0.35088400  0.15270400  0.64442800  1
  H  450  1  0.36128400  0.10549000  0.64402400  1
  H  451  1  0.24269900  0.14144600  0.62564000  1
  H  452  1  0.25303400  0.09427200  0.62525000  1
  H  453  1  0.32396700  0.16038800  0.60829300  1
  H  454  1  0.34095800  0.19608000  0.58997000  1
  H  455  1  0.31923400  0.33874800  0.60774600  1
  H  456  1  0.33725200  0.30336000  0.58923000  1
  H  457  1  0.27970900  0.24822400  0.57624100  1
  H  458  1  0.29584100  0.24724600  0.55099700  1
  H  459  1  0.39613400  0.24958600  0.58710600  1
  H  460  1  0.41223500  0.24865200  0.56168500  1
  H  461  1  0.35028500  0.34423800  0.64432400  1
  H  462  1  0.36131200  0.39141300  0.64408700  1
  H  463  1  0.25244300  0.40350800  0.62609800  1
  H  464  1  0.24135400  0.35634900  0.62638600  1
  H  517  1  0.44577200  0.75877500  0.71649600  1
  H  518  1  0.40814900  0.75791900  0.69476800  1
  H  519  1  0.54414400  0.74362500  0.69170400  1
  H  520  1  0.50666800  0.74277500  0.67006300  1
  H  521  1  0.43954000  0.69679600  0.67796900  1
  H  522  1  0.41303200  0.66076000  0.66153500  1
  H  523  1  0.39779100  0.73250100  0.64150200  1
  H  524  1  0.37291500  0.76449100  0.62590200  1
  H  525  1  0.44322900  0.80418600  0.67675600  1
  H  526  1  0.41458400  0.83910400  0.66004600  1
  H  527  1  0.31688400  0.84439400  0.64241700  1
  H  528  1  0.30614700  0.89155900  0.64153800  1
  H  529  1  0.42833200  0.85598700  0.62673100  1
  H  530  1  0.41760000  0.90313600  0.62586200  1
  H  531  1  0.34808600  0.83645600  0.60760500  1
  H  532  1  0.33244000  0.80046600  0.58927900  1
  H  533  1  0.35260600  0.65807800  0.60792000  1
  H  534  1  0.33561200  0.69316700  0.58911400  1
  H  535  1  0.39497900  0.75289700  0.57684800  1
  H  536  1  0.38193500  0.75371600  0.55136800  1
  H  537  1  0.27833300  0.74187400  0.58553100  1
  H  538  1  0.26526900  0.74259300  0.55990000  1
  H  539  1  0.32289700  0.65276400  0.64604100  1
  H  540  1  0.31232700  0.60554800  0.64618200  1
  H  541  1  0.41804000  0.59386500  0.62551800  1
  H  542  1  0.42864700  0.64102600  0.62544400  1
  H  595  1  0.44612100  0.74055700  0.28331800  1
  H  596  1  0.40861400  0.74099500  0.30507300  1
  H  597  1  0.54456700  0.75572000  0.30810000  1
  H  598  1  0.50720500  0.75614100  0.32976600  1
  H  599  1  0.44018700  0.80197900  0.32218700  1
  H  600  1  0.41338700  0.83765500  0.33874100  1
  H  601  1  0.39802100  0.76553500  0.35839300  1
  H  602  1  0.37158400  0.73319900  0.37354100  1
  H  603  1  0.44404400  0.69459600  0.32285000  1
  H  604  1  0.41525400  0.65930200  0.33931700  1
  H  605  1  0.31752800  0.65323500  0.35658800  1
  H  606  1  0.30686800  0.60604400  0.35747100  1
  H  607  1  0.42849100  0.64203900  0.37281000  1
  H  608  1  0.41783300  0.59486500  0.37369100  1
  H  609  1  0.34835800  0.66077700  0.39166400  1
  H  610  1  0.33153700  0.69639400  0.41002300  1
  H  611  1  0.35025100  0.83921600  0.39192800  1
  H  612  1  0.33202500  0.80371000  0.41036700  1
  H  613  1  0.39080300  0.74952300  0.42345300  1
  H  614  1  0.37474200  0.74840200  0.44870200  1
  H  615  1  0.27434700  0.74904700  0.41261500  1
  H  616  1  0.25831100  0.74798800  0.43804200  1
  H  617  1  0.32294800  0.84502000  0.35381600  1
  H  618  1  0.31238400  0.89221500  0.35363100  1
  H  619  1  0.41728500  0.90408400  0.37488600  1
  H  620  1  0.42789500  0.85693200  0.37500900  1
  H  630  1  0.93085600  0.74998300  0.99088600  1
  H  632  1  0.80226200  0.75759500  0.00907500  1
  H  633  1  0.81249000  0.75115700  0.98395400  1
  H  638  1  0.90534800  0.74298000  0.96639000  1
  H  640  1  0.83270900  0.77629300  0.03196900  1
  H  646  1  0.73948400  0.24936100  0.00876500  1
  H  648  1  0.86800000  0.25837200  0.99065800  1
  H  649  1  0.85777900  0.25193300  0.01577800  1
  H  654  1  0.76486800  0.24314200  0.03330300  1
  H  656  1  0.83736200  0.27659700  0.96771900  1
  H  662  1  0.43074100  0.24935700  0.49088400  1
  H  664  1  0.30216600  0.25716500  0.50906700  1
  H  665  1  0.31237000  0.25052300  0.48396300  1
  H  670  1  0.40519800  0.24218400  0.46639800  1
  H  672  1  0.33258400  0.27599800  0.53191500  1
  H  678  1  0.23967700  0.74882800  0.50878200  1
  H  680  1  0.36813300  0.75811700  0.49064700  1
  H  681  1  0.35799800  0.75139200  0.51574800  1
  H  686  1  0.26516400  0.74236800  0.53329300  1
  H  688  1  0.33733500  0.77659000  0.46777300  1
  H  694  1  0.78608200  0.99051800  0.88616300  1
  H  696  1  0.88478400  0.00885200  0.85079700  1
  H  697  1  0.85445300  0.96638300  0.85094300  1
  H  702  1  0.77323200  0.94842300  0.87282300  1
  H  704  1  0.89977100  0.05017600  0.86825600  1
  H  710  1  0.78601800  0.50832000  0.11342700  1
  H  712  1  0.88422200  0.48965000  0.14891300  1
  H  713  1  0.85388200  0.53205900  0.14889400  1
  H  718  1  0.77300700  0.55019800  0.12686400  1
  H  720  1  0.89944300  0.44858900  0.13137400  1
  H  726  1  0.88491000  0.00772400  0.11439400  1
  H  728  1  0.78459600  0.99017000  0.14920600  1
  H  729  1  0.81568400  0.03237300  0.14926500  1
  H  734  1  0.89768700  0.04981100  0.12744100  1
  H  736  1  0.76962600  0.94893500  0.13138700  1
  H  742  1  0.88475800  0.49136300  0.88530900  1
  H  744  1  0.78452800  0.50816700  0.85037800  1
  H  745  1  0.81556100  0.46600900  0.85055300  1
  H  750  1  0.89746700  0.44902400  0.87250600  1
  H  752  1  0.76952100  0.54963500  0.86799700  1
  H  758  1  0.28631800  0.49015800  0.38648100  1
  H  760  1  0.38522400  0.50831100  0.35117500  1
  H  761  1  0.35483100  0.46586100  0.35133800  1
  H  766  1  0.27344700  0.44804900  0.37318400  1
  H  768  1  0.40021500  0.54966700  0.36859400  1
  H  774  1  0.28618800  0.00784000  0.61313900  1
  H  776  1  0.38460300  0.98932200  0.64855900  1
  H  777  1  0.35419500  0.03171000  0.64853700  1
  H  782  1  0.27315200  0.04971400  0.62654000  1
  H  784  1  0.39982900  0.94824400  0.63105600  1
  H  790  1  0.38548800  0.50710500  0.61481400  1
  H  792  1  0.28495300  0.48988700  0.64957300  1
  H  793  1  0.31605000  0.53208300  0.64954800  1
  H  798  1  0.39815800  0.54932600  0.62769200  1
  H  800  1  0.26995400  0.44859700  0.63193100  1
  H  806  1  0.38528900  0.99116000  0.38486700  1
  H  808  1  0.28481700  0.00758700  0.34999200  1
  H  809  1  0.31586800  0.96544000  0.35026000  1
  H  814  1  0.39789400  0.94868100  0.37223600  1
  H  816  1  0.26978400  0.04912500  0.36743000  1
  H  822  1  0.54672900  0.76943400  0.77073400  1
  H  824  1  0.61905800  0.73141100  0.73123600  1
  H  825  1  0.64739100  0.73563200  0.75437700  1
  H  830  1  0.59890900  0.76147800  0.78686500  1
  H  832  1  0.56644700  0.73481000  0.71544900  1
  H  838  1  0.54659600  0.72984200  0.22903600  1
  H  840  1  0.61928200  0.76825300  0.26836400  1
  H  841  1  0.64721500  0.76428900  0.24514300  1
  H  846  1  0.59834400  0.73837100  0.21275300  1
  H  848  1  0.56758500  0.76349200  0.28445600  1
  H  854  1  0.12334900  0.26967600  0.22892300  1
  H  856  1  0.05144800  0.23135900  0.26849100  1
  H  857  1  0.02270400  0.23591400  0.24543700  1
  H  862  1  0.07060400  0.26262200  0.21297300  1
  H  864  1  0.10535600  0.23306000  0.28386600  1
  H  870  1  0.12354800  0.23028100  0.77080400  1
  H  872  1  0.05145400  0.26808100  0.73117600  1
  H  873  1  0.02281100  0.26368600  0.75426700  1
  H  878  1  0.07085700  0.23729000  0.78676100  1
  H  880  1  0.10558900  0.26669400  0.71584400  1
  H  929  1  0.46757900  0.71430700  0.78300900  1
  H  930  1  0.50650800  0.71449900  0.80442700  1
  H  931  1  0.36981300  0.70589900  0.80908200  1
  H  932  1  0.40851200  0.70631900  0.83040400  1
  H  933  1  0.47561500  0.65731400  0.82182700  1
  H  934  1  0.50266100  0.62146300  0.83823700  1
  H  935  1  0.51910600  0.69343600  0.85789600  1
  H  936  1  0.54142400  0.72560400  0.87389300  1
  H  937  1  0.47246200  0.76465900  0.82268100  1
  H  938  1  0.50061500  0.79983300  0.83942200  1
  H  939  1  0.59711000  0.80561100  0.85608000  1
  H  940  1  0.60734400  0.85286600  0.85643400  1
  H  941  1  0.48734900  0.81675100  0.87347100  1
  H  942  1  0.49751100  0.86396800  0.87380200  1
  H  943  1  0.56807500  0.79766300  0.89174300  1
  H  944  1  0.58384800  0.76181000  0.91013700  1
  H  945  1  0.56311700  0.61932300  0.89180500  1
  H  946  1  0.57959900  0.65451200  0.91063300  1
  H  947  1  0.52052100  0.71470900  0.92277400  1
  H  948  1  0.53347400  0.71540200  0.94826000  1
  H  949  1  0.63696900  0.70275200  0.91415800  1
  H  950  1  0.64994000  0.70334800  0.93979500  1
  H  951  1  0.59512700  0.61382000  0.85501500  1
  H  952  1  0.60576500  0.56662600  0.85538300  1
  H  953  1  0.49696600  0.55496500  0.87356300  1
  H  954  1  0.48625900  0.60213800  0.87313900  1
  H  1007  1  0.46718600  0.70534300  0.21648800  1
  H  1008  1  0.50597100  0.70497800  0.19503600  1
  H  1009  1  0.36933100  0.71393000  0.19049800  1
  H  1010  1  0.40789000  0.71333000  0.16914000  1
  H  1011  1  0.47478600  0.76221200  0.17734700  1
  H  1012  1  0.50207900  0.79781900  0.16081600  1
  H  1013  1  0.51869200  0.72553700  0.14153900  1
  H  1014  1  0.54320800  0.69312400  0.12609300  1
  H  1015  1  0.47141900  0.65485300  0.17700800  1
  H  1016  1  0.49984000  0.61942400  0.16053100  1
  H  1017  1  0.59649600  0.61320100  0.14425100  1
  H  1018  1  0.60660500  0.56595500  0.14388300  1
  H  1019  1  0.48723800  0.60209500  0.12636100  1
  H  1020  1  0.49728400  0.55488700  0.12600500  1
  H  1021  1  0.56757200  0.62066400  0.10829900  1
  H  1022  1  0.58451000  0.65620800  0.08988100  1
  H  1023  1  0.56559400  0.79907700  0.10772000  1
  H  1024  1  0.58345700  0.76352500  0.08927800  1
  H  1025  1  0.52463300  0.70871800  0.07630300  1
  H  1026  1  0.54060500  0.70779200  0.05104300  1
  H  1027  1  0.64113200  0.70951600  0.08706700  1
  H  1028  1  0.65707400  0.70865000  0.06163200  1
  H  1029  1  0.59497400  0.80517200  0.14442700  1
  H  1030  1  0.60564800  0.85238700  0.14409200  1
  H  1031  1  0.49742400  0.86386200  0.12542000  1
  H  1032  1  0.48668900  0.81665800  0.12579800  1
  H  1085  1  0.69161500  0.21276200  0.21673200  1
  H  1086  1  0.65271200  0.21285400  0.19530800  1
  H  1087  1  0.78965200  0.20686800  0.19062200  1
  H  1088  1  0.75097100  0.20719900  0.16929300  1
  H  1089  1  0.68581100  0.15677200  0.17741700  1
  H  1090  1  0.65914100  0.12089200  0.16091400  1
  H  1091  1  0.63952700  0.19304300  0.14192800  1
  H  1092  1  0.61599300  0.22512100  0.12615700  1
  H  1093  1  0.68517900  0.26415300  0.17743900  1
  H  1094  1  0.65665900  0.29930000  0.16080600  1
  H  1095  1  0.56029800  0.30500300  0.14241700  1
  H  1096  1  0.54979700  0.35219500  0.14154200  1
  H  1097  1  0.67250400  0.31644800  0.12750500  1
  H  1098  1  0.66201100  0.36361400  0.12663100  1
  H  1099  1  0.59319500  0.29733700  0.10777800  1
  H  1100  1  0.57764700  0.26153900  0.08932900  1
  H  1101  1  0.59506400  0.11894000  0.10795400  1
  H  1102  1  0.57831200  0.15419400  0.08921200  1
  H  1103  1  0.63903100  0.21367400  0.07696800  1
  H  1104  1  0.62618200  0.21447600  0.05147400  1
  H  1105  1  0.52224900  0.20309000  0.08553300  1
  H  1106  1  0.50938300  0.20377800  0.05989000  1
  H  1107  1  0.56697900  0.11311100  0.14619600  1
  H  1108  1  0.55658000  0.06587600  0.14623700  1
  H  1109  1  0.66151200  0.05461000  0.12492700  1
  H  1110  1  0.67195000  0.10179300  0.12495000  1
  H  1163  1  0.69190100  0.20711600  0.78311100  1
  H  1164  1  0.65316700  0.20682100  0.80457800  1
  H  1165  1  0.79009800  0.21350300  0.80911200  1
  H  1166  1  0.75158100  0.21296300  0.83048600  1
  H  1167  1  0.68651600  0.26306800  0.82273000  1
  H  1168  1  0.65956600  0.29861300  0.83934300  1
  H  1169  1  0.63987300  0.22611300  0.85796900  1
  H  1170  1  0.61459300  0.19370600  0.87327400  1
  H  1171  1  0.68598700  0.15570200  0.82217900  1
  H  1172  1  0.65726400  0.12021100  0.83857200  1
  H  1173  1  0.56086100  0.11378100  0.85662400  1
  H  1174  1  0.55043100  0.06656200  0.85749600  1
  H  1175  1  0.67263900  0.10270300  0.87203600  1
  H  1176  1  0.66221000  0.05551400  0.87291400  1
  H  1177  1  0.59349800  0.12107900  0.89152400  1
  H  1178  1  0.57680000  0.15653200  0.90999700  1
  H  1179  1  0.59278100  0.29950900  0.89185200  1
  H  1180  1  0.57475700  0.26385600  0.91023500  1
  H  1181  1  0.63488800  0.20989200  0.92331300  1
  H  1182  1  0.61905700  0.20878500  0.94858400  1
  H  1183  1  0.51834500  0.20905100  0.91262600  1
  H  1184  1  0.50253900  0.20802600  0.93807200  1
  H  1185  1  0.56712000  0.30579700  0.85364800  1
  H  1186  1  0.55671000  0.35301100  0.85356900  1
  H  1187  1  0.66083400  0.36446200  0.87544700  1
  H  1188  1  0.67128600  0.31728800  0.87546800  1
  H  1241  1  0.96873300  0.22105800  0.28326500  1
  H  1242  1  0.00643900  0.22008300  0.30496900  1
  H  1243  1  0.87105900  0.20280100  0.30786300  1
  H  1244  1  0.90861400  0.20184500  0.32949600  1
  H  1245  1  0.97751000  0.15758700  0.32123200  1
  H  1246  1  0.00446900  0.12157700  0.33755700  1
  H  1247  1  0.01658000  0.19302800  0.35822700  1
  H  1248  1  0.04008400  0.22511800  0.37413400  1
  H  1249  1  0.97000500  0.26486300  0.32336000  1
  H  1250  1  0.99840299  0.29976400  0.34017400  1
  H  1251  1  0.09625000  0.30510900  0.35596000  1
  H  1252  1  0.10676600  0.35233200  0.35634800  1
  H  1253  1  0.98753800  0.31639300  0.37425700  1
  H  1254  1  0.99797999  0.36358000  0.37462400  1
  H  1255  1  0.06922000  0.29686200  0.39180300  1
  H  1256  1  0.08500200  0.26081500  0.41008600  1
  H  1257  1  0.06131100  0.11860500  0.39173200  1
  H  1258  1  0.07798800  0.15359700  0.41065000  1
  H  1259  1  0.02024900  0.21413000  0.42283000  1
  H  1260  1  0.03332200  0.21483400  0.44830600  1
  H  1261  1  0.13653200  0.20156600  0.41414800  1
  H  1262  1  0.14962500  0.20218800  0.43977800  1
  H  1263  1  0.09498500  0.11376300  0.35507900  1
  H  1264  1  0.10596600  0.06660800  0.35534200  1
  H  1265  1  0.99655599  0.05433300  0.37284700  1
  H  1266  1  0.98550000  0.10146200  0.37252000  1
  H  1319  1  0.96828200  0.19802300  0.71627000  1
  H  1320  1  0.00580000  0.19864800  0.69451600  1
  H  1321  1  0.87063100  0.21654400  0.69176200  1
  H  1322  1  0.90800100  0.21712600  0.67006900  1
  H  1323  1  0.97668100  0.26120800  0.67793400  1
  H  1324  1  0.00393000  0.29693100  0.66147200  1
  H  1325  1  0.01618300  0.22510600  0.64121100  1
  H  1326  1  0.04184000  0.19275000  0.62588000  1
  H  1327  1  0.96883800  0.15389000  0.67635600  1
  H  1328  1  0.99748599  0.11868800  0.65982700  1
  H  1329  1  0.09550400  0.11284500  0.64442800  1
  H  1330  1  0.10590400  0.06563100  0.64402400  1
  H  1331  1  0.98731900  0.10158700  0.62564000  1
  H  1332  1  0.99765399  0.05441300  0.62525000  1
  H  1333  1  0.06858700  0.12052900  0.60829300  1
  H  1334  1  0.08557800  0.15622100  0.58997000  1
  H  1335  1  0.06385400  0.29888900  0.60774600  1
  H  1336  1  0.08187200  0.26350100  0.58923000  1
  H  1337  1  0.02432900  0.20836500  0.57624100  1
  H  1338  1  0.04046100  0.20738700  0.55099700  1
  H  1339  1  0.14075400  0.20972700  0.58710600  1
  H  1340  1  0.15685500  0.20879300  0.56168500  1
  H  1341  1  0.09490500  0.30437900  0.64432400  1
  H  1342  1  0.10593200  0.35155400  0.64408700  1
  H  1343  1  0.99706299  0.36364900  0.62609800  1
  H  1344  1  0.98597400  0.31649000  0.62638600  1
  H  1397  1  0.19039200  0.71891600  0.71649600  1
  H  1398  1  0.15276900  0.71806000  0.69476800  1
  H  1399  1  0.28876400  0.70376600  0.69170400  1
  H  1400  1  0.25128800  0.70291600  0.67006300  1
  H  1401  1  0.18416000  0.65693700  0.67796900  1
  H  1402  1  0.15765200  0.62090100  0.66153500  1
  H  1403  1  0.14241100  0.69264200  0.64150200  1
  H  1404  1  0.11753500  0.72463200  0.62590200  1
  H  1405  1  0.18784900  0.76432700  0.67675600  1
  H  1406  1  0.15920400  0.79924500  0.66004600  1
  H  1407  1  0.06150400  0.80453500  0.64241700  1
  H  1408  1  0.05076700  0.85170000  0.64153800  1
  H  1409  1  0.17295200  0.81612800  0.62673100  1
  H  1410  1  0.16222000  0.86327700  0.62586200  1
  H  1411  1  0.09270600  0.79659700  0.60760500  1
  H  1412  1  0.07706000  0.76060700  0.58927900  1
  H  1413  1  0.09722600  0.61821900  0.60792000  1
  H  1414  1  0.08023200  0.65330800  0.58911400  1
  H  1415  1  0.13959900  0.71303800  0.57684800  1
  H  1416  1  0.12655500  0.71385700  0.55136800  1
  H  1417  1  0.02295300  0.70201500  0.58553100  1
  H  1418  1  0.00988900  0.70273400  0.55990000  1
  H  1419  1  0.06751700  0.61290500  0.64604100  1
  H  1420  1  0.05694700  0.56568900  0.64618200  1
  H  1421  1  0.16266000  0.55400600  0.62551800  1
  H  1422  1  0.17326700  0.60116700  0.62544400  1
  H  1475  1  0.19074100  0.70069800  0.28331800  1
  H  1476  1  0.15323400  0.70113600  0.30507300  1
  H  1477  1  0.28918700  0.71586100  0.30810000  1
  H  1478  1  0.25182500  0.71628200  0.32976600  1
  H  1479  1  0.18480700  0.76212000  0.32218700  1
  H  1480  1  0.15800700  0.79779600  0.33874100  1
  H  1481  1  0.14264100  0.72567600  0.35839300  1
  H  1482  1  0.11620400  0.69334000  0.37354100  1
  H  1483  1  0.18866400  0.65473700  0.32285000  1
  H  1484  1  0.15987400  0.61944300  0.33931700  1
  H  1485  1  0.06214800  0.61337600  0.35658800  1
  H  1486  1  0.05148800  0.56618500  0.35747100  1
  H  1487  1  0.17311100  0.60218000  0.37281000  1
  H  1488  1  0.16245300  0.55500600  0.37369100  1
  H  1489  1  0.09297800  0.62091800  0.39166400  1
  H  1490  1  0.07615700  0.65653500  0.41002300  1
  H  1491  1  0.09487100  0.79935700  0.39192800  1
  H  1492  1  0.07664500  0.76385100  0.41036700  1
  H  1493  1  0.13542300  0.70966400  0.42345300  1
  H  1494  1  0.11936200  0.70854300  0.44870200  1
  H  1495  1  0.01896700  0.70918800  0.41261500  1
  H  1496  1  0.00293100  0.70812900  0.43804200  1
  H  1497  1  0.06756800  0.80516100  0.35381600  1
  H  1498  1  0.05700400  0.85235600  0.35363100  1
  H  1499  1  0.16190500  0.86422500  0.37488600  1
  H  1500  1  0.17251500  0.81707300  0.37500900  1
  H  1510  1  0.67547600  0.71012400  0.99088600  1
  H  1512  1  0.54688200  0.71773600  0.00907500  1
  H  1513  1  0.55711000  0.71129800  0.98395400  1
  H  1518  1  0.64996800  0.70312100  0.96639000  1
  H  1520  1  0.57732900  0.73643400  0.03196900  1
  H  1526  1  0.48410400  0.20950200  0.00876500  1
  H  1528  1  0.61262000  0.21851300  0.99065800  1
  H  1529  1  0.60239900  0.21207400  0.01577800  1
  H  1534  1  0.50948800  0.20328300  0.03330300  1
  H  1536  1  0.58198200  0.23673800  0.96771900  1
  H  1542  1  0.17536100  0.20949800  0.49088400  1
  H  1544  1  0.04678600  0.21730600  0.50906700  1
  H  1545  1  0.05699000  0.21066400  0.48396300  1
  H  1550  1  0.14981800  0.20232500  0.46639800  1
  H  1552  1  0.07720400  0.23613900  0.53191500  1
  H  1558  1  0.98429700  0.70896900  0.50878200  1
  H  1560  1  0.11275300  0.71825800  0.49064700  1
  H  1561  1  0.10261800  0.71153300  0.51574800  1
  H  1566  1  0.00978400  0.70250900  0.53329300  1
  H  1568  1  0.08195500  0.73673100  0.46777300  1
  H  1574  1  0.53070200  0.95065870  0.88616300  1
  H  1576  1  0.62940400  0.96899270  0.85079700  1
  H  1577  1  0.59907300  0.92652370  0.85094300  1
  H  1582  1  0.51785200  0.90856370  0.87282300  1
  H  1584  1  0.64439100  0.01031700  0.86825600  1
  H  1590  1  0.53063800  0.46846100  0.11342700  1
  H  1592  1  0.62884200  0.44979100  0.14891300  1
  H  1593  1  0.59850200  0.49220000  0.14889400  1
  H  1598  1  0.51762700  0.51033900  0.12686400  1
  H  1600  1  0.64406300  0.40873000  0.13137400  1
  H  1606  1  0.62953000  0.96786470  0.11439400  1
  H  1608  1  0.52921600  0.95031070  0.14920600  1
  H  1609  1  0.56030400  0.99251370  0.14926500  1
  H  1614  1  0.64230700  0.00995200  0.12744100  1
  H  1616  1  0.51424600  0.90907570  0.13138700  1
  H  1622  1  0.62937800  0.45150400  0.88530900  1
  H  1624  1  0.52914800  0.46830800  0.85037800  1
  H  1625  1  0.56018100  0.42615000  0.85055300  1
  H  1630  1  0.64208700  0.40916500  0.87250600  1
  H  1632  1  0.51414100  0.50977600  0.86799700  1
  H  1638  1  0.03093800  0.45029900  0.38648100  1
  H  1640  1  0.12984400  0.46845200  0.35117500  1
  H  1641  1  0.09945100  0.42600200  0.35133800  1
  H  1646  1  0.01806700  0.40819000  0.37318400  1
  H  1648  1  0.14483500  0.50980800  0.36859400  1
  H  1654  1  0.03080800  0.96798070  0.61313900  1
  H  1656  1  0.12922300  0.94946270  0.64855900  1
  H  1657  1  0.09881500  0.99185070  0.64853700  1
  H  1662  1  0.01777200  0.00985500  0.62654000  1
  H  1664  1  0.14444900  0.90838470  0.63105600  1
  H  1670  1  0.13010800  0.46724600  0.61481400  1
  H  1672  1  0.02957300  0.45002800  0.64957300  1
  H  1673  1  0.06067000  0.49222400  0.64954800  1
  H  1678  1  0.14277800  0.50946700  0.62769200  1
  H  1680  1  0.01457400  0.40873800  0.63193100  1
  H  1686  1  0.12990900  0.95130070  0.38486700  1
  H  1688  1  0.02943700  0.96772770  0.34999200  1
  H  1689  1  0.06048800  0.92558070  0.35026000  1
  H  1694  1  0.14251400  0.90882170  0.37223600  1
  H  1696  1  0.01440400  0.00926600  0.36743000  1
  H  1702  1  0.29134900  0.72957500  0.77073400  1
  H  1704  1  0.36367800  0.69155200  0.73123600  1
  H  1705  1  0.39201100  0.69577300  0.75437700  1
  H  1710  1  0.34352900  0.72161900  0.78686500  1
  H  1712  1  0.31106700  0.69495100  0.71544900  1
  H  1718  1  0.29121600  0.68998300  0.22903600  1
  H  1720  1  0.36390200  0.72839400  0.26836400  1
  H  1721  1  0.39183500  0.72443000  0.24514300  1
  H  1726  1  0.34296400  0.69851200  0.21275300  1
  H  1728  1  0.31220500  0.72363300  0.28445600  1
  H  1734  1  0.86796900  0.22981700  0.22892300  1
  H  1736  1  0.79606800  0.19150000  0.26849100  1
  H  1737  1  0.76732400  0.19605500  0.24543700  1
  H  1742  1  0.81522400  0.22276300  0.21297300  1
  H  1744  1  0.84997600  0.19320100  0.28386600  1
  H  1750  1  0.86816800  0.19042200  0.77080400  1
  H  1752  1  0.79607400  0.22822200  0.73117600  1
  H  1753  1  0.76743100  0.22382700  0.75426700  1
  H  1758  1  0.81547700  0.19743100  0.78676100  1
  H  1760  1  0.85020900  0.22683500  0.71584400  1
  C  1  1  0.74359400  0.70075400  0.83162300  1
  C  2  1  0.75870500  0.68126500  0.84048100  1
  C  3  1  0.77358200  0.69358900  0.85283800  1
  C  5  1  0.74963400  0.72547000  0.83822100  1
  C  6  1  0.73903600  0.75049800  0.83221600  1
  C  7  1  0.74903100  0.77557300  0.83824300  1
  C  9  1  0.77353600  0.80652100  0.85303500  1
  C  10  1  0.75726700  0.81960800  0.84119700  1
  C  11  1  0.74151800  0.80054600  0.83221200  1
  C  12  1  0.79162100  0.81875400  0.86507800  1
  C  13  1  0.80512000  0.80522000  0.87761900  1
  C  15  1  0.81918900  0.77334900  0.89399600  1
  C  16  1  0.82804700  0.79807200  0.90009300  1
  C  17  1  0.81994000  0.81755800  0.88999100  1
  C  18  1  0.82420500  0.74836600  0.90102200  1
  C  19  1  0.81828500  0.72329700  0.89428000  1
  C  21  1  0.80344700  0.69235300  0.87773800  1
  C  22  1  0.81655100  0.67927300  0.89015300  1
  C  23  1  0.82489800  0.69834300  0.90046800  1
  C  24  1  0.79035100  0.68008600  0.86478700  1
  C  25  1  0.79479800  0.65201500  0.86376600  1
  C  26  1  0.76644100  0.63459600  0.86900600  1
  C  27  1  0.77272900  0.60691800  0.86920900  1
  C  28  1  0.80743200  0.59620800  0.86415900  1
  C  29  1  0.83550900  0.61370200  0.85882400  1
  C  30  1  0.82929200  0.64135800  0.85858700  1
  C  31  1  0.83295000  0.74849000  0.91612100  1
  C  32  1  0.80329100  0.75212000  0.92622900  1
  C  33  1  0.81092100  0.75251300  0.94118800  1
  C  34  1  0.84822900  0.74919900  0.94641700  1
  C  35  1  0.87799100  0.74552600  0.93631600  1
  C  36  1  0.87041600  0.74520200  0.92129300  1
  C  37  1  0.79652100  0.84684500  0.86459300  1
  C  38  1  0.83117800  0.85767000  0.85964900  1
  C  39  1  0.83715500  0.88536400  0.85988700  1
  C  40  1  0.80874500  0.90273900  0.86503700  1
  C  41  1  0.77391800  0.89183100  0.86988300  1
  C  42  1  0.76787000  0.86411600  0.86968400  1
  C  43  1  0.71643900  0.75049700  0.81938500  1
  C  44  1  0.73307200  0.75272700  0.80549400  1
  C  45  1  0.67661000  0.74805500  0.82047000  1
  C  46  1  0.65385500  0.74801200  0.80792600  1
  C  47  1  0.67033600  0.75054500  0.79398700  1
  C  48  1  0.71021200  0.75260400  0.79295300  1
  C  79  1  0.74285300  0.79834300  0.16758600  1
  C  80  1  0.75811000  0.81770200  0.15866500  1
  C  81  1  0.77316600  0.80519200  0.14640400  1
  C  83  1  0.74898100  0.77352400  0.16112800  1
  C  84  1  0.73838800  0.74858200  0.16726600  1
  C  85  1  0.74851300  0.72342200  0.16139900  1
  C  87  1  0.77327200  0.69224100  0.14684200  1
  C  88  1  0.75671800  0.67934200  0.15869300  1
  C  89  1  0.74088400  0.69854700  0.16754400  1
  C  90  1  0.79149900  0.67979200  0.13490800  1
  C  91  1  0.80545100  0.69311000  0.12236400  1
  C  93  1  0.82063100  0.72472400  0.10597200  1
  C  94  1  0.82885800  0.69986800  0.09992300  1
  C  95  1  0.82009900  0.68053600  0.11004000  1
  C  96  1  0.82645300  0.74961600  0.09893500  1
  C  97  1  0.82007000  0.77478700  0.10548800  1
  C  99  1  0.80413000  0.80602800  0.12169400  1
  C  100  1  0.81832000  0.81888200  0.10937700  1
  C  101  1  0.82756900  0.79962400  0.09928800  1
  C  102  1  0.79038300  0.81851300  0.13447600  1
  C  103  1  0.79494200  0.84659800  0.13540500  1
  C  104  1  0.76676500  0.86396200  0.13002300  1
  C  105  1  0.77308600  0.89165100  0.12983200  1
  C  106  1  0.80760700  0.90242400  0.13506000  1
  C  107  1  0.83553300  0.88497700  0.14050600  1
  C  108  1  0.82928200  0.85731300  0.14073500  1
  C  109  1  0.83682500  0.74935400  0.08399400  1
  C  110  1  0.80801900  0.74881000  0.07334800  1
  C  111  1  0.81738700  0.74838600  0.05853100  1
  C  112  1  0.85573300  0.74874000  0.05400600  1
  C  113  1  0.88451600  0.74868100  0.06465400  1
  C  114  1  0.87519700  0.74922400  0.07952900  1
  C  115  1  0.79613800  0.65169700  0.13551400  1
  C  116  1  0.83060400  0.64086300  0.14060400  1
  C  117  1  0.83651100  0.61317500  0.14035600  1
  C  118  1  0.80823800  0.59581600  0.13503100  1
  C  119  1  0.77356800  0.60672700  0.13006700  1
  C  120  1  0.76757800  0.63443600  0.13028700  1
  C  121  1  0.71584700  0.74876500  0.18011400  1
  C  122  1  0.73254400  0.74655400  0.19399400  1
  C  123  1  0.67603600  0.75132900  0.17906500  1
  C  124  1  0.65336400  0.75148000  0.19163100  1
  C  125  1  0.66990200  0.74892600  0.20555800  1
  C  126  1  0.70976900  0.74677600  0.20655500  1
  C  157  1  0.92807000  0.20024600  0.16772900  1
  C  158  1  0.91307500  0.18073300  0.15884000  1
  C  159  1  0.89736800  0.19310100  0.14665700  1
  C  161  1  0.92106200  0.22501400  0.16134400  1
  C  162  1  0.93107200  0.25006700  0.16749500  1
  C  163  1  0.92053000  0.27512300  0.16160400  1
  C  165  1  0.89570800  0.30605900  0.14690400  1
  C  166  1  0.91128400  0.31910100  0.15890100  1
  C  167  1  0.92719600  0.30005900  0.16783700  1
  C  168  1  0.87790300  0.31831300  0.13481700  1
  C  169  1  0.86497300  0.30480700  0.12216900  1
  C  171  1  0.85118200  0.27296500  0.10572100  1
  C  172  1  0.84337000  0.29773800  0.09949400  1
  C  173  1  0.85130700  0.31720900  0.10963000  1
  C  174  1  0.84584700  0.24799200  0.09870400  1
  C  175  1  0.85160000  0.22290400  0.10543200  1
  C  177  1  0.86681900  0.19189700  0.12187700  1
  C  178  1  0.85300500  0.17887300  0.10954900  1
  C  179  1  0.84431400  0.19797900  0.09930400  1
  C  180  1  0.88035800  0.17959900  0.13474400  1
  C  181  1  0.87603900  0.15150400  0.13575300  1
  C  182  1  0.90334800  0.13417700  0.12972400  1
  C  183  1  0.89714600  0.10647500  0.12971900  1
  C  184  1  0.86357700  0.09562600  0.13575700  1
  C  185  1  0.83668300  0.11304200  0.14195100  1
  C  186  1  0.84277400  0.14072800  0.14196200  1
  C  187  1  0.83718900  0.24810800  0.08359700  1
  C  188  1  0.86697600  0.25137000  0.07350000  1
  C  189  1  0.85940500  0.25183100  0.05853700  1
  C  190  1  0.82203200  0.24893300  0.05329000  1
  C  191  1  0.79214400  0.24562100  0.06338000  1
  C  192  1  0.79965700  0.24524900  0.07840800  1
  C  193  1  0.87295800  0.34640000  0.13529300  1
  C  194  1  0.83749400  0.35712500  0.13935300  1
  C  195  1  0.83136100  0.38477800  0.13881700  1
  C  196  1  0.86048900  0.40221300  0.13431100  1
  C  197  1  0.89607100  0.39142600  0.13031300  1
  C  198  1  0.90224300  0.36374700  0.13077800  1
  C  199  1  0.95366500  0.25012600  0.18033000  1
  C  200  1  0.93695500  0.25164300  0.19423600  1
  C  201  1  0.99356500  0.24843300  0.17923800  1
  C  202  1  0.01629900  0.24842600  0.19178700  1
  C  203  1  0.99973700  0.25029200  0.20574300  1
  C  204  1  0.95980000  0.25158200  0.20678100  1
  C  235  1  0.92886500  0.29913200  0.83241900  1
  C  236  1  0.91367400  0.31846000  0.84135900  1
  C  237  1  0.89772500  0.30586000  0.85343300  1
  C  239  1  0.92171500  0.27424100  0.83865200  1
  C  240  1  0.93169300  0.24931600  0.83236500  1
  C  241  1  0.92105600  0.22414100  0.83811000  1
  C  243  1  0.89605200  0.19289900  0.85259800  1
  C  244  1  0.91183000  0.18009400  0.84057300  1
  C  245  1  0.92783200  0.19932500  0.83176400  1
  C  246  1  0.87807500  0.18038200  0.86457600  1
  C  247  1  0.86473000  0.19363500  0.87723000  1
  C  249  1  0.84980200  0.22517800  0.89368100  1
  C  250  1  0.84251000  0.20026500  0.89985200  1
  C  251  1  0.85107400  0.18097300  0.88970200  1
  C  252  1  0.84370500  0.25003700  0.90070600  1
  C  253  1  0.84983000  0.27523900  0.89414300  1
  C  255  1  0.86600200  0.30657000  0.87800500  1
  C  256  1  0.85111100  0.31933300  0.89022000  1
  C  257  1  0.84173200  0.30002700  0.90027400  1
  C  258  1  0.88021100  0.31912300  0.86531000  1
  C  259  1  0.87578400  0.34720900  0.86438500  1
  C  260  1  0.90284100  0.36458300  0.87058100  1
  C  261  1  0.89664800  0.39227600  0.87055200  1
  C  262  1  0.86333700  0.40306900  0.86431200  1
  C  263  1  0.83664100  0.38560400  0.85799500  1
  C  264  1  0.84274300  0.35793100  0.85800400  1
  C  265  1  0.83341500  0.24974200  0.91565800  1
  C  266  1  0.86227500  0.24961300  0.92628700  1
  C  267  1  0.85298500  0.24907700  0.94111000  1
  C  268  1  0.81465700  0.24890200  0.94566200  1
  C  269  1  0.78583600  0.24842900  0.93503100  1
  C  270  1  0.79507400  0.24907500  0.92015000  1
  C  271  1  0.87332800  0.15227900  0.86397800  1
  C  272  1  0.83801600  0.14144300  0.85976200  1
  C  273  1  0.83191100  0.11377900  0.86031100  1
  C  274  1  0.86092300  0.09644700  0.86498000  1
  C  275  1  0.89638500  0.10733900  0.86909700  1
  C  276  1  0.90253500  0.13503100  0.86861600  1
  C  277  1  0.95421000  0.24951000  0.81950900  1
  C  278  1  0.93740800  0.24792900  0.80562000  1
  C  279  1  0.99410600  0.25142400  0.82055500  1
  C  280  1  0.01674500  0.25154000  0.80797900  1
  C  281  1  0.00008800  0.24958900  0.79404100  1
  C  282  1  0.96015300  0.24810900  0.79304800  1
  C  313  1  0.24456900  0.20085800  0.33121000  1
  C  314  1  0.25963100  0.18129100  0.34002800  1
  C  315  1  0.27325700  0.19339500  0.35265600  1
  C  317  1  0.24928800  0.22541800  0.33813100  1
  C  318  1  0.23830400  0.25047900  0.33226200  1
  C  319  1  0.24793700  0.27547800  0.33848200  1
  C  321  1  0.27256700  0.30623200  0.35337600  1
  C  322  1  0.25552500  0.31950600  0.34176300  1
  C  323  1  0.23966900  0.30056400  0.33273600  1
  C  324  1  0.29111400  0.31832300  0.36535800  1
  C  325  1  0.30507700  0.30462600  0.37777000  1
  C  327  1  0.31916900  0.27259200  0.39404200  1
  C  328  1  0.32880800  0.29721000  0.40009500  1
  C  329  1  0.32068400  0.31679300  0.39005100  1
  C  330  1  0.32376800  0.24755800  0.40105300  1
  C  331  1  0.31740400  0.22256500  0.39428900  1
  C  333  1  0.30238700  0.19180600  0.37767200  1
  C  334  1  0.31501400  0.17857600  0.39011100  1
  C  335  1  0.32347300  0.19753900  0.40047200  1
  C  336  1  0.28964100  0.17970600  0.36462400  1
  C  337  1  0.29432000  0.15165800  0.36349000  1
  C  338  1  0.26589300  0.13406600  0.36849900  1
  C  339  1  0.27239400  0.10640500  0.36865000  1
  C  340  1  0.30737800  0.09587700  0.36377200  1
  C  341  1  0.33551600  0.11354400  0.35865300  1
  C  342  1  0.32909700  0.14118300  0.35847800  1
  C  343  1  0.33257900  0.24759000  0.41614500  1
  C  344  1  0.30300300  0.25139600  0.42626900  1
  C  345  1  0.31070400  0.25179900  0.44122200  1
  C  346  1  0.34800700  0.24833600  0.44643100  1
  C  347  1  0.37768200  0.24447300  0.43631500  1
  C  348  1  0.37003500  0.24412700  0.42129600  1
  C  349  1  0.29614500  0.34641400  0.36492100  1
  C  350  1  0.33058400  0.35719400  0.35973000  1
  C  351  1  0.33673000  0.38487200  0.35998800  1
  C  352  1  0.30869800  0.40228700  0.36539400  1
  C  353  1  0.27409400  0.39142300  0.37049900  1
  C  354  1  0.26788500  0.36372300  0.37028800  1
  C  355  1  0.21643500  0.25057700  0.31922900  1
  C  356  1  0.23334700  0.25609300  0.30565800  1
  C  357  1  0.17701300  0.24550800  0.31978400  1
  C  358  1  0.15497900  0.24595700  0.30704900  1
  C  359  1  0.17183700  0.25145100  0.29343600  1
  C  360  1  0.21119100  0.25668900  0.29294500  1
  C  391  1  0.24382600  0.29747900  0.66799200  1
  C  392  1  0.25904900  0.31689200  0.65909800  1
  C  393  1  0.27286000  0.30456800  0.64657200  1
  C  395  1  0.24861000  0.27279400  0.66122000  1
  C  396  1  0.23759500  0.24783000  0.66723200  1
  C  397  1  0.24732200  0.22272600  0.66117800  1
  C  399  1  0.27219000  0.19170000  0.64653800  1
  C  400  1  0.25484700  0.17863800  0.65816800  1
  C  401  1  0.23890500  0.19774600  0.66704800  1
  C  402  1  0.29088100  0.17936300  0.63467400  1
  C  403  1  0.30531000  0.19281300  0.62225200  1
  C  405  1  0.32054200  0.22455900  0.60594500  1
  C  406  1  0.32951400  0.19978200  0.59995500  1
  C  407  1  0.32072900  0.18037500  0.61002400  1
  C  408  1  0.32599300  0.24949200  0.59891400  1
  C  409  1  0.31919700  0.27460500  0.60547300  1
  C  411  1  0.30312500  0.30569600  0.62174400  1
  C  412  1  0.31685300  0.31867500  0.60938900  1
  C  413  1  0.32618000  0.29950300  0.59926200  1
  C  414  1  0.28971800  0.31804400  0.63461700  1
  C  415  1  0.29452200  0.34610800  0.63564400  1
  C  416  1  0.26627100  0.36364800  0.63049400  1
  C  417  1  0.27280900  0.39131600  0.63035100  1
  C  418  1  0.30762300  0.40190900  0.63540400  1
  C  419  1  0.33561500  0.38428500  0.64063000  1
  C  420  1  0.32915700  0.35664000  0.64080300  1
  C  421  1  0.33646600  0.24930400  0.58398100  1
  C  422  1  0.30773000  0.24858600  0.57331100  1
  C  423  1  0.31719100  0.24812600  0.55850300  1
  C  424  1  0.35556000  0.24860400  0.55401000  1
  C  425  1  0.38427900  0.24873800  0.56468300  1
  C  426  1  0.37486400  0.24932700  0.57954900  1
  C  427  1  0.29563700  0.15126600  0.63524800  1
  C  428  1  0.32988000  0.14048000  0.64058500  1
  C  429  1  0.33596100  0.11280700  0.64031600  1
  C  430  1  0.30807900  0.09540700  0.63473700  1
  C  431  1  0.27363400  0.10627300  0.62951800  1
  C  432  1  0.26747700  0.13396500  0.62975000  1
  C  433  1  0.21579600  0.24795400  0.68028600  1
  C  434  1  0.23275600  0.24249200  0.69385500  1
  C  435  1  0.17643700  0.25320900  0.67977400  1
  C  436  1  0.15451400  0.25298500  0.69254200  1
  C  437  1  0.17143100  0.24753600  0.70614500  1
  C  438  1  0.21071200  0.24210200  0.70659700  1
  C  469  1  0.42736200  0.70026800  0.66808600  1
  C  470  1  0.41247000  0.68068000  0.65922500  1
  C  471  1  0.39802400  0.69285700  0.64676000  1
  C  473  1  0.42167200  0.72491200  0.66137200  1
  C  474  1  0.43204900  0.75000700  0.66738700  1
  C  475  1  0.42192200  0.77501100  0.66131200  1
  C  477  1  0.39707100  0.80578800  0.64651200  1
  C  478  1  0.41336700  0.81900600  0.65830900  1
  C  479  1  0.42932500  0.80006200  0.66729000  1
  C  480  1  0.37886800  0.81791400  0.63447300  1
  C  481  1  0.36548000  0.80425000  0.62194800  1
  C  483  1  0.35160200  0.77224200  0.60561100  1
  C  484  1  0.34313700  0.79692700  0.59940300  1
  C  485  1  0.35112800  0.81649600  0.60947500  1
  C  486  1  0.34659900  0.74721000  0.59862500  1
  C  487  1  0.35276500  0.72218200  0.60536600  1
  C  489  1  0.36819600  0.69133300  0.62186300  1
  C  490  1  0.35485400  0.67817300  0.60950400  1
  C  491  1  0.34602000  0.69719200  0.59922800  1
  C  492  1  0.38143600  0.67918000  0.63481600  1
  C  493  1  0.37697500  0.65109900  0.63591500  1
  C  494  1  0.40445100  0.63364800  0.63010600  1
  C  495  1  0.39813800  0.60595600  0.63014800  1
  C  496  1  0.36429100  0.59522300  0.63602300  1
  C  497  1  0.33724400  0.61276200  0.64201300  1
  C  498  1  0.34343200  0.64044000  0.64196600  1
  C  499  1  0.33784200  0.74723400  0.58352900  1
  C  500  1  0.36753700  0.75062300  0.57340500  1
  C  501  1  0.35985300  0.75109700  0.55845300  1
  C  502  1  0.32245700  0.74809900  0.55324700  1
  C  503  1  0.29266300  0.74464300  0.56336300  1
  C  504  1  0.30029300  0.74424600  0.57838100  1
  C  505  1  0.37382000  0.84600200  0.63490100  1
  C  506  1  0.33850400  0.85668300  0.63918300  1
  C  507  1  0.33222700  0.88432100  0.63864600  1
  C  508  1  0.36107900  0.90179900  0.63393200  1
  C  509  1  0.39650900  0.89105900  0.62970400  1
  C  510  1  0.40281100  0.86339100  0.63016000  1
  C  511  1  0.45390400  0.75012700  0.68041900  1
  C  512  1  0.43676200  0.75471900  0.69404600  1
  C  513  1  0.49350500  0.74592400  0.67981300  1
  C  514  1  0.51549900  0.74631900  0.69255800  1
  C  515  1  0.49841400  0.75085100  0.70623300  1
  C  516  1  0.45887000  0.75523100  0.70677200  1
  C  547  1  0.42806500  0.79831500  0.33206100  1
  C  548  1  0.41297000  0.81770700  0.34098100  1
  C  549  1  0.39827100  0.80527600  0.35333600  1
  C  551  1  0.42222600  0.77353900  0.33861900  1
  C  552  1  0.43260500  0.74857500  0.33246900  1
  C  553  1  0.42242400  0.72344000  0.33839400  1
  C  555  1  0.39743400  0.69232900  0.35297900  1
  C  556  1  0.41395400  0.67936600  0.34115500  1
  C  557  1  0.42997200  0.69851700  0.33230200  1
  C  558  1  0.37906900  0.67992500  0.36490500  1
  C  559  1  0.36524800  0.69331900  0.37743900  1
  C  561  1  0.35020300  0.72501000  0.39378800  1
  C  562  1  0.34223800  0.70016800  0.39992400  1
  C  563  1  0.35086700  0.68079000  0.38983100  1
  C  564  1  0.34443700  0.74992700  0.40079100  1
  C  565  1  0.35096900  0.77507800  0.39422700  1
  C  567  1  0.36731600  0.80627400  0.37804000  1
  C  568  1  0.35290400  0.81916000  0.39030100  1
  C  569  1  0.34340400  0.79992900  0.40038000  1
  C  570  1  0.38120000  0.81869600  0.36525600  1
  C  571  1  0.37662900  0.84677300  0.36424900  1
  C  572  1  0.40385800  0.86426800  0.37023200  1
  C  573  1  0.39756200  0.89195300  0.37015000  1
  C  574  1  0.36397600  0.90262900  0.36406500  1
  C  575  1  0.33712200  0.88504200  0.35794800  1
  C  576  1  0.34331300  0.85737600  0.35801900  1
  C  577  1  0.33401200  0.74971200  0.41572700  1
  C  578  1  0.36278500  0.74947500  0.42639000  1
  C  579  1  0.35336100  0.74892600  0.44120100  1
  C  580  1  0.31499200  0.74883300  0.44570000  1
  C  581  1  0.28625600  0.74848200  0.43503600  1
  C  582  1  0.29562800  0.74915200  0.42016800  1
  C  583  1  0.37424300  0.65181600  0.36434900  1
  C  584  1  0.33910000  0.64101800  0.35990300  1
  C  585  1  0.33285700  0.61336800  0.36045800  1
  C  586  1  0.36157600  0.59600200  0.36534800  1
  C  587  1  0.39686900  0.60685600  0.36970400  1
  C  588  1  0.40314600  0.63453600  0.36922700  1
  C  589  1  0.45441800  0.74873000  0.31942400  1
  C  590  1  0.43722200  0.74428200  0.30578900  1
  C  591  1  0.49400400  0.75306700  0.32001500  1
  C  592  1  0.51593300  0.75293000  0.30725100  1
  C  593  1  0.49880600  0.74849400  0.29357100  1
  C  594  1  0.45926100  0.74401900  0.29304400  1
  C  625  1  0.87289500  0.75001300  0.98481600  1
  C  626  1  0.90362700  0.75135100  0.99469500  1
  C  627  1  0.89796000  0.75513000  0.00981100  1
  C  628  1  0.86042900  0.75755900  0.01526700  1
  C  629  1  0.82967300  0.75592400  0.00547100  1
  C  631  1  0.83576900  0.75211800  0.99057100  1
  C  637  1  0.87938700  0.74710300  0.96994600  1
  C  639  1  0.85201400  0.76238400  0.02972700  1
  C  641  1  0.79740700  0.25006800  0.01487900  1
  C  642  1  0.76670300  0.25102800  0.00497600  1
  C  643  1  0.77236700  0.25481000  0.98985800  1
  C  644  1  0.80987200  0.25763900  0.98442200  1
  C  645  1  0.84060600  0.25639700  0.99424500  1
  C  647  1  0.83451300  0.25258300  0.00914500  1
  C  653  1  0.79088900  0.24713400  0.02974900  1
  C  655  1  0.81827300  0.26250700  0.96996300  1
  C  657  1  0.37277600  0.24936300  0.48481900  1
  C  658  1  0.40351500  0.25076700  0.49469200  1
  C  659  1  0.39786200  0.25467000  0.50980100  1
  C  660  1  0.36033900  0.25716000  0.51525500  1
  C  661  1  0.32957400  0.25545600  0.50546500  1
  C  663  1  0.33565800  0.25152500  0.49057500  1
  C  669  1  0.37924500  0.24634200  0.46995400  1
  C  671  1  0.35192200  0.26209300  0.52970600  1
  C  673  1  0.29762300  0.74950300  0.51487000  1
  C  674  1  0.26688400  0.75055500  0.50498500  1
  C  675  1  0.27249900  0.75450800  0.48987900  1
  C  676  1  0.30998300  0.75742600  0.48444000  1
  C  677  1  0.34075400  0.75609300  0.49424100  1
  C  679  1  0.33471000  0.75210400  0.50912800  1
  C  685  1  0.29115900  0.74641600  0.52973300  1
  C  687  1  0.31833700  0.76242600  0.46999400  1
  C  689  1  0.81729000  0.97437400  0.86860800  1
  C  690  1  0.80672500  0.99437300  0.87862000  1
  C  691  1  0.82448500  0.01970600  0.87868800  1
  C  692  1  0.85339500  0.02521100  0.86836800  1
  C  693  1  0.86408000  0.00527900  0.85835800  1
  C  695  1  0.84617600  0.98025700  0.85844200  1
  C  701  1  0.79958200  0.94968800  0.86904300  1
  C  703  1  0.87161300  0.04956000  0.86778200  1
  C  705  1  0.81696000  0.52426000  0.13112200  1
  C  706  1  0.80655600  0.50439500  0.12099500  1
  C  707  1  0.82432800  0.47909900  0.12084800  1
  C  708  1  0.85309000  0.47349300  0.13120300  1
  C  709  1  0.86362900  0.49329700  0.14132200  1
  C  711  1  0.84571600  0.51828400  0.14131600  1
  C  717  1  0.79923700  0.54891700  0.13075700  1
  C  719  1  0.87127200  0.44915500  0.13173200  1
  C  721  1  0.85340500  0.02411300  0.13180800  1
  C  722  1  0.86394100  0.00404200  0.12183100  1
  C  723  1  0.84573500  0.97886800  0.12164200  1
  C  724  1  0.81635800  0.97358600  0.13180000  1
  C  725  1  0.80565500  0.99358200  0.14176700  1
  C  727  1  0.82401800  0.01844800  0.14180500  1
  C  733  1  0.87154700  0.04866900  0.13144100  1
  C  735  1  0.79773200  0.94937900  0.13224200  1
  C  737  1  0.85325500  0.47462100  0.86797900  1
  C  738  1  0.86381000  0.49488700  0.87784600  1
  C  739  1  0.84563900  0.52004200  0.87789400  1
  C  740  1  0.81628300  0.52510500  0.86770200  1
  C  741  1  0.80557700  0.50491800  0.85783900  1
  C  743  1  0.82390600  0.48007700  0.85794000  1
  C  749  1  0.87134800  0.45008400  0.86848200  1
  C  751  1  0.79762600  0.54925600  0.86714200  1
  C  753  1  0.31758500  0.47393000  0.36896500  1
  C  754  1  0.30700400  0.49397300  0.37894900  1
  C  755  1  0.32480100  0.51929400  0.37900800  1
  C  756  1  0.35376700  0.52475400  0.36870500  1
  C  757  1  0.36447300  0.50477800  0.35872300  1
  C  759  1  0.34653400  0.47976400  0.35881600  1
  C  765  1  0.29980500  0.44926100  0.36940700  1
  C  767  1  0.37205200  0.54908900  0.36812200  1
  C  769  1  0.31718800  0.02385200  0.63080000  1
  C  770  1  0.30677100  0.00395100  0.62069500  1
  C  771  1  0.32458300  0.97866700  0.62054900  1
  C  772  1  0.35340400  0.97309400  0.63088700  1
  C  773  1  0.36396200  0.99293500  0.64098400  1
  C  775  1  0.34601200  0.01791300  0.64097400  1
  C  781  1  0.29938200  0.04848500  0.63043800  1
  C  783  1  0.37165200  0.94877200  0.63140500  1
  C  785  1  0.35388900  0.52366600  0.63215400  1
  C  786  1  0.36447900  0.50349300  0.62224400  1
  C  787  1  0.34626700  0.47831900  0.62210500  1
  C  788  1  0.31682800  0.47312000  0.63225100  1
  C  789  1  0.30607600  0.49321900  0.64215000  1
  C  791  1  0.32444100  0.51808800  0.64213700  1
  C  797  1  0.37206100  0.54822200  0.63173700  1
  C  799  1  0.29807700  0.44894400  0.63270900  1
  C  801  1  0.35368700  0.97422700  0.36761800  1
  C  802  1  0.36429700  0.99460600  0.37741200  1
  C  803  1  0.34611400  0.01976100  0.37740300  1
  C  804  1  0.31669400  0.02472800  0.36722400  1
  C  805  1  0.30593400  0.00443000  0.35743500  1
  C  807  1  0.32426800  0.97958600  0.35759400  1
  C  813  1  0.37180800  0.94969600  0.36817700  1
  C  815  1  0.29790700  0.04884400  0.36664300  1
  C  817  1  0.59991900  0.75309300  0.76494300  1
  C  818  1  0.56218000  0.76144500  0.76238600  1
  C  819  1  0.54459800  0.75901300  0.74860000  1
  C  820  1  0.56520400  0.74781700  0.73676200  1
  C  821  1  0.60309400  0.73959500  0.73938400  1
  C  823  1  0.62007100  0.74212600  0.75311900  1
  C  829  1  0.61553400  0.75533300  0.77881400  1
  C  831  1  0.55055100  0.74423100  0.72273700  1
  C  833  1  0.59972600  0.74652600  0.23469600  1
  C  834  1  0.56210900  0.73793300  0.23734600  1
  C  835  1  0.54477100  0.74019700  0.25118500  1
  C  836  1  0.56548800  0.75148500  0.26297800  1
  C  837  1  0.60323600  0.75999100  0.26025400  1
  C  839  1  0.61998300  0.75761300  0.24647200  1
  C  845  1  0.61514200  0.74436600  0.22079100  1
  C  847  1  0.55115300  0.75478000  0.27707300  1
  C  849  1  0.07013100  0.25337000  0.23479500  1
  C  850  1  0.10797200  0.26164600  0.23728700  1
  C  851  1  0.12578900  0.25900600  0.25101400  1
  C  852  1  0.10531900  0.24770900  0.26286500  1
  C  853  1  0.06731300  0.23960600  0.26032300  1
  C  855  1  0.05010000  0.24232900  0.24664200  1
  C  861  1  0.05430800  0.25578900  0.22096500  1
  C  863  1  0.12033000  0.24374400  0.27679900  1
  C  865  1  0.07029500  0.24642700  0.76492500  1
  C  866  1  0.10812500  0.23819900  0.76242900  1
  C  867  1  0.12588000  0.24075000  0.74868200  1
  C  868  1  0.10534700  0.25189000  0.73681400  1
  C  869  1  0.06735300  0.25994400  0.73935800  1
  C  871  1  0.05020800  0.25731800  0.75306000  1
  C  877  1  0.05454100  0.24408500  0.77877300  1
  C  879  1  0.12032100  0.25577400  0.72286700  1
  C  881  1  0.48821400  0.66089500  0.83162300  1
  C  882  1  0.50332500  0.64140600  0.84048100  1
  C  883  1  0.51820200  0.65373000  0.85283800  1
  C  885  1  0.49425400  0.68561100  0.83822100  1
  C  886  1  0.48365600  0.71063900  0.83221600  1
  C  887  1  0.49365100  0.73571400  0.83824300  1
  C  889  1  0.51815600  0.76666200  0.85303500  1
  C  890  1  0.50188700  0.77974900  0.84119700  1
  C  891  1  0.48613800  0.76068700  0.83221200  1
  C  892  1  0.53624100  0.77889500  0.86507800  1
  C  893  1  0.54974000  0.76536100  0.87761900  1
  C  895  1  0.56380900  0.73349000  0.89399600  1
  C  896  1  0.57266700  0.75821300  0.90009300  1
  C  897  1  0.56456000  0.77769900  0.88999100  1
  C  898  1  0.56882500  0.70850700  0.90102200  1
  C  899  1  0.56290500  0.68343800  0.89428000  1
  C  901  1  0.54806700  0.65249400  0.87773800  1
  C  902  1  0.56117100  0.63941400  0.89015300  1
  C  903  1  0.56951800  0.65848400  0.90046800  1
  C  904  1  0.53497100  0.64022700  0.86478700  1
  C  905  1  0.53941800  0.61215600  0.86376600  1
  C  906  1  0.51106100  0.59473700  0.86900600  1
  C  907  1  0.51734900  0.56705900  0.86920900  1
  C  908  1  0.55205200  0.55634900  0.86415900  1
  C  909  1  0.58012900  0.57384300  0.85882400  1
  C  910  1  0.57391200  0.60149900  0.85858700  1
  C  911  1  0.57757000  0.70863100  0.91612100  1
  C  912  1  0.54791100  0.71226100  0.92622900  1
  C  913  1  0.55554100  0.71265400  0.94118800  1
  C  914  1  0.59284900  0.70934000  0.94641700  1
  C  915  1  0.62261100  0.70566700  0.93631600  1
  C  916  1  0.61503600  0.70534300  0.92129300  1
  C  917  1  0.54114100  0.80698600  0.86459300  1
  C  918  1  0.57579800  0.81781100  0.85964900  1
  C  919  1  0.58177500  0.84550500  0.85988700  1
  C  920  1  0.55336500  0.86288000  0.86503700  1
  C  921  1  0.51853800  0.85197200  0.86988300  1
  C  922  1  0.51249000  0.82425700  0.86968400  1
  C  923  1  0.46105900  0.71063800  0.81938500  1
  C  924  1  0.47769200  0.71286800  0.80549400  1
  C  925  1  0.42123000  0.70819600  0.82047000  1
  C  926  1  0.39847500  0.70815300  0.80792600  1
  C  927  1  0.41495600  0.71068600  0.79398700  1
  C  928  1  0.45483200  0.71274500  0.79295300  1
  C  959  1  0.48747300  0.75848400  0.16758600  1
  C  960  1  0.50273000  0.77784300  0.15866500  1
  C  961  1  0.51778600  0.76533300  0.14640400  1
  C  963  1  0.49360100  0.73366500  0.16112800  1
  C  964  1  0.48300800  0.70872300  0.16726600  1
  C  965  1  0.49313300  0.68356300  0.16139900  1
  C  967  1  0.51789200  0.65238200  0.14684200  1
  C  968  1  0.50133800  0.63948300  0.15869300  1
  C  969  1  0.48550400  0.65868800  0.16754400  1
  C  970  1  0.53611900  0.63993300  0.13490800  1
  C  971  1  0.55007100  0.65325100  0.12236400  1
  C  973  1  0.56525100  0.68486500  0.10597200  1
  C  974  1  0.57347800  0.66000900  0.09992300  1
  C  975  1  0.56471900  0.64067700  0.11004000  1
  C  976  1  0.57107300  0.70975700  0.09893500  1
  C  977  1  0.56469000  0.73492800  0.10548800  1
  C  979  1  0.54875000  0.76616900  0.12169400  1
  C  980  1  0.56294000  0.77902300  0.10937700  1
  C  981  1  0.57218900  0.75976500  0.09928800  1
  C  982  1  0.53500300  0.77865400  0.13447600  1
  C  983  1  0.53956200  0.80673900  0.13540500  1
  C  984  1  0.51138500  0.82410300  0.13002300  1
  C  985  1  0.51770600  0.85179200  0.12983200  1
  C  986  1  0.55222700  0.86256500  0.13506000  1
  C  987  1  0.58015300  0.84511800  0.14050600  1
  C  988  1  0.57390200  0.81745400  0.14073500  1
  C  989  1  0.58144500  0.70949500  0.08399400  1
  C  990  1  0.55263900  0.70895100  0.07334800  1
  C  991  1  0.56200700  0.70852700  0.05853100  1
  C  992  1  0.60035300  0.70888100  0.05400600  1
  C  993  1  0.62913600  0.70882200  0.06465400  1
  C  994  1  0.61981700  0.70936500  0.07952900  1
  C  995  1  0.54075800  0.61183800  0.13551400  1
  C  996  1  0.57522400  0.60100400  0.14060400  1
  C  997  1  0.58113100  0.57331600  0.14035600  1
  C  998  1  0.55285800  0.55595700  0.13503100  1
  C  999  1  0.51818800  0.56686800  0.13006700  1
  C  1000  1  0.51219800  0.59457700  0.13028700  1
  C  1001  1  0.46046700  0.70890600  0.18011400  1
  C  1002  1  0.47716400  0.70669500  0.19399400  1
  C  1003  1  0.42065600  0.71147000  0.17906500  1
  C  1004  1  0.39798400  0.71162100  0.19163100  1
  C  1005  1  0.41452200  0.70906700  0.20555800  1
  C  1006  1  0.45438900  0.70691700  0.20655500  1
  C  1037  1  0.67269000  0.16038700  0.16772900  1
  C  1038  1  0.65769500  0.14087400  0.15884000  1
  C  1039  1  0.64198800  0.15324200  0.14665700  1
  C  1041  1  0.66568200  0.18515500  0.16134400  1
  C  1042  1  0.67569200  0.21020800  0.16749500  1
  C  1043  1  0.66515000  0.23526400  0.16160400  1
  C  1045  1  0.64032800  0.26620000  0.14690400  1
  C  1046  1  0.65590400  0.27924200  0.15890100  1
  C  1047  1  0.67181600  0.26020000  0.16783700  1
  C  1048  1  0.62252300  0.27845400  0.13481700  1
  C  1049  1  0.60959300  0.26494800  0.12216900  1
  C  1051  1  0.59580200  0.23310600  0.10572100  1
  C  1052  1  0.58799000  0.25787900  0.09949400  1
  C  1053  1  0.59592700  0.27735000  0.10963000  1
  C  1054  1  0.59046700  0.20813300  0.09870400  1
  C  1055  1  0.59622000  0.18304500  0.10543200  1
  C  1057  1  0.61143900  0.15203800  0.12187700  1
  C  1058  1  0.59762500  0.13901400  0.10954900  1
  C  1059  1  0.58893400  0.15812000  0.09930400  1
  C  1060  1  0.62497800  0.13974000  0.13474400  1
  C  1061  1  0.62065900  0.11164500  0.13575300  1
  C  1062  1  0.64796800  0.09431800  0.12972400  1
  C  1063  1  0.64176600  0.06661600  0.12971900  1
  C  1064  1  0.60819700  0.05576700  0.13575700  1
  C  1065  1  0.58130300  0.07318300  0.14195100  1
  C  1066  1  0.58739400  0.10086900  0.14196200  1
  C  1067  1  0.58180900  0.20824900  0.08359700  1
  C  1068  1  0.61159600  0.21151100  0.07350000  1
  C  1069  1  0.60402500  0.21197200  0.05853700  1
  C  1070  1  0.56665200  0.20907400  0.05329000  1
  C  1071  1  0.53676400  0.20576200  0.06338000  1
  C  1072  1  0.54427700  0.20539000  0.07840800  1
  C  1073  1  0.61757800  0.30654100  0.13529300  1
  C  1074  1  0.58211400  0.31726600  0.13935300  1
  C  1075  1  0.57598100  0.34491900  0.13881700  1
  C  1076  1  0.60510900  0.36235400  0.13431100  1
  C  1077  1  0.64069100  0.35156700  0.13031300  1
  C  1078  1  0.64686300  0.32388800  0.13077800  1
  C  1079  1  0.69828500  0.21026700  0.18033000  1
  C  1080  1  0.68157500  0.21178400  0.19423600  1
  C  1081  1  0.73818500  0.20857400  0.17923800  1
  C  1082  1  0.76091900  0.20856700  0.19178700  1
  C  1083  1  0.74435700  0.21043300  0.20574300  1
  C  1084  1  0.70442000  0.21172300  0.20678100  1
  C  1115  1  0.67348500  0.25927300  0.83241900  1
  C  1116  1  0.65829400  0.27860100  0.84135900  1
  C  1117  1  0.64234500  0.26600100  0.85343300  1
  C  1119  1  0.66633500  0.23438200  0.83865200  1
  C  1120  1  0.67631300  0.20945700  0.83236500  1
  C  1121  1  0.66567600  0.18428200  0.83811000  1
  C  1123  1  0.64067200  0.15304000  0.85259800  1
  C  1124  1  0.65645000  0.14023500  0.84057300  1
  C  1125  1  0.67245200  0.15946600  0.83176400  1
  C  1126  1  0.62269500  0.14052300  0.86457600  1
  C  1127  1  0.60935000  0.15377600  0.87723000  1
  C  1129  1  0.59442200  0.18531900  0.89368100  1
  C  1130  1  0.58713000  0.16040600  0.89985200  1
  C  1131  1  0.59569400  0.14111400  0.88970200  1
  C  1132  1  0.58832500  0.21017800  0.90070600  1
  C  1133  1  0.59445000  0.23538000  0.89414300  1
  C  1135  1  0.61062200  0.26671100  0.87800500  1
  C  1136  1  0.59573100  0.27947400  0.89022000  1
  C  1137  1  0.58635200  0.26016800  0.90027400  1
  C  1138  1  0.62483100  0.27926400  0.86531000  1
  C  1139  1  0.62040400  0.30735000  0.86438500  1
  C  1140  1  0.64746100  0.32472400  0.87058100  1
  C  1141  1  0.64126800  0.35241700  0.87055200  1
  C  1142  1  0.60795700  0.36321000  0.86431200  1
  C  1143  1  0.58126100  0.34574500  0.85799500  1
  C  1144  1  0.58736300  0.31807200  0.85800400  1
  C  1145  1  0.57803500  0.20988300  0.91565800  1
  C  1146  1  0.60689500  0.20975400  0.92628700  1
  C  1147  1  0.59760500  0.20921800  0.94111000  1
  C  1148  1  0.55927700  0.20904300  0.94566200  1
  C  1149  1  0.53045600  0.20857000  0.93503100  1
  C  1150  1  0.53969400  0.20921600  0.92015000  1
  C  1151  1  0.61794800  0.11242000  0.86397800  1
  C  1152  1  0.58263600  0.10158400  0.85976200  1
  C  1153  1  0.57653100  0.07392000  0.86031100  1
  C  1154  1  0.60554300  0.05658800  0.86498000  1
  C  1155  1  0.64100500  0.06748000  0.86909700  1
  C  1156  1  0.64715500  0.09517200  0.86861600  1
  C  1157  1  0.69883000  0.20965100  0.81950900  1
  C  1158  1  0.68202800  0.20807000  0.80562000  1
  C  1159  1  0.73872600  0.21156500  0.82055500  1
  C  1160  1  0.76136500  0.21168100  0.80797900  1
  C  1161  1  0.74470800  0.20973000  0.79404100  1
  C  1162  1  0.70477300  0.20825000  0.79304800  1
  C  1193  1  0.98918900  0.16099900  0.33121000  1
  C  1194  1  0.00425100  0.14143200  0.34002800  1
  C  1195  1  0.01787700  0.15353600  0.35265600  1
  C  1197  1  0.99390799  0.18555900  0.33813100  1
  C  1198  1  0.98292400  0.21062000  0.33226200  1
  C  1199  1  0.99255699  0.23561900  0.33848200  1
  C  1201  1  0.01718700  0.26637300  0.35337600  1
  C  1202  1  0.00014500  0.27964700  0.34176300  1
  C  1203  1  0.98428900  0.26070500  0.33273600  1
  C  1204  1  0.03573400  0.27846400  0.36535800  1
  C  1205  1  0.04969700  0.26476700  0.37777000  1
  C  1207  1  0.06378900  0.23273300  0.39404200  1
  C  1208  1  0.07342800  0.25735100  0.40009500  1
  C  1209  1  0.06530400  0.27693400  0.39005100  1
  C  1210  1  0.06838800  0.20769900  0.40105300  1
  C  1211  1  0.06202400  0.18270600  0.39428900  1
  C  1213  1  0.04700700  0.15194700  0.37767200  1
  C  1214  1  0.05963400  0.13871700  0.39011100  1
  C  1215  1  0.06809300  0.15768000  0.40047200  1
  C  1216  1  0.03426100  0.13984700  0.36462400  1
  C  1217  1  0.03894000  0.11179900  0.36349000  1
  C  1218  1  0.01051300  0.09420700  0.36849900  1
  C  1219  1  0.01701400  0.06654600  0.36865000  1
  C  1220  1  0.05199800  0.05601800  0.36377200  1
  C  1221  1  0.08013600  0.07368500  0.35865300  1
  C  1222  1  0.07371700  0.10132400  0.35847800  1
  C  1223  1  0.07719900  0.20773100  0.41614500  1
  C  1224  1  0.04762300  0.21153700  0.42626900  1
  C  1225  1  0.05532400  0.21194000  0.44122200  1
  C  1226  1  0.09262700  0.20847700  0.44643100  1
  C  1227  1  0.12230200  0.20461400  0.43631500  1
  C  1228  1  0.11465500  0.20426800  0.42129600  1
  C  1229  1  0.04076500  0.30655500  0.36492100  1
  C  1230  1  0.07520400  0.31733500  0.35973000  1
  C  1231  1  0.08135000  0.34501300  0.35998800  1
  C  1232  1  0.05331800  0.36242800  0.36539400  1
  C  1233  1  0.01871400  0.35156400  0.37049900  1
  C  1234  1  0.01250500  0.32386400  0.37028800  1
  C  1235  1  0.96105500  0.21071800  0.31922900  1
  C  1236  1  0.97796700  0.21623400  0.30565800  1
  C  1237  1  0.92163300  0.20564900  0.31978400  1
  C  1238  1  0.89959900  0.20609800  0.30704900  1
  C  1239  1  0.91645700  0.21159200  0.29343600  1
  C  1240  1  0.95581100  0.21683000  0.29294500  1
  C  1271  1  0.98844600  0.25762000  0.66799200  1
  C  1272  1  0.00366900  0.27703300  0.65909800  1
  C  1273  1  0.01748000  0.26470900  0.64657200  1
  C  1275  1  0.99322999  0.23293500  0.66122000  1
  C  1276  1  0.98221500  0.20797100  0.66723200  1
  C  1277  1  0.99194199  0.18286700  0.66117800  1
  C  1279  1  0.01681000  0.15184100  0.64653800  1
  C  1280  1  0.99946700  0.13877900  0.65816800  1
  C  1281  1  0.98352500  0.15788700  0.66704800  1
  C  1282  1  0.03550100  0.13950400  0.63467400  1
  C  1283  1  0.04993000  0.15295400  0.62225200  1
  C  1285  1  0.06516200  0.18470000  0.60594500  1
  C  1286  1  0.07413400  0.15992300  0.59995500  1
  C  1287  1  0.06534900  0.14051600  0.61002400  1
  C  1288  1  0.07061300  0.20963300  0.59891400  1
  C  1289  1  0.06381700  0.23474600  0.60547300  1
  C  1291  1  0.04774500  0.26583700  0.62174400  1
  C  1292  1  0.06147300  0.27881600  0.60938900  1
  C  1293  1  0.07080000  0.25964400  0.59926200  1
  C  1294  1  0.03433800  0.27818500  0.63461700  1
  C  1295  1  0.03914200  0.30624900  0.63564400  1
  C  1296  1  0.01089100  0.32378900  0.63049400  1
  C  1297  1  0.01742900  0.35145700  0.63035100  1
  C  1298  1  0.05224300  0.36205000  0.63540400  1
  C  1299  1  0.08023500  0.34442600  0.64063000  1
  C  1300  1  0.07377700  0.31678100  0.64080300  1
  C  1301  1  0.08108600  0.20944500  0.58398100  1
  C  1302  1  0.05235000  0.20872700  0.57331100  1
  C  1303  1  0.06181100  0.20826700  0.55850300  1
  C  1304  1  0.10018000  0.20874500  0.55401000  1
  C  1305  1  0.12889900  0.20887900  0.56468300  1
  C  1306  1  0.11948400  0.20946800  0.57954900  1
  C  1307  1  0.04025700  0.11140700  0.63524800  1
  C  1308  1  0.07450000  0.10062100  0.64058500  1
  C  1309  1  0.08058100  0.07294800  0.64031600  1
  C  1310  1  0.05269900  0.05554800  0.63473700  1
  C  1311  1  0.01825400  0.06641400  0.62951800  1
  C  1312  1  0.01209700  0.09410600  0.62975000  1
  C  1313  1  0.96041600  0.20809500  0.68028600  1
  C  1314  1  0.97737600  0.20263300  0.69385500  1
  C  1315  1  0.92105700  0.21335000  0.67977400  1
  C  1316  1  0.89913400  0.21312600  0.69254200  1
  C  1317  1  0.91605100  0.20767700  0.70614500  1
  C  1318  1  0.95533200  0.20224300  0.70659700  1
  C  1349  1  0.17198200  0.66040900  0.66808600  1
  C  1350  1  0.15709000  0.64082100  0.65922500  1
  C  1351  1  0.14264400  0.65299800  0.64676000  1
  C  1353  1  0.16629200  0.68505300  0.66137200  1
  C  1354  1  0.17666900  0.71014800  0.66738700  1
  C  1355  1  0.16654200  0.73515200  0.66131200  1
  C  1357  1  0.14169100  0.76592900  0.64651200  1
  C  1358  1  0.15798700  0.77914700  0.65830900  1
  C  1359  1  0.17394500  0.76020300  0.66729000  1
  C  1360  1  0.12348800  0.77805500  0.63447300  1
  C  1361  1  0.11010000  0.76439100  0.62194800  1
  C  1363  1  0.09622200  0.73238300  0.60561100  1
  C  1364  1  0.08775700  0.75706800  0.59940300  1
  C  1365  1  0.09574800  0.77663700  0.60947500  1
  C  1366  1  0.09121900  0.70735100  0.59862500  1
  C  1367  1  0.09738500  0.68232300  0.60536600  1
  C  1369  1  0.11281600  0.65147400  0.62186300  1
  C  1370  1  0.09947400  0.63831400  0.60950400  1
  C  1371  1  0.09064000  0.65733300  0.59922800  1
  C  1372  1  0.12605600  0.63932100  0.63481600  1
  C  1373  1  0.12159500  0.61124000  0.63591500  1
  C  1374  1  0.14907100  0.59378900  0.63010600  1
  C  1375  1  0.14275800  0.56609700  0.63014800  1
  C  1376  1  0.10891100  0.55536400  0.63602300  1
  C  1377  1  0.08186400  0.57290300  0.64201300  1
  C  1378  1  0.08805200  0.60058100  0.64196600  1
  C  1379  1  0.08246200  0.70737500  0.58352900  1
  C  1380  1  0.11215700  0.71076400  0.57340500  1
  C  1381  1  0.10447300  0.71123800  0.55845300  1
  C  1382  1  0.06707700  0.70824000  0.55324700  1
  C  1383  1  0.03728300  0.70478400  0.56336300  1
  C  1384  1  0.04491300  0.70438700  0.57838100  1
  C  1385  1  0.11844000  0.80614300  0.63490100  1
  C  1386  1  0.08312400  0.81682400  0.63918300  1
  C  1387  1  0.07684700  0.84446200  0.63864600  1
  C  1388  1  0.10569900  0.86194000  0.63393200  1
  C  1389  1  0.14112900  0.85120000  0.62970400  1
  C  1390  1  0.14743100  0.82353200  0.63016000  1
  C  1391  1  0.19852400  0.71026800  0.68041900  1
  C  1392  1  0.18138200  0.71486000  0.69404600  1
  C  1393  1  0.23812500  0.70606500  0.67981300  1
  C  1394  1  0.26011900  0.70646000  0.69255800  1
  C  1395  1  0.24303400  0.71099200  0.70623300  1
  C  1396  1  0.20349000  0.71537200  0.70677200  1
  C  1427  1  0.17268500  0.75845600  0.33206100  1
  C  1428  1  0.15759000  0.77784800  0.34098100  1
  C  1429  1  0.14289100  0.76541700  0.35333600  1
  C  1431  1  0.16684600  0.73368000  0.33861900  1
  C  1432  1  0.17722500  0.70871600  0.33246900  1
  C  1433  1  0.16704400  0.68358100  0.33839400  1
  C  1435  1  0.14205400  0.65247000  0.35297900  1
  C  1436  1  0.15857400  0.63950700  0.34115500  1
  C  1437  1  0.17459200  0.65865800  0.33230200  1
  C  1438  1  0.12368900  0.64006600  0.36490500  1
  C  1439  1  0.10986800  0.65346000  0.37743900  1
  C  1441  1  0.09482300  0.68515100  0.39378800  1
  C  1442  1  0.08685800  0.66030900  0.39992400  1
  C  1443  1  0.09548700  0.64093100  0.38983100  1
  C  1444  1  0.08905700  0.71006800  0.40079100  1
  C  1445  1  0.09558900  0.73521900  0.39422700  1
  C  1447  1  0.11193600  0.76641500  0.37804000  1
  C  1448  1  0.09752400  0.77930100  0.39030100  1
  C  1449  1  0.08802400  0.76007000  0.40038000  1
  C  1450  1  0.12582000  0.77883700  0.36525600  1
  C  1451  1  0.12124900  0.80691400  0.36424900  1
  C  1452  1  0.14847800  0.82440900  0.37023200  1
  C  1453  1  0.14218200  0.85209400  0.37015000  1
  C  1454  1  0.10859600  0.86277000  0.36406500  1
  C  1455  1  0.08174200  0.84518300  0.35794800  1
  C  1456  1  0.08793300  0.81751700  0.35801900  1
  C  1457  1  0.07863200  0.70985300  0.41572700  1
  C  1458  1  0.10740500  0.70961600  0.42639000  1
  C  1459  1  0.09798100  0.70906700  0.44120100  1
  C  1460  1  0.05961200  0.70897400  0.44570000  1
  C  1461  1  0.03087600  0.70862300  0.43503600  1
  C  1462  1  0.04024800  0.70929300  0.42016800  1
  C  1463  1  0.11886300  0.61195700  0.36434900  1
  C  1464  1  0.08372000  0.60115900  0.35990300  1
  C  1465  1  0.07747700  0.57350900  0.36045800  1
  C  1466  1  0.10619600  0.55614300  0.36534800  1
  C  1467  1  0.14148900  0.56699700  0.36970400  1
  C  1468  1  0.14776600  0.59467700  0.36922700  1
  C  1469  1  0.19903800  0.70887100  0.31942400  1
  C  1470  1  0.18184200  0.70442300  0.30578900  1
  C  1471  1  0.23862400  0.71320800  0.32001500  1
  C  1472  1  0.26055300  0.71307100  0.30725100  1
  C  1473  1  0.24342600  0.70863500  0.29357100  1
  C  1474  1  0.20388100  0.70416000  0.29304400  1
  C  1505  1  0.61751500  0.71015400  0.98481600  1
  C  1506  1  0.64824700  0.71149200  0.99469500  1
  C  1507  1  0.64258000  0.71527100  0.00981100  1
  C  1508  1  0.60504900  0.71770000  0.01526700  1
  C  1509  1  0.57429300  0.71606500  0.00547100  1
  C  1511  1  0.58038900  0.71225900  0.99057100  1
  C  1517  1  0.62400700  0.70724400  0.96994600  1
  C  1519  1  0.59663400  0.72252500  0.02972700  1
  C  1521  1  0.54202700  0.21020900  0.01487900  1
  C  1522  1  0.51132300  0.21116900  0.00497600  1
  C  1523  1  0.51698700  0.21495100  0.98985800  1
  C  1524  1  0.55449200  0.21778000  0.98442200  1
  C  1525  1  0.58522600  0.21653800  0.99424500  1
  C  1527  1  0.57913300  0.21272400  0.00914500  1
  C  1533  1  0.53550900  0.20727500  0.02974900  1
  C  1535  1  0.56289300  0.22264800  0.96996300  1
  C  1537  1  0.11739600  0.20950400  0.48481900  1
  C  1538  1  0.14813500  0.21090800  0.49469200  1
  C  1539  1  0.14248200  0.21481100  0.50980100  1
  C  1540  1  0.10495900  0.21730100  0.51525500  1
  C  1541  1  0.07419400  0.21559700  0.50546500  1
  C  1543  1  0.08027800  0.21166600  0.49057500  1
  C  1549  1  0.12386500  0.20648300  0.46995400  1
  C  1551  1  0.09654200  0.22223400  0.52970600  1
  C  1553  1  0.04224300  0.70964400  0.51487000  1
  C  1554  1  0.01150400  0.71069600  0.50498500  1
  C  1555  1  0.01711900  0.71464900  0.48987900  1
  C  1556  1  0.05460300  0.71756700  0.48444000  1
  C  1557  1  0.08537400  0.71623400  0.49424100  1
  C  1559  1  0.07933000  0.71224500  0.50912800  1
  C  1565  1  0.03577900  0.70655700  0.52973300  1
  C  1567  1  0.06295700  0.72256700  0.46999400  1
  C  1569  1  0.56191000  0.93451470  0.86860800  1
  C  1570  1  0.55134500  0.95451370  0.87862000  1
  C  1571  1  0.56910500  0.97984670  0.87868800  1
  C  1572  1  0.59801500  0.98535170  0.86836800  1
  C  1573  1  0.60870000  0.96541970  0.85835800  1
  C  1575  1  0.59079600  0.94039770  0.85844200  1
  C  1581  1  0.54420200  0.90982870  0.86904300  1
  C  1583  1  0.61623300  0.00970100  0.86778200  1
  C  1585  1  0.56158000  0.48440100  0.13112200  1
  C  1586  1  0.55117600  0.46453600  0.12099500  1
  C  1587  1  0.56894800  0.43924000  0.12084800  1
  C  1588  1  0.59771000  0.43363400  0.13120300  1
  C  1589  1  0.60824900  0.45343800  0.14132200  1
  C  1591  1  0.59033600  0.47842500  0.14131600  1
  C  1597  1  0.54385700  0.50905800  0.13075700  1
  C  1599  1  0.61589200  0.40929600  0.13173200  1
  C  1601  1  0.59802500  0.98425370  0.13180800  1
  C  1602  1  0.60856100  0.96418270  0.12183100  1
  C  1603  1  0.59035500  0.93900870  0.12164200  1
  C  1604  1  0.56097800  0.93372670  0.13180000  1
  C  1605  1  0.55027500  0.95372270  0.14176700  1
  C  1607  1  0.56863800  0.97858870  0.14180500  1
  C  1613  1  0.61616700  0.00881000  0.13144100  1
  C  1615  1  0.54235200  0.90951970  0.13224200  1
  C  1617  1  0.59787500  0.43476200  0.86797900  1
  C  1618  1  0.60843000  0.45502800  0.87784600  1
  C  1619  1  0.59025900  0.48018300  0.87789400  1
  C  1620  1  0.56090300  0.48524600  0.86770200  1
  C  1621  1  0.55019700  0.46505900  0.85783900  1
  C  1623  1  0.56852600  0.44021800  0.85794000  1
  C  1629  1  0.61596800  0.41022500  0.86848200  1
  C  1631  1  0.54224600  0.50939700  0.86714200  1
  C  1633  1  0.06220500  0.43407100  0.36896500  1
  C  1634  1  0.05162400  0.45411400  0.37894900  1
  C  1635  1  0.06942100  0.47943500  0.37900800  1
  C  1636  1  0.09838700  0.48489500  0.36870500  1
  C  1637  1  0.10909300  0.46491900  0.35872300  1
  C  1639  1  0.09115400  0.43990500  0.35881600  1
  C  1645  1  0.04442500  0.40940200  0.36940700  1
  C  1647  1  0.11667200  0.50923000  0.36812200  1
  C  1649  1  0.06180800  0.98399270  0.63080000  1
  C  1650  1  0.05139100  0.96409170  0.62069500  1
  C  1651  1  0.06920300  0.93880770  0.62054900  1
  C  1652  1  0.09802400  0.93323470  0.63088700  1
  C  1653  1  0.10858200  0.95307570  0.64098400  1
  C  1655  1  0.09063200  0.97805370  0.64097400  1
  C  1661  1  0.04400200  0.00862600  0.63043800  1
  C  1663  1  0.11627200  0.90891270  0.63140500  1
  C  1665  1  0.09850900  0.48380700  0.63215400  1
  C  1666  1  0.10909900  0.46363400  0.62224400  1
  C  1667  1  0.09088700  0.43846000  0.62210500  1
  C  1668  1  0.06144800  0.43326100  0.63225100  1
  C  1669  1  0.05069600  0.45336000  0.64215000  1
  C  1671  1  0.06906100  0.47822900  0.64213700  1
  C  1677  1  0.11668100  0.50836300  0.63173700  1
  C  1679  1  0.04269700  0.40908500  0.63270900  1
  C  1681  1  0.09830700  0.93436770  0.36761800  1
  C  1682  1  0.10891700  0.95474670  0.37741200  1
  C  1683  1  0.09073400  0.97990170  0.37740300  1
  C  1684  1  0.06131400  0.98486870  0.36722400  1
  C  1685  1  0.05055400  0.96457070  0.35743500  1
  C  1687  1  0.06888800  0.93972670  0.35759400  1
  C  1693  1  0.11642800  0.90983670  0.36817700  1
  C  1695  1  0.04252700  0.00898500  0.36664300  1
  C  1697  1  0.34453900  0.71323400  0.76494300  1
  C  1698  1  0.30680000  0.72158600  0.76238600  1
  C  1699  1  0.28921800  0.71915400  0.74860000  1
  C  1700  1  0.30982400  0.70795800  0.73676200  1
  C  1701  1  0.34771400  0.69973600  0.73938400  1
  C  1703  1  0.36469100  0.70226700  0.75311900  1
  C  1709  1  0.36015400  0.71547400  0.77881400  1
  C  1711  1  0.29517100  0.70437200  0.72273700  1
  C  1713  1  0.34434600  0.70666700  0.23469600  1
  C  1714  1  0.30672900  0.69807400  0.23734600  1
  C  1715  1  0.28939100  0.70033800  0.25118500  1
  C  1716  1  0.31010800  0.71162600  0.26297800  1
  C  1717  1  0.34785600  0.72013200  0.26025400  1
  C  1719  1  0.36460300  0.71775400  0.24647200  1
  C  1725  1  0.35976200  0.70450700  0.22079100  1
  C  1727  1  0.29577300  0.71492100  0.27707300  1
  C  1729  1  0.81475100  0.21351100  0.23479500  1
  C  1730  1  0.85259200  0.22178700  0.23728700  1
  C  1731  1  0.87040900  0.21914700  0.25101400  1
  C  1732  1  0.84993900  0.20785000  0.26286500  1
  C  1733  1  0.81193300  0.19974700  0.26032300  1
  C  1735  1  0.79472000  0.20247000  0.24664200  1
  C  1741  1  0.79892800  0.21593000  0.22096500  1
  C  1743  1  0.86495000  0.20388500  0.27679900  1
  C  1745  1  0.81491500  0.20656800  0.76492500  1
  C  1746  1  0.85274500  0.19834000  0.76242900  1
  C  1747  1  0.87050000  0.20089100  0.74868200  1
  C  1748  1  0.84996700  0.21203100  0.73681400  1
  C  1749  1  0.81197300  0.22008500  0.73935800  1
  C  1751  1  0.79482800  0.21745900  0.75306000  1
  C  1757  1  0.79916100  0.20422600  0.77877300  1
  C  1759  1  0.86494100  0.21591500  0.72286700  1
  N  4  1  0.76752900  0.72000600  0.85089900  1
  N  8  1  0.76807800  0.78023000  0.85071000  1
  N  14  1  0.80577000  0.77877400  0.88053000  1
  N  20  1  0.80536800  0.71865000  0.88071400  1
  N  75  1  0.85241300  0.75011800  0.96070700  1
  N  76  1  0.81744500  0.92845600  0.86533300  1
  N  77  1  0.65049300  0.75001600  0.78166800  1
  N  78  1  0.81678100  0.57069200  0.86507700  1
  N  82  1  0.76703400  0.77880000  0.14845500  1
  N  86  1  0.76780000  0.71856900  0.14901000  1
  N  92  1  0.80681000  0.71952400  0.11940900  1
  N  98  1  0.80600100  0.77968300  0.11885500  1
  N  153  1  0.86496900  0.74763200  0.04001300  1
  N  154  1  0.81696700  0.57012200  0.13465400  1
  N  155  1  0.65015800  0.74948600  0.21789900  1
  N  156  1  0.81692400  0.92797200  0.13423500  1
  N  160  1  0.90279000  0.21955900  0.14873800  1
  N  164  1  0.90177300  0.27979900  0.14907700  1
  N  170  1  0.86385600  0.27834900  0.11930300  1
  N  176  1  0.86512700  0.21819900  0.11890200  1
  N  231  1  0.81790100  0.24993700  0.03899800  1
  N  232  1  0.85161900  0.42781500  0.13336200  1
  N  233  1  0.01959400  0.24974800  0.21806000  1
  N  234  1  0.85435100  0.06999400  0.13544500  1
  N  238  1  0.90327500  0.27945000  0.85125000  1
  N  242  1  0.90212700  0.21921100  0.85057600  1
  N  248  1  0.86294100  0.22005200  0.88013500  1
  N  254  1  0.86439500  0.28021700  0.88086000  1
  N  309  1  0.80548200  0.24769400  0.95966100  1
  N  310  1  0.85201300  0.07084500  0.86599000  1
  N  311  1  0.01985800  0.25011500  0.78170100  1
  N  312  1  0.85415500  0.42869200  0.86453400  1
  N  316  1  0.26641300  0.21977600  0.35094400  1
  N  320  1  0.26746300  0.27995800  0.35086300  1
  N  326  1  0.30534100  0.27816700  0.38065700  1
  N  332  1  0.30471700  0.21807500  0.38067400  1
  N  387  1  0.35226300  0.24932600  0.46071600  1
  N  388  1  0.31754800  0.42798600  0.36568500  1
  N  389  1  0.15269500  0.25281400  0.28099300  1
  N  390  1  0.31691000  0.07037900  0.36466700  1
  N  394  1  0.26591900  0.27821100  0.64840900  1
  N  398  1  0.26709100  0.21802200  0.64887900  1
  N  404  1  0.30628600  0.21923800  0.61930200  1
  N  410  1  0.30536100  0.27936900  0.61889200  1
  N  465  1  0.36486200  0.24741300  0.54002600  1
  N  466  1  0.31697800  0.06973400  0.63435800  1
  N  467  1  0.15237400  0.24631900  0.71861200  1
  N  468  1  0.31712300  0.42743800  0.63460500  1
  N  472  1  0.40419600  0.71929800  0.64862200  1
  N  476  1  0.40274900  0.77953000  0.64885800  1
  N  482  1  0.36466600  0.77777300  0.61911900  1
  N  488  1  0.36608200  0.71761500  0.61888000  1
  N  543  1  0.31820900  0.74919300  0.53896600  1
  N  544  1  0.35207800  0.92738500  0.63301000  1
  N  545  1  0.51744800  0.75209600  0.71870500  1
  N  546  1  0.35498100  0.56959300  0.63574700  1
  N  550  1  0.40454800  0.77888400  0.35136000  1
  N  554  1  0.40308600  0.71864900  0.35078600  1
  N  560  1  0.36375500  0.71975700  0.38031700  1
  N  566  1  0.36530700  0.77993400  0.38089400  1
  N  621  1  0.30573000  0.74755900  0.45968400  1
  N  622  1  0.35253200  0.57041600  0.36634100  1
  N  623  1  0.51773800  0.74745900  0.28106700  1
  N  624  1  0.35471700  0.92825100  0.36424200  1
  N  634  1  0.92908000  0.75712600  0.01947500  1
  N  650  1  0.74125300  0.25642200  0.98017300  1
  N  666  1  0.42898800  0.25672500  0.51945700  1
  N  682  1  0.24136300  0.75619500  0.48021000  1
  N  698  1  0.81416300  0.03935700  0.88900200  1
  N  714  1  0.81415800  0.45959000  0.11042500  1
  N  730  1  0.85608000  0.95916000  0.11136400  1
  N  746  1  0.85598700  0.53994900  0.88807000  1
  N  762  1  0.31446100  0.53897500  0.38930100  1
  N  778  1  0.31439900  0.95913500  0.61013900  1
  N  794  1  0.35664700  0.45853400  0.61187500  1
  N  810  1  0.35650200  0.03975200  0.38752400  1
  N  826  1  0.50659500  0.76760400  0.74678800  1
  N  842  1  0.50691800  0.73128600  0.25309700  1
  N  858  1  0.16393400  0.26740900  0.25275000  1
  N  874  1  0.16403100  0.23243100  0.74694500  1
  N  884  1  0.51214900  0.68014700  0.85089900  1
  N  888  1  0.51269800  0.74037100  0.85071000  1
  N  894  1  0.55039000  0.73891500  0.88053000  1
  N  900  1  0.54998800  0.67879100  0.88071400  1
  N  955  1  0.59703300  0.71025900  0.96070700  1
  N  956  1  0.56206500  0.88859700  0.86533300  1
  N  957  1  0.39511300  0.71015700  0.78166800  1
  N  958  1  0.56140100  0.53083300  0.86507700  1
  N  962  1  0.51165400  0.73894100  0.14845500  1
  N  966  1  0.51242000  0.67871000  0.14901000  1
  N  972  1  0.55143000  0.67966500  0.11940900  1
  N  978  1  0.55062100  0.73982400  0.11885500  1
  N  1033  1  0.60958900  0.70777300  0.04001300  1
  N  1034  1  0.56158700  0.53026300  0.13465400  1
  N  1035  1  0.39477800  0.70962700  0.21789900  1
  N  1036  1  0.56154400  0.88811300  0.13423500  1
  N  1040  1  0.64741000  0.17970000  0.14873800  1
  N  1044  1  0.64639300  0.23994000  0.14907700  1
  N  1050  1  0.60847600  0.23849000  0.11930300  1
  N  1056  1  0.60974700  0.17834000  0.11890200  1
  N  1111  1  0.56252100  0.21007800  0.03899800  1
  N  1112  1  0.59623900  0.38795600  0.13336200  1
  N  1113  1  0.76421400  0.20988900  0.21806000  1
  N  1114  1  0.59897100  0.03013500  0.13544500  1
  N  1118  1  0.64789500  0.23959100  0.85125000  1
  N  1122  1  0.64674700  0.17935200  0.85057600  1
  N  1128  1  0.60756100  0.18019300  0.88013500  1
  N  1134  1  0.60901500  0.24035800  0.88086000  1
  N  1189  1  0.55010200  0.20783500  0.95966100  1
  N  1190  1  0.59663300  0.03098600  0.86599000  1
  N  1191  1  0.76447800  0.21025600  0.78170100  1
  N  1192  1  0.59877500  0.38883300  0.86453400  1
  N  1196  1  0.01103300  0.17991700  0.35094400  1
  N  1200  1  0.01208300  0.24009900  0.35086300  1
  N  1206  1  0.04996100  0.23830800  0.38065700  1
  N  1212  1  0.04933700  0.17821600  0.38067400  1
  N  1267  1  0.09688300  0.20946700  0.46071600  1
  N  1268  1  0.06216800  0.38812700  0.36568500  1
  N  1269  1  0.89731500  0.21295500  0.28099300  1
  N  1270  1  0.06153000  0.03052000  0.36466700  1
  N  1274  1  0.01053900  0.23835200  0.64840900  1
  N  1278  1  0.01171100  0.17816300  0.64887900  1
  N  1284  1  0.05090600  0.17937900  0.61930200  1
  N  1290  1  0.04998100  0.23951000  0.61889200  1
  N  1345  1  0.10948200  0.20755400  0.54002600  1
  N  1346  1  0.06159800  0.02987500  0.63435800  1
  N  1347  1  0.89699400  0.20646000  0.71861200  1
  N  1348  1  0.06174300  0.38757900  0.63460500  1
  N  1352  1  0.14881600  0.67943900  0.64862200  1
  N  1356  1  0.14736900  0.73967100  0.64885800  1
  N  1362  1  0.10928600  0.73791400  0.61911900  1
  N  1368  1  0.11070200  0.67775600  0.61888000  1
  N  1423  1  0.06282900  0.70933400  0.53896600  1
  N  1424  1  0.09669800  0.88752600  0.63301000  1
  N  1425  1  0.26206800  0.71223700  0.71870500  1
  N  1426  1  0.09960100  0.52973400  0.63574700  1
  N  1430  1  0.14916800  0.73902500  0.35136000  1
  N  1434  1  0.14770600  0.67879000  0.35078600  1
  N  1440  1  0.10837500  0.67989800  0.38031700  1
  N  1446  1  0.10992700  0.74007500  0.38089400  1
  N  1501  1  0.05035000  0.70770000  0.45968400  1
  N  1502  1  0.09715200  0.53055700  0.36634100  1
  N  1503  1  0.26235800  0.70760000  0.28106700  1
  N  1504  1  0.09933700  0.88839200  0.36424200  1
  N  1514  1  0.67370000  0.71726700  0.01947500  1
  N  1530  1  0.48587300  0.21656300  0.98017300  1
  N  1546  1  0.17360800  0.21686600  0.51945700  1
  N  1562  1  0.98598300  0.71633600  0.48021000  1
  N  1578  1  0.55878300  0.99949770  0.88900200  1
  N  1594  1  0.55877800  0.41973100  0.11042500  1
  N  1610  1  0.60070000  0.91930070  0.11136400  1
  N  1626  1  0.60060700  0.50009000  0.88807000  1
  N  1642  1  0.05908100  0.49911600  0.38930100  1
  N  1658  1  0.05901900  0.91927570  0.61013900  1
  N  1674  1  0.10126700  0.41867500  0.61187500  1
  N  1690  1  0.10112200  0.99989270  0.38752400  1
  N  1706  1  0.25121500  0.72774500  0.74678800  1
  N  1722  1  0.25153800  0.69142700  0.25309700  1
  N  1738  1  0.90855400  0.22755000  0.25275000  1
  N  1754  1  0.90865100  0.19257200  0.74694500  1
  O  635  1  0.95019000  0.77648100  0.01632500  1
  O  636  1  0.94862300  0.73619800  0.01942700  1
  O  651  1  0.71976900  0.27555300  0.98328600  1
  O  652  1  0.72210400  0.23527900  0.98023300  1
  O  667  1  0.45011900  0.27604400  0.51626100  1
  O  668  1  0.44851000  0.23578500  0.51945700  1
  O  683  1  0.21984800  0.77527200  0.48339000  1
  O  684  1  0.22225500  0.73503500  0.48020800  1
  O  699  1  0.77984300  0.04574900  0.88779200  1
  O  700  1  0.82003700  0.03152800  0.90175400  1
  O  715  1  0.77982300  0.45311100  0.11153400  1
  O  716  1  0.82021000  0.46762700  0.09772100  1
  O  731  1  0.89023500  0.95246000  0.11274800  1
  O  732  1  0.85080500  0.96707600  0.09858900  1
  O  747  1  0.89015200  0.54666900  0.88665900  1
  O  748  1  0.85067900  0.53225900  0.90088500  1
  O  763  1  0.28015500  0.54538700  0.38806700  1
  O  764  1  0.32027500  0.53117400  0.40206200  1
  O  779  1  0.28007800  0.95263500  0.61127200  1
  O  780  1  0.32038900  0.96715900  0.59742900  1
  O  795  1  0.39079400  0.45183900  0.61329300  1
  O  796  1  0.35142300  0.46635600  0.59908000  1
  O  811  1  0.39065800  0.04646600  0.38607400  1
  O  812  1  0.35125300  0.03217000  0.40036200  1
  O  827  1  0.50299900  0.79211200  0.74924600  1
  O  828  1  0.48403600  0.75490600  0.75478300  1
  O  843  1  0.50357600  0.70676300  0.25062100  1
  O  844  1  0.48404200  0.74383700  0.24518400  1
  O  859  1  0.16775900  0.29193600  0.25037800  1
  O  860  1  0.18618400  0.25473600  0.24463900  1
  O  875  1  0.16790100  0.20793700  0.74938000  1
  O  876  1  0.18629400  0.24523400  0.75500900  1
  O  1515  1  0.69481000  0.73662200  0.01632500  1
  O  1516  1  0.69324300  0.69633900  0.01942700  1
  O  1531  1  0.46438900  0.23569400  0.98328600  1
  O  1532  1  0.46672400  0.19542000  0.98023300  1
  O  1547  1  0.19473900  0.23618500  0.51626100  1
  O  1548  1  0.19313000  0.19592600  0.51945700  1
  O  1563  1  0.96446800  0.73541300  0.48339000  1
  O  1564  1  0.96687500  0.69517600  0.48020800  1
  O  1579  1  0.52446300  0.00589000  0.88779200  1
  O  1580  1  0.56465700  0.99166870  0.90175400  1
  O  1595  1  0.52444300  0.41325200  0.11153400  1
  O  1596  1  0.56483000  0.42776800  0.09772100  1
  O  1611  1  0.63485500  0.91260070  0.11274800  1
  O  1612  1  0.59542500  0.92721670  0.09858900  1
  O  1627  1  0.63477200  0.50681000  0.88665900  1
  O  1628  1  0.59529900  0.49240000  0.90088500  1
  O  1643  1  0.02477500  0.50552800  0.38806700  1
  O  1644  1  0.06489500  0.49131500  0.40206200  1
  O  1659  1  0.02469800  0.91277570  0.61127200  1
  O  1660  1  0.06500900  0.92729970  0.59742900  1
  O  1675  1  0.13541400  0.41198000  0.61329300  1
  O  1676  1  0.09604300  0.42649700  0.59908000  1
  O  1691  1  0.13527800  0.00660700  0.38607400  1
  O  1692  1  0.09587300  0.99231070  0.40036200  1
  O  1707  1  0.24761900  0.75225300  0.74924600  1
  O  1708  1  0.22865600  0.71504700  0.75478300  1
  O  1723  1  0.24819600  0.66690400  0.25062100  1
  O  1724  1  0.22866200  0.70397800  0.24518400  1
  O  1739  1  0.91237900  0.25207700  0.25037800  1
  O  1740  1  0.93080400  0.21487700  0.24463900  1
  O  1755  1  0.91252100  0.16807800  0.74938000  1
  O  1756  1  0.93091400  0.20537500  0.75500900  1
