# generated using pymatgen
data_H19C30N6O
_symmetry_space_group_name_H-M   'P 1'
_cell_length_a   35.04100000
_cell_length_b   50.02090000
_cell_length_c   91.88280000
_cell_angle_alpha   90.00000000
_cell_angle_beta   90.00000000
_cell_angle_gamma   90.07520000
_symmetry_Int_Tables_number   1
_chemical_formula_structural   H19C30N6O
_chemical_formula_sum   'H608 C960 N192 O32'
_cell_volume   161050.41202784
_cell_formula_units_Z   32
loop_
 _symmetry_equiv_pos_site_id
 _symmetry_equiv_pos_as_xyz
  1  'x, y, z'
loop_
 _atom_site_type_symbol
 _atom_site_label
 _atom_site_symmetry_multiplicity
 _atom_site_fract_x
 _atom_site_fract_y
 _atom_site_fract_z
 _atom_site_occupancy
  H  49  1  0.71903300  0.75722500  0.78249600  1
  H  50  1  0.75959600  0.75695800  0.80360900  1
  H  51  1  0.62357700  0.74165400  0.80922300  1
  H  52  1  0.66380700  0.74173900  0.83022900  1
  H  53  1  0.73256700  0.69624900  0.82097100  1
  H  54  1  0.76024800  0.66043500  0.83743000  1
  H  55  1  0.77393500  0.73257800  0.85753800  1
  H  56  1  0.79683800  0.76499100  0.87346300  1
  H  57  1  0.72576600  0.80388100  0.82239300  1
  H  58  1  0.75430200  0.83923700  0.83908000  1
  H  59  1  0.85195300  0.84614800  0.85486700  1
  H  60  1  0.86138900  0.89365200  0.85574500  1
  H  61  1  0.74255000  0.85551600  0.87350800  1
  H  62  1  0.75182600  0.90297800  0.87426200  1
  H  63  1  0.82578800  0.83730900  0.89084200  1
  H  64  1  0.84219000  0.80149300  0.90930500  1
  H  65  1  0.81924400  0.65851800  0.89147400  1
  H  66  1  0.83624100  0.69390700  0.91026400  1
  H  67  1  0.77966300  0.75314600  0.92317100  1
  H  68  1  0.79557600  0.75339100  0.94845700  1
  H  69  1  0.89593500  0.74290400  0.91249700  1
  H  70  1  0.91199000  0.74342600  0.93797400  1
  H  71  1  0.85393800  0.65334600  0.85609700  1
  H  72  1  0.86569500  0.60616300  0.85718800  1
  H  73  1  0.75342400  0.59353300  0.87243800  1
  H  74  1  0.74161300  0.64073800  0.87136300  1
  H  127  1  0.71933300  0.74159600  0.21636100  1
  H  128  1  0.75999100  0.74186100  0.19527100  1
  H  129  1  0.62388800  0.75642800  0.18952600  1
  H  130  1  0.66420400  0.75632700  0.16854600  1
  H  131  1  0.73299500  0.80220700  0.17766700  1
  H  132  1  0.76044800  0.83786100  0.16101500  1
  H  133  1  0.77400000  0.76546200  0.14119200  1
  H  134  1  0.79664200  0.73289000  0.12535400  1
  H  135  1  0.72652200  0.69455400  0.17676100  1
  H  136  1  0.75457100  0.65900900  0.16010600  1
  H  137  1  0.85174800  0.65209700  0.14366600  1
  H  138  1  0.86130000  0.60461700  0.14284400  1
  H  139  1  0.74139900  0.64217800  0.12590700  1
  H  140  1  0.75081100  0.59473400  0.12520500  1
  H  141  1  0.82273200  0.66030100  0.10771700  1
  H  142  1  0.83830200  0.69593200  0.08902600  1
  H  143  1  0.81881100  0.83915100  0.10685900  1
  H  144  1  0.83467800  0.80354800  0.08806500  1
  H  145  1  0.77595300  0.74506200  0.07567300  1
  H  146  1  0.79036900  0.74556500  0.05018800  1
  H  147  1  0.89309200  0.75381000  0.08540800  1
  H  148  1  0.90753500  0.75437100  0.05984100  1
  H  149  1  0.85413100  0.84455300  0.14216700  1
  H  150  1  0.86618500  0.89173100  0.14107100  1
  H  151  1  0.75378700  0.90453500  0.12605200  1
  H  152  1  0.74168100  0.85733500  0.12713300  1
  H  205  1  0.94836200  0.25596300  0.21641900  1
  H  206  1  0.90768100  0.25575000  0.19534000  1
  H  207  1  0.04411200  0.24307100  0.18945000  1
  H  208  1  0.00375900  0.24325000  0.16848300  1
  H  209  1  0.93799700  0.19616100  0.17715300  1
  H  210  1  0.91117100  0.16032300  0.16049500  1
  H  211  1  0.89206100  0.23285100  0.14152300  1
  H  212  1  0.86872200  0.26515600  0.12574700  1
  H  213  1  0.93915100  0.30393900  0.17708600  1
  H  214  1  0.91006100  0.33929700  0.16057900  1
  H  215  1  0.81096100  0.34485800  0.14180300  1
  H  216  1  0.79942700  0.39202700  0.14019300  1
  H  217  1  0.92456500  0.35696500  0.12785000  1
  H  218  1  0.91303700  0.40414700  0.12632000  1
  H  219  1  0.84305600  0.33768800  0.10795100  1
  H  220  1  0.82691300  0.30199800  0.08940100  1
  H  221  1  0.84717400  0.15882500  0.10727800  1
  H  222  1  0.82958700  0.19436200  0.08867200  1
  H  223  1  0.88686700  0.25443300  0.07553200  1
  H  224  1  0.86998600  0.25572500  0.05029300  1
  H  225  1  0.77091800  0.24375700  0.08667500  1
  H  226  1  0.75406100  0.24482100  0.06126800  1
  H  227  1  0.81952000  0.15142000  0.14534200  1
  H  228  1  0.81050900  0.10387200  0.14481000  1
  H  229  1  0.91707900  0.09495600  0.12384900  1
  H  230  1  0.92598800  0.14245000  0.12432700  1
  H  283  1  0.94816600  0.24275000  0.78209600  1
  H  284  1  0.90732400  0.24298100  0.80313500  1
  H  285  1  0.04395000  0.25454800  0.80922700  1
  H  286  1  0.00344600  0.25436900  0.83014600  1
  H  287  1  0.93847200  0.30205100  0.82142700  1
  H  288  1  0.91194300  0.33796900  0.83807300  1
  H  289  1  0.89146500  0.26546700  0.85691100  1
  H  290  1  0.86824200  0.23324900  0.87278800  1
  H  291  1  0.93728900  0.19431700  0.82121500  1
  H  292  1  0.90846000  0.15900500  0.83784900  1
  H  293  1  0.81045800  0.15348100  0.85796000  1
  H  294  1  0.79898800  0.10628400  0.85958300  1
  H  295  1  0.92543500  0.14130400  0.87008700  1
  H  296  1  0.91396900  0.09409300  0.87162900  1
  H  297  1  0.84644600  0.16069500  0.89134300  1
  H  298  1  0.83127900  0.19650200  0.90993900  1
  H  299  1  0.84757300  0.33962500  0.89121200  1
  H  300  1  0.83104400  0.30418500  0.91002300  1
  H  301  1  0.89136200  0.24476900  0.92266400  1
  H  302  1  0.87719000  0.24419700  0.94816400  1
  H  303  1  0.77433800  0.25499100  0.91321900  1
  H  304  1  0.76014700  0.25452300  0.93880900  1
  H  305  1  0.81995100  0.34677700  0.85299500  1
  H  306  1  0.81080900  0.39429500  0.85353400  1
  H  307  1  0.91699800  0.40349900  0.87476400  1
  H  308  1  0.92604000  0.35603900  0.87427800  1
  H  361  1  0.22541400  0.25917900  0.28224700  1
  H  362  1  0.26194300  0.25824700  0.30434700  1
  H  363  1  0.12527700  0.24240600  0.30613600  1
  H  364  1  0.16170000  0.24159600  0.32818300  1
  H  365  1  0.23169300  0.19653900  0.32046100  1
  H  366  1  0.25915800  0.16049700  0.33681800  1
  H  367  1  0.27007700  0.23213300  0.35770800  1
  H  368  1  0.29413700  0.26442600  0.37358700  1
  H  369  1  0.22373400  0.30409400  0.32258400  1
  H  370  1  0.25230300  0.33916800  0.33942500  1
  H  371  1  0.35008000  0.34529200  0.35509600  1
  H  372  1  0.36030200  0.39271500  0.35597400  1
  H  373  1  0.24106500  0.35550700  0.37391800  1
  H  374  1  0.25112400  0.40288800  0.37467100  1
  H  375  1  0.32404200  0.33643100  0.39112900  1
  H  376  1  0.34028000  0.30034300  0.40945700  1
  H  377  1  0.31624500  0.15765700  0.39117800  1
  H  378  1  0.33333333  0.19279600  0.41010200  1
  H  379  1  0.27722800  0.25204500  0.42323200  1
  H  380  1  0.29329200  0.25227000  0.44850400  1
  H  381  1  0.39342100  0.24173500  0.41245600  1
  H  382  1  0.40963000  0.24224500  0.43792000  1
  H  383  1  0.35198400  0.15360900  0.35588500  1
  H  384  1  0.36468900  0.10653500  0.35673700  1
  H  385  1  0.25232600  0.09245300  0.37147700  1
  H  386  1  0.23956100  0.13956200  0.37064500  1
  H  439  1  0.22568000  0.23910900  0.71660400  1
  H  440  1  0.26224600  0.23982900  0.69450800  1
  H  441  1  0.12550300  0.25506500  0.69260300  1
  H  442  1  0.16195200  0.25566600  0.67056700  1
  H  443  1  0.23201200  0.30111300  0.67812800  1
  H  444  1  0.25925200  0.33697500  0.66156700  1
  H  445  1  0.26994500  0.26504500  0.64097500  1
  H  446  1  0.29396900  0.23258900  0.62523600  1
  H  447  1  0.22439600  0.19352300  0.67656800  1
  H  448  1  0.25253400  0.15824000  0.65978200  1
  H  449  1  0.34984900  0.15208200  0.64342400  1
  H  450  1  0.36014800  0.10468100  0.64261700  1
  H  451  1  0.23981500  0.14132100  0.62554000  1
  H  452  1  0.24997400  0.09395600  0.62485200  1
  H  453  1  0.32089700  0.16027400  0.60743300  1
  H  454  1  0.33631900  0.19615700  0.58886500  1
  H  455  1  0.31574600  0.33912200  0.60710200  1
  H  456  1  0.33175900  0.30374400  0.58819300  1
  H  457  1  0.27349000  0.24525100  0.57560300  1
  H  458  1  0.28804100  0.24569800  0.55013000  1
  H  459  1  0.39057600  0.25401300  0.58542600  1
  H  460  1  0.40515900  0.25451400  0.55986500  1
  H  461  1  0.35200400  0.34343400  0.64236100  1
  H  462  1  0.36500600  0.39050200  0.64151500  1
  H  463  1  0.25260000  0.40475500  0.62692900  1
  H  464  1  0.23953800  0.35765500  0.62775500  1
  H  517  1  0.44200100  0.75777600  0.71664900  1
  H  518  1  0.40548100  0.75694300  0.69454500  1
  H  519  1  0.54269200  0.74396200  0.69257100  1
  H  520  1  0.50628000  0.74327300  0.67051900  1
  H  521  1  0.43915300  0.69648100  0.67767000  1
  H  522  1  0.41257600  0.66039900  0.66111700  1
  H  523  1  0.39644000  0.73250500  0.64126500  1
  H  524  1  0.37188900  0.76465800  0.62557600  1
  H  525  1  0.44160700  0.80422300  0.67684100  1
  H  526  1  0.41253600  0.83931200  0.66017600  1
  H  527  1  0.31324000  0.84406400  0.64143200  1
  H  528  1  0.30097500  0.89114400  0.63985900  1
  H  529  1  0.42662800  0.85706300  0.62747400  1
  H  530  1  0.41436500  0.90417000  0.62598900  1
  H  531  1  0.34513700  0.83687700  0.60762000  1
  H  532  1  0.32907900  0.80090200  0.58922600  1
  H  533  1  0.35072800  0.65800800  0.60750700  1
  H  534  1  0.33303700  0.69329700  0.58877400  1
  H  535  1  0.38957100  0.75396100  0.57546400  1
  H  536  1  0.37252200  0.75534300  0.55024500  1
  H  537  1  0.27389200  0.74212200  0.58667000  1
  H  538  1  0.25687200  0.74326000  0.56128000  1
  H  539  1  0.32208700  0.65160600  0.64566200  1
  H  540  1  0.31229000  0.60412700  0.64538600  1
  H  541  1  0.41886800  0.59395100  0.62462000  1
  H  542  1  0.42856500  0.64137400  0.62484600  1
  H  595  1  0.44177600  0.74034100  0.28187100  1
  H  596  1  0.40517300  0.74105300  0.30396000  1
  H  597  1  0.54262600  0.75292000  0.30609000  1
  H  598  1  0.50613800  0.75348900  0.32811700  1
  H  599  1  0.43988900  0.80091600  0.32096200  1
  H  600  1  0.41360300  0.83707500  0.33750100  1
  H  601  1  0.39598600  0.76496300  0.35720200  1
  H  602  1  0.37111800  0.73291100  0.37290800  1
  H  603  1  0.43976700  0.69320500  0.32146000  1
  H  604  1  0.41090300  0.65816500  0.33824000  1
  H  605  1  0.31278700  0.65342900  0.35837500  1
  H  606  1  0.30058900  0.60632100  0.35997300  1
  H  607  1  0.42759200  0.64035800  0.37043900  1
  H  608  1  0.41539500  0.59322200  0.37195100  1
  H  609  1  0.34890400  0.66063900  0.39173200  1
  H  610  1  0.33375600  0.69673200  0.41016500  1
  H  611  1  0.35088200  0.83959500  0.39095600  1
  H  612  1  0.33410200  0.80439000  0.40986800  1
  H  613  1  0.39410600  0.74522300  0.42273500  1
  H  614  1  0.37978500  0.74467600  0.44822300  1
  H  615  1  0.27706800  0.75502900  0.41318000  1
  H  616  1  0.26272500  0.75458000  0.43876200  1
  H  617  1  0.32274400  0.84575200  0.35261700  1
  H  618  1  0.31280400  0.89319700  0.35289100  1
  H  619  1  0.41877400  0.90366600  0.37409100  1
  H  620  1  0.42862300  0.85627800  0.37386300  1
  H  631  1  0.93676300  0.75599200  0.00851900  1
  H  634  1  0.98099500  0.74146000  0.98740300  1
  H  635  1  0.97697600  0.74394600  0.96819800  1
  H  636  1  0.94827100  0.72082100  0.97777200  1
  H  639  1  0.91040000  0.75160100  0.03364000  1
  H  641  1  0.82716200  0.77153600  0.96927500  1
  H  648  1  0.73417600  0.26254700  0.99038200  1
  H  651  1  0.68752800  0.24253500  0.01120800  1
  H  652  1  0.69034500  0.24602000  0.03040500  1
  H  653  1  0.71684200  0.22072900  0.02160500  1
  H  656  1  0.75864800  0.25687000  0.96504700  1
  H  658  1  0.84118400  0.23155900  0.02946200  1
  H  665  1  0.43459000  0.25552100  0.50851000  1
  H  668  1  0.47902900  0.24097000  0.48750800  1
  H  669  1  0.47495400  0.24291500  0.46828700  1
  H  670  1  0.44643600  0.21995400  0.47805600  1
  H  673  1  0.40816100  0.25145600  0.53364800  1
  H  675  1  0.32515500  0.27075200  0.46919200  1
  H  682  1  0.23679000  0.76261700  0.49043100  1
  H  685  1  0.19111200  0.74106400  0.51134100  1
  H  686  1  0.19344900  0.74536600  0.53049200  1
  H  687  1  0.22110200  0.72026000  0.52207000  1
  H  690  1  0.26108400  0.75689000  0.46504600  1
  H  692  1  0.34407600  0.73127900  0.52934100  1
  H  699  1  0.78886900  0.98883900  0.89135900  1
  H  702  1  0.76850700  0.05657700  0.88104100  1
  H  703  1  0.77646500  0.06836500  0.89890000  1
  H  704  1  0.75542000  0.03646100  0.89619600  1
  H  707  1  0.78219600  0.94373700  0.88106200  1
  H  709  1  0.89359500  0.04876100  0.86519400  1
  H  716  1  0.78847000  0.50932400  0.10751200  1
  H  719  1  0.76805100  0.44154600  0.11751500  1
  H  720  1  0.77653000  0.42974100  0.09970000  1
  H  721  1  0.75531200  0.46159200  0.10230400  1
  H  724  1  0.78159400  0.55430300  0.11795600  1
  H  726  1  0.89347300  0.44949400  0.13331800  1
  H  733  1  0.87973200  0.00876100  0.10787700  1
  H  736  1  0.89886900  0.94085000  0.11788400  1
  H  737  1  0.88995000  0.92905400  0.10009500  1
  H  738  1  0.91186500  0.96073100  0.10263200  1
  H  741  1  0.88695500  0.05384900  0.11805200  1
  H  743  1  0.77357800  0.94980500  0.13357300  1
  H  750  1  0.87972500  0.48965800  0.89056600  1
  H  753  1  0.89928900  0.55715200  0.88077300  1
  H  754  1  0.88968600  0.56925200  0.89845400  1
  H  755  1  0.91139600  0.53747200  0.89620200  1
  H  758  1  0.88679900  0.44451000  0.88047800  1
  H  760  1  0.77290500  0.54815800  0.86509300  1
  H  767  1  0.28859200  0.48867900  0.39143600  1
  H  770  1  0.26775400  0.55589600  0.38138400  1
  H  771  1  0.27676000  0.56818700  0.39907500  1
  H  772  1  0.25573600  0.53614700  0.39680500  1
  H  775  1  0.28189400  0.44352600  0.38127800  1
  H  777  1  0.39423700  0.54803700  0.36529800  1
  H  784  1  0.28821200  0.00864300  0.60744100  1
  H  787  1  0.26753700  0.94128400  0.61721000  1
  H  788  1  0.27680300  0.92919900  0.59950100  1
  H  789  1  0.25567300  0.96115300  0.60182500  1
  H  792  1  0.28120900  0.05365400  0.61776300  1
  H  794  1  0.39404900  0.94937300  0.63324500  1
  H  801  1  0.38031300  0.50801500  0.60885800  1
  H  804  1  0.40007900  0.44068400  0.61843800  1
  H  805  1  0.38979100  0.42855300  0.60081500  1
  H  806  1  0.41154300  0.46038800  0.60293900  1
  H  809  1  0.38791000  0.55310400  0.61890000  1
  H  811  1  0.27361200  0.44973000  0.63479400  1
  H  818  1  0.37962800  0.98940700  0.38979900  1
  H  821  1  0.39804400  0.05739400  0.37969400  1
  H  822  1  0.38901500  0.06905500  0.39750000  1
  H  823  1  0.41115400  0.03751600  0.39493000  1
  H  826  1  0.38741900  0.94432100  0.37979000  1
  H  828  1  0.27305600  0.04736900  0.36379800  1
  H  835  1  0.53784100  0.76470900  0.77328700  1
  H  838  1  0.48861800  0.80036700  0.76039500  1
  H  839  1  0.45698700  0.79411200  0.74569100  1
  H  840  1  0.50429700  0.80438100  0.74211800  1
  H  843  1  0.59476300  0.76062100  0.78822800  1
  H  845  1  0.56896100  0.74763300  0.71618600  1
  H  852  1  0.53809200  0.73321600  0.22533700  1
  H  855  1  0.48823900  0.69760800  0.23808600  1
  H  856  1  0.45685500  0.70375800  0.25287900  1
  H  857  1  0.50414000  0.69337800  0.25631100  1
  H  860  1  0.59523100  0.73718300  0.21049500  1
  H  862  1  0.56878400  0.75044000  0.28246200  1
  H  869  1  0.12958700  0.26532000  0.22557400  1
  H  872  1  0.17909400  0.30083700  0.23841700  1
  H  873  1  0.21036600  0.29476000  0.25325200  1
  H  874  1  0.16295000  0.30491600  0.25662200  1
  H  877  1  0.07267600  0.26120300  0.21064200  1
  H  879  1  0.09879400  0.24695300  0.28259400  1
  H  886  1  0.12945500  0.23275400  0.77317800  1
  H  889  1  0.18018200  0.19820700  0.76087300  1
  H  890  1  0.21095400  0.20391700  0.74583500  1
  H  891  1  0.16364700  0.19304000  0.74279600  1
  H  894  1  0.07231400  0.23647900  0.78801600  1
  H  896  1  0.09917100  0.25171200  0.71618200  1
  H  945  1  0.46219100  0.65726700  0.78249600  1
  H  946  1  0.50275400  0.65700000  0.80360900  1
  H  947  1  0.36673500  0.64169600  0.80922300  1
  H  948  1  0.40696500  0.64178100  0.83022900  1
  H  949  1  0.47572500  0.59629100  0.82097100  1
  H  950  1  0.50340600  0.56047700  0.83743000  1
  H  951  1  0.51709300  0.63262000  0.85753800  1
  H  952  1  0.53999600  0.66503300  0.87346300  1
  H  953  1  0.46892400  0.70392300  0.82239300  1
  H  954  1  0.49746000  0.73927900  0.83908000  1
  H  955  1  0.59511100  0.74619000  0.85486700  1
  H  956  1  0.60454700  0.79369400  0.85574500  1
  H  957  1  0.48570800  0.75555800  0.87350800  1
  H  958  1  0.49498400  0.80302000  0.87426200  1
  H  959  1  0.56894600  0.73735100  0.89084200  1
  H  960  1  0.58534800  0.70153500  0.90930500  1
  H  961  1  0.56240200  0.55856000  0.89147400  1
  H  962  1  0.57939900  0.59394900  0.91026400  1
  H  963  1  0.52282100  0.65318800  0.92317100  1
  H  964  1  0.53873400  0.65343300  0.94845700  1
  H  965  1  0.63909300  0.64294600  0.91249700  1
  H  966  1  0.65514800  0.64346800  0.93797400  1
  H  967  1  0.59709600  0.55338800  0.85609700  1
  H  968  1  0.60885300  0.50620500  0.85718800  1
  H  969  1  0.49658200  0.49357500  0.87243800  1
  H  970  1  0.48477100  0.54078000  0.87136300  1
  H  1023  1  0.46249100  0.64163800  0.21636100  1
  H  1024  1  0.50314900  0.64190300  0.19527100  1
  H  1025  1  0.36704600  0.65647000  0.18952600  1
  H  1026  1  0.40736200  0.65636900  0.16854600  1
  H  1027  1  0.47615300  0.70224900  0.17766700  1
  H  1028  1  0.50360600  0.73790300  0.16101500  1
  H  1029  1  0.51715800  0.66550400  0.14119200  1
  H  1030  1  0.53980000  0.63293200  0.12535400  1
  H  1031  1  0.46968000  0.59459600  0.17676100  1
  H  1032  1  0.49772900  0.55905100  0.16010600  1
  H  1033  1  0.59490600  0.55213900  0.14366600  1
  H  1034  1  0.60445800  0.50465900  0.14284400  1
  H  1035  1  0.48455700  0.54222000  0.12590700  1
  H  1036  1  0.49396900  0.49477600  0.12520500  1
  H  1037  1  0.56589000  0.56034300  0.10771700  1
  H  1038  1  0.58146000  0.59597400  0.08902600  1
  H  1039  1  0.56196900  0.73919300  0.10685900  1
  H  1040  1  0.57783600  0.70359000  0.08806500  1
  H  1041  1  0.51911100  0.64510400  0.07567300  1
  H  1042  1  0.53352700  0.64560700  0.05018800  1
  H  1043  1  0.63625000  0.65385200  0.08540800  1
  H  1044  1  0.65069300  0.65441300  0.05984100  1
  H  1045  1  0.59728900  0.74459500  0.14216700  1
  H  1046  1  0.60934300  0.79177300  0.14107100  1
  H  1047  1  0.49694500  0.80457700  0.12605200  1
  H  1048  1  0.48483900  0.75737700  0.12713300  1
  H  1101  1  0.69152000  0.15600500  0.21641900  1
  H  1102  1  0.65083900  0.15579200  0.19534000  1
  H  1103  1  0.78727000  0.14311300  0.18945000  1
  H  1104  1  0.74691700  0.14329200  0.16848300  1
  H  1105  1  0.68115500  0.09620300  0.17715300  1
  H  1106  1  0.65432900  0.06036500  0.16049500  1
  H  1107  1  0.63521900  0.13289300  0.14152300  1
  H  1108  1  0.61188000  0.16519800  0.12574700  1
  H  1109  1  0.68230900  0.20398100  0.17708600  1
  H  1110  1  0.65321900  0.23933900  0.16057900  1
  H  1111  1  0.55411900  0.24490000  0.14180300  1
  H  1112  1  0.54258500  0.29206900  0.14019300  1
  H  1113  1  0.66772300  0.25700700  0.12785000  1
  H  1114  1  0.65619500  0.30418900  0.12632000  1
  H  1115  1  0.58621400  0.23773000  0.10795100  1
  H  1116  1  0.57007100  0.20204000  0.08940100  1
  H  1117  1  0.59033200  0.05886700  0.10727800  1
  H  1118  1  0.57274500  0.09440400  0.08867200  1
  H  1119  1  0.63002500  0.15447500  0.07553200  1
  H  1120  1  0.61314400  0.15576700  0.05029300  1
  H  1121  1  0.51407600  0.14379900  0.08667500  1
  H  1122  1  0.49721900  0.14486300  0.06126800  1
  H  1123  1  0.56267800  0.05146200  0.14534200  1
  H  1124  1  0.55366700  0.00391400  0.14481000  1
  H  1125  1  0.66023700  0.99499778  0.12384900  1
  H  1126  1  0.66914600  0.04249200  0.12432700  1
  H  1179  1  0.69132400  0.14279200  0.78209600  1
  H  1180  1  0.65048200  0.14302300  0.80313500  1
  H  1181  1  0.78710800  0.15459000  0.80922700  1
  H  1182  1  0.74660400  0.15441100  0.83014600  1
  H  1183  1  0.68163000  0.20209300  0.82142700  1
  H  1184  1  0.65510100  0.23801100  0.83807300  1
  H  1185  1  0.63462300  0.16550900  0.85691100  1
  H  1186  1  0.61140000  0.13329100  0.87278800  1
  H  1187  1  0.68044700  0.09435900  0.82121500  1
  H  1188  1  0.65161800  0.05904700  0.83784900  1
  H  1189  1  0.55361600  0.05352300  0.85796000  1
  H  1190  1  0.54214600  0.00632600  0.85958300  1
  H  1191  1  0.66859300  0.04134600  0.87008700  1
  H  1192  1  0.65712700  0.99413478  0.87162900  1
  H  1193  1  0.58960400  0.06073700  0.89134300  1
  H  1194  1  0.57443700  0.09654400  0.90993900  1
  H  1195  1  0.59073100  0.23966700  0.89121200  1
  H  1196  1  0.57420200  0.20422700  0.91002300  1
  H  1197  1  0.63452000  0.14481100  0.92266400  1
  H  1198  1  0.62034800  0.14423900  0.94816400  1
  H  1199  1  0.51749600  0.15503300  0.91321900  1
  H  1200  1  0.50330500  0.15456500  0.93880900  1
  H  1201  1  0.56310900  0.24681900  0.85299500  1
  H  1202  1  0.55396700  0.29433700  0.85353400  1
  H  1203  1  0.66015600  0.30354100  0.87476400  1
  H  1204  1  0.66919800  0.25608100  0.87427800  1
  H  1257  1  0.96857200  0.15922100  0.28224700  1
  H  1258  1  0.00510100  0.15828900  0.30434700  1
  H  1259  1  0.86843500  0.14244800  0.30613600  1
  H  1260  1  0.90485800  0.14163800  0.32818300  1
  H  1261  1  0.97485100  0.09658100  0.32046100  1
  H  1262  1  0.00231600  0.06053900  0.33681800  1
  H  1263  1  0.01323500  0.13217500  0.35770800  1
  H  1264  1  0.03729500  0.16446800  0.37358700  1
  H  1265  1  0.96689200  0.20413600  0.32258400  1
  H  1266  1  0.99546101  0.23921000  0.33942500  1
  H  1267  1  0.09323800  0.24533400  0.35509600  1
  H  1268  1  0.10346000  0.29275700  0.35597400  1
  H  1269  1  0.98422300  0.25554900  0.37391800  1
  H  1270  1  0.99428201  0.30293000  0.37467100  1
  H  1271  1  0.06720000  0.23647300  0.39112900  1
  H  1272  1  0.08343800  0.20038500  0.40945700  1
  H  1273  1  0.05940300  0.05769900  0.39117800  1
  H  1274  1  0.07648100  0.09283800  0.41010200  1
  H  1275  1  0.02038600  0.15208700  0.42323200  1
  H  1276  1  0.03645000  0.15231200  0.44850400  1
  H  1277  1  0.13657900  0.14177700  0.41245600  1
  H  1278  1  0.15278800  0.14228700  0.43792000  1
  H  1279  1  0.09514200  0.05365100  0.35588500  1
  H  1280  1  0.10784700  0.00657700  0.35673700  1
  H  1281  1  0.99548401  0.99249478  0.37147700  1
  H  1282  1  0.98271900  0.03960400  0.37064500  1
  H  1335  1  0.96883800  0.13915100  0.71660400  1
  H  1336  1  0.00540400  0.13987100  0.69450800  1
  H  1337  1  0.86866100  0.15510700  0.69260300  1
  H  1338  1  0.90511000  0.15570800  0.67056700  1
  H  1339  1  0.97517000  0.20115500  0.67812800  1
  H  1340  1  0.00241000  0.23701700  0.66156700  1
  H  1341  1  0.01310300  0.16508700  0.64097500  1
  H  1342  1  0.03712700  0.13263100  0.62523600  1
  H  1343  1  0.96755400  0.09356500  0.67656800  1
  H  1344  1  0.99569201  0.05828200  0.65978200  1
  H  1345  1  0.09300700  0.05212400  0.64342400  1
  H  1346  1  0.10330600  0.00472300  0.64261700  1
  H  1347  1  0.98297300  0.04136300  0.62554000  1
  H  1348  1  0.99313201  0.99399778  0.62485200  1
  H  1349  1  0.06405500  0.06031600  0.60743300  1
  H  1350  1  0.07947700  0.09619900  0.58886500  1
  H  1351  1  0.05890400  0.23916400  0.60710200  1
  H  1352  1  0.07491700  0.20378600  0.58819300  1
  H  1353  1  0.01664800  0.14529300  0.57560300  1
  H  1354  1  0.03119900  0.14574000  0.55013000  1
  H  1355  1  0.13373400  0.15405500  0.58542600  1
  H  1356  1  0.14831700  0.15455600  0.55986500  1
  H  1357  1  0.09516200  0.24347600  0.64236100  1
  H  1358  1  0.10816400  0.29054400  0.64151500  1
  H  1359  1  0.99575801  0.30479700  0.62692900  1
  H  1360  1  0.98269600  0.25769700  0.62775500  1
  H  1413  1  0.18515900  0.65781800  0.71664900  1
  H  1414  1  0.14863900  0.65698500  0.69454500  1
  H  1415  1  0.28585000  0.64400400  0.69257100  1
  H  1416  1  0.24943800  0.64331500  0.67051900  1
  H  1417  1  0.18231100  0.59652300  0.67767000  1
  H  1418  1  0.15573400  0.56044100  0.66111700  1
  H  1419  1  0.13959800  0.63254700  0.64126500  1
  H  1420  1  0.11504700  0.66470000  0.62557600  1
  H  1421  1  0.18476500  0.70426500  0.67684100  1
  H  1422  1  0.15569400  0.73935400  0.66017600  1
  H  1423  1  0.05639800  0.74410600  0.64143200  1
  H  1424  1  0.04413300  0.79118600  0.63985900  1
  H  1425  1  0.16978600  0.75710500  0.62747400  1
  H  1426  1  0.15752300  0.80421200  0.62598900  1
  H  1427  1  0.08829500  0.73691900  0.60762000  1
  H  1428  1  0.07223700  0.70094400  0.58922600  1
  H  1429  1  0.09388600  0.55805000  0.60750700  1
  H  1430  1  0.07619500  0.59333900  0.58877400  1
  H  1431  1  0.13272900  0.65400300  0.57546400  1
  H  1432  1  0.11568000  0.65538500  0.55024500  1
  H  1433  1  0.01705000  0.64216400  0.58667000  1
  H  1434  1  0.00003000  0.64330200  0.56128000  1
  H  1435  1  0.06524500  0.55164800  0.64566200  1
  H  1436  1  0.05544800  0.50416900  0.64538600  1
  H  1437  1  0.16202600  0.49399300  0.62462000  1
  H  1438  1  0.17172300  0.54141600  0.62484600  1
  H  1491  1  0.18493400  0.64038300  0.28187100  1
  H  1492  1  0.14833100  0.64109500  0.30396000  1
  H  1493  1  0.28578400  0.65296200  0.30609000  1
  H  1494  1  0.24929600  0.65353100  0.32811700  1
  H  1495  1  0.18304700  0.70095800  0.32096200  1
  H  1496  1  0.15676100  0.73711700  0.33750100  1
  H  1497  1  0.13914400  0.66500500  0.35720200  1
  H  1498  1  0.11427600  0.63295300  0.37290800  1
  H  1499  1  0.18292500  0.59324700  0.32146000  1
  H  1500  1  0.15406100  0.55820700  0.33824000  1
  H  1501  1  0.05594500  0.55347100  0.35837500  1
  H  1502  1  0.04374700  0.50636300  0.35997300  1
  H  1503  1  0.17075000  0.54040000  0.37043900  1
  H  1504  1  0.15855300  0.49326400  0.37195100  1
  H  1505  1  0.09206200  0.56068100  0.39173200  1
  H  1506  1  0.07691400  0.59677400  0.41016500  1
  H  1507  1  0.09404000  0.73963700  0.39095600  1
  H  1508  1  0.07726000  0.70443200  0.40986800  1
  H  1509  1  0.13726400  0.64526500  0.42273500  1
  H  1510  1  0.12294300  0.64471800  0.44822300  1
  H  1511  1  0.02022600  0.65507100  0.41318000  1
  H  1512  1  0.00588300  0.65462200  0.43876200  1
  H  1513  1  0.06590200  0.74579400  0.35261700  1
  H  1514  1  0.05596200  0.79323900  0.35289100  1
  H  1515  1  0.16193200  0.80370800  0.37409100  1
  H  1516  1  0.17178100  0.75632000  0.37386300  1
  H  1527  1  0.67992100  0.65603400  0.00851900  1
  H  1530  1  0.72415300  0.64150200  0.98740300  1
  H  1531  1  0.72013400  0.64398800  0.96819800  1
  H  1532  1  0.69142900  0.62086300  0.97777200  1
  H  1535  1  0.65355800  0.65164300  0.03364000  1
  H  1537  1  0.57032000  0.67157800  0.96927500  1
  H  1544  1  0.47733400  0.16258900  0.99038200  1
  H  1547  1  0.43068600  0.14257700  0.01120800  1
  H  1548  1  0.43350300  0.14606200  0.03040500  1
  H  1549  1  0.46000000  0.12077100  0.02160500  1
  H  1552  1  0.50180600  0.15691200  0.96504700  1
  H  1554  1  0.58434200  0.13160100  0.02946200  1
  H  1561  1  0.17774800  0.15556300  0.50851000  1
  H  1564  1  0.22218700  0.14101200  0.48750800  1
  H  1565  1  0.21811200  0.14295700  0.46828700  1
  H  1566  1  0.18959400  0.11999600  0.47805600  1
  H  1569  1  0.15131900  0.15149800  0.53364800  1
  H  1571  1  0.06831300  0.17079400  0.46919200  1
  H  1578  1  0.97994800  0.66265900  0.49043100  1
  H  1581  1  0.93427000  0.64110600  0.51134100  1
  H  1582  1  0.93660700  0.64540800  0.53049200  1
  H  1583  1  0.96426000  0.62030200  0.52207000  1
  H  1586  1  0.00424200  0.65693200  0.46504600  1
  H  1588  1  0.08723400  0.63132100  0.52934100  1
  H  1595  1  0.53202700  0.88888100  0.89135900  1
  H  1598  1  0.51166500  0.95661880  0.88104100  1
  H  1599  1  0.51962300  0.96840680  0.89890000  1
  H  1600  1  0.49857800  0.93650280  0.89619600  1
  H  1603  1  0.52535400  0.84377900  0.88106200  1
  H  1605  1  0.63675300  0.94880280  0.86519400  1
  H  1612  1  0.53162800  0.40936600  0.10751200  1
  H  1615  1  0.51120900  0.34158800  0.11751500  1
  H  1616  1  0.51968800  0.32978300  0.09970000  1
  H  1617  1  0.49847000  0.36163400  0.10230400  1
  H  1620  1  0.52475200  0.45434500  0.11795600  1
  H  1622  1  0.63663100  0.34953600  0.13331800  1
  H  1629  1  0.62289000  0.90880280  0.10787700  1
  H  1632  1  0.64202700  0.84089200  0.11788400  1
  H  1633  1  0.63310800  0.82909600  0.10009500  1
  H  1634  1  0.65502300  0.86077300  0.10263200  1
  H  1637  1  0.63011300  0.95389080  0.11805200  1
  H  1639  1  0.51673600  0.84984700  0.13357300  1
  H  1646  1  0.62288300  0.38970000  0.89056600  1
  H  1649  1  0.64244700  0.45719400  0.88077300  1
  H  1650  1  0.63284400  0.46929400  0.89845400  1
  H  1651  1  0.65455400  0.43751400  0.89620200  1
  H  1654  1  0.62995700  0.34455200  0.88047800  1
  H  1656  1  0.51606300  0.44820000  0.86509300  1
  H  1663  1  0.03175000  0.38872100  0.39143600  1
  H  1666  1  0.01091200  0.45593800  0.38138400  1
  H  1667  1  0.01991800  0.46822900  0.39907500  1
  H  1668  1  0.99889401  0.43618900  0.39680500  1
  H  1671  1  0.02505200  0.34356800  0.38127800  1
  H  1673  1  0.13739500  0.44807900  0.36529800  1
  H  1680  1  0.03137000  0.90868480  0.60744100  1
  H  1683  1  0.01069500  0.84132600  0.61721000  1
  H  1684  1  0.01996100  0.82924100  0.59950100  1
  H  1685  1  0.99883101  0.86119500  0.60182500  1
  H  1688  1  0.02436700  0.95369580  0.61776300  1
  H  1690  1  0.13720700  0.84941500  0.63324500  1
  H  1697  1  0.12347100  0.40805700  0.60885800  1
  H  1700  1  0.14323700  0.34072600  0.61843800  1
  H  1701  1  0.13294900  0.32859500  0.60081500  1
  H  1702  1  0.15470100  0.36043000  0.60293900  1
  H  1705  1  0.13106800  0.45314600  0.61890000  1
  H  1707  1  0.01677000  0.34977200  0.63479400  1
  H  1714  1  0.12278600  0.88944900  0.38979900  1
  H  1717  1  0.14120200  0.95743580  0.37969400  1
  H  1718  1  0.13217300  0.96909680  0.39750000  1
  H  1719  1  0.15431200  0.93755780  0.39493000  1
  H  1722  1  0.13057700  0.84436300  0.37979000  1
  H  1724  1  0.01621400  0.94741080  0.36379800  1
  H  1731  1  0.28099900  0.66475100  0.77328700  1
  H  1734  1  0.23177600  0.70040900  0.76039500  1
  H  1735  1  0.20014500  0.69415400  0.74569100  1
  H  1736  1  0.24745500  0.70442300  0.74211800  1
  H  1739  1  0.33792100  0.66066300  0.78822800  1
  H  1741  1  0.31211900  0.64767500  0.71618600  1
  H  1748  1  0.28125000  0.63325800  0.22533700  1
  H  1751  1  0.23139700  0.59765000  0.23808600  1
  H  1752  1  0.20001300  0.60380000  0.25287900  1
  H  1753  1  0.24729800  0.59342000  0.25631100  1
  H  1756  1  0.33838900  0.63722500  0.21049500  1
  H  1758  1  0.31194200  0.65048200  0.28246200  1
  H  1765  1  0.87274500  0.16536200  0.22557400  1
  H  1768  1  0.92225200  0.20087900  0.23841700  1
  H  1769  1  0.95352400  0.19480200  0.25325200  1
  H  1770  1  0.90610800  0.20495800  0.25662200  1
  H  1773  1  0.81583400  0.16124500  0.21064200  1
  H  1775  1  0.84195200  0.14699500  0.28259400  1
  H  1782  1  0.87261300  0.13279600  0.77317800  1
  H  1785  1  0.92334000  0.09824900  0.76087300  1
  H  1786  1  0.95411200  0.10395900  0.74583500  1
  H  1787  1  0.90680500  0.09308200  0.74279600  1
  H  1790  1  0.81547200  0.13652100  0.78801600  1
  H  1792  1  0.84232900  0.15175400  0.71618200  1
  C  1  1  0.74479000  0.69987100  0.83087900  1
  C  2  1  0.76026400  0.68041500  0.83976200  1
  C  3  1  0.77452200  0.69282100  0.85226500  1
  C  5  1  0.75001500  0.72465700  0.83760800  1
  C  6  1  0.73881800  0.74967400  0.83161300  1
  C  7  1  0.74871400  0.77485500  0.83767500  1
  C  9  1  0.77350900  0.80598900  0.85244100  1
  C  10  1  0.75620200  0.81908200  0.84075000  1
  C  11  1  0.74026200  0.79990500  0.83179700  1
  C  12  1  0.79204800  0.81835600  0.86441900  1
  C  13  1  0.80620700  0.80484400  0.87693000  1
  C  15  1  0.82087100  0.77300200  0.89337300  1
  C  16  1  0.83041200  0.79782000  0.89932500  1
  C  17  1  0.82191500  0.81728400  0.88918400  1
  C  18  1  0.82596800  0.74801100  0.90048400  1
  C  19  1  0.81950600  0.72284800  0.89380800  1
  C  21  1  0.80432300  0.69173500  0.87728500  1
  C  22  1  0.81735800  0.67866600  0.88978000  1
  C  23  1  0.82601100  0.69784400  0.90007200  1
  C  24  1  0.79138200  0.67934600  0.86427800  1
  C  25  1  0.79636800  0.65121600  0.86326000  1
  C  26  1  0.76733400  0.63351300  0.86785000  1
  C  27  1  0.77423700  0.60582500  0.86841700  1
  C  28  1  0.81026700  0.59541000  0.86441400  1
  C  29  1  0.83907300  0.61315700  0.85974500  1
  C  30  1  0.83219000  0.64081000  0.85909200  1
  C  31  1  0.83637600  0.74822700  0.91549000  1
  C  32  1  0.80769300  0.75128300  0.92615400  1
  C  33  1  0.81713500  0.75161300  0.94102700  1
  C  34  1  0.85553500  0.74917200  0.94564400  1
  C  35  1  0.88404600  0.74560400  0.93495300  1
  C  36  1  0.87468600  0.74530300  0.92002500  1
  C  37  1  0.79628000  0.84660400  0.86400700  1
  C  38  1  0.83052800  0.85802900  0.85879700  1
  C  39  1  0.83603800  0.88586400  0.85933300  1
  C  40  1  0.80772000  0.90274900  0.86520000  1
  C  41  1  0.77308800  0.89126500  0.87011800  1
  C  42  1  0.76746600  0.86343500  0.86958600  1
  C  43  1  0.71543200  0.74951700  0.81888900  1
  C  44  1  0.73092100  0.75381300  0.80487800  1
  C  45  1  0.67576500  0.74508000  0.82022400  1
  C  46  1  0.65207000  0.74524800  0.80785700  1
  C  47  1  0.66730900  0.75004800  0.79381800  1
  C  48  1  0.70710000  0.75394100  0.79250700  1
  C  79  1  0.74510100  0.79848200  0.16775200  1
  C  80  1  0.76051600  0.81784600  0.15877600  1
  C  81  1  0.77454100  0.80530700  0.14628200  1
  C  83  1  0.75024900  0.77361700  0.16110900  1
  C  84  1  0.73919400  0.74865100  0.16722700  1
  C  85  1  0.74901800  0.72340100  0.16125900  1
  C  87  1  0.77337100  0.69209800  0.14652400  1
  C  88  1  0.75655200  0.67914400  0.15837300  1
  C  89  1  0.74086600  0.69842400  0.16730900  1
  C  90  1  0.79131600  0.67959000  0.13447100  1
  C  91  1  0.80479900  0.69295100  0.12179800  1
  C  93  1  0.81869400  0.72462200  0.10515000  1
  C  94  1  0.82739200  0.69972300  0.09913300  1
  C  95  1  0.81942100  0.68035900  0.10940400  1
  C  96  1  0.82372800  0.74955400  0.09797100  1
  C  97  1  0.81787600  0.77480000  0.10462900  1
  C  99  1  0.80364500  0.80611000  0.12115100  1
  C  100  1  0.81647300  0.81902800  0.10857300  1
  C  101  1  0.82460000  0.79973200  0.09829400  1
  C  102  1  0.79122700  0.81864900  0.13418100  1
  C  103  1  0.79648500  0.84677700  0.13511400  1
  C  104  1  0.76750900  0.86452300  0.13058200  1
  C  105  1  0.77461600  0.89219900  0.12998400  1
  C  106  1  0.81074400  0.90256800  0.13394400  1
  C  107  1  0.83950900  0.88476700  0.13853000  1
  C  108  1  0.83244000  0.85712700  0.13920700  1
  C  109  1  0.83323700  0.74925700  0.08288500  1
  C  110  1  0.80382500  0.74681500  0.07245700  1
  C  111  1  0.81232100  0.74712300  0.05750100  1
  C  112  1  0.85029000  0.74978500  0.05258800  1
  C  113  1  0.87978600  0.75214100  0.06304000  1
  C  114  1  0.87134700  0.75185700  0.07804500  1
  C  115  1  0.79559200  0.65136000  0.13496900  1
  C  116  1  0.83014500  0.64010400  0.13994800  1
  C  117  1  0.83571800  0.61228300  0.13945100  1
  C  118  1  0.80716800  0.59525600  0.13383200  1
  C  119  1  0.77222600  0.60656500  0.12916400  1
  C  120  1  0.76652700  0.63437800  0.12967300  1
  C  121  1  0.71582900  0.74893300  0.17994900  1
  C  122  1  0.73130600  0.74487100  0.19397900  1
  C  123  1  0.67614400  0.75316700  0.17857100  1
  C  124  1  0.65240400  0.75300500  0.19092100  1
  C  125  1  0.66762000  0.74838500  0.20497900  1
  C  126  1  0.70743100  0.74473100  0.20633100  1
  C  157  1  0.92488700  0.19987500  0.16742500  1
  C  158  1  0.90980500  0.18038500  0.15845100  1
  C  159  1  0.89417700  0.19290000  0.14622800  1
  C  161  1  0.91808200  0.22477400  0.16104300  1
  C  162  1  0.92847800  0.24981900  0.16724700  1
  C  163  1  0.91788400  0.27500300  0.16138300  1
  C  165  1  0.89266600  0.30616300  0.14675700  1
  C  166  1  0.90896300  0.31917600  0.15869100  1
  C  167  1  0.92518300  0.30000300  0.16755900  1
  C  168  1  0.87431900  0.31855900  0.13475700  1
  C  169  1  0.86095300  0.30509800  0.12208800  1
  C  171  1  0.84668900  0.27334000  0.10552200  1
  C  172  1  0.83801900  0.29822800  0.09948000  1
  C  173  1  0.84631700  0.31763500  0.10968000  1
  C  174  1  0.84122800  0.24838600  0.09839900  1
  C  175  1  0.84758300  0.22316800  0.10502000  1
  C  177  1  0.86348500  0.19191400  0.12135700  1
  C  178  1  0.84960200  0.17895200  0.10895400  1
  C  179  1  0.84041300  0.19821400  0.09878600  1
  C  180  1  0.87725400  0.17944200  0.13420800  1
  C  181  1  0.87370900  0.15117200  0.13498600  1
  C  182  1  0.90188500  0.13443100  0.12887700  1
  C  183  1  0.89645500  0.10657000  0.12850800  1
  C  184  1  0.86272500  0.09495400  0.13419100  1
  C  185  1  0.83522800  0.11174300  0.14067600  1
  C  186  1  0.84049300  0.13961200  0.14101100  1
  C  187  1  0.83048500  0.24866200  0.08342500  1
  C  188  1  0.85882400  0.25213400  0.07265400  1
  C  189  1  0.84892200  0.25271700  0.05782400  1
  C  190  1  0.81050000  0.24960900  0.05337800  1
  C  191  1  0.78213300  0.24669600  0.06418100  1
  C  192  1  0.79198400  0.24602900  0.07905700  1
  C  193  1  0.86911200  0.34672800  0.13533500  1
  C  194  1  0.83296100  0.35728900  0.13894600  1
  C  195  1  0.82620200  0.38492700  0.13797700  1
  C  196  1  0.85547400  0.40254200  0.13358700  1
  C  197  1  0.89178100  0.39197400  0.13010200  1
  C  198  1  0.89852000  0.36428800  0.13092800  1
  C  199  1  0.95197600  0.24971100  0.17994500  1
  C  200  1  0.93644500  0.25318700  0.19401400  1
  C  201  1  0.99176800  0.24602900  0.17853200  1
  C  202  1  0.01552600  0.24612500  0.19088100  1
  C  203  1  0.00023800  0.25013300  0.20498500  1
  C  204  1  0.96033900  0.25328700  0.20636400  1
  C  235  1  0.92534600  0.29838000  0.83116000  1
  C  236  1  0.91033000  0.31791000  0.84010400  1
  C  237  1  0.89441800  0.30543300  0.85229300  1
  C  239  1  0.91808000  0.27349200  0.83750000  1
  C  240  1  0.92808200  0.24841000  0.83127100  1
  C  241  1  0.91728200  0.22325200  0.83713400  1
  C  243  1  0.89233300  0.19213200  0.85187800  1
  C  244  1  0.90775500  0.17911600  0.83978500  1
  C  245  1  0.92387200  0.19825900  0.83085100  1
  C  246  1  0.87460300  0.17975900  0.86402800  1
  C  247  1  0.86218600  0.19326800  0.87681300  1
  C  249  1  0.84881300  0.22512800  0.89341200  1
  C  250  1  0.84130400  0.20023800  0.89969100  1
  C  251  1  0.84896700  0.18075900  0.88946500  1
  C  252  1  0.84340900  0.25013700  0.90047700  1
  C  253  1  0.84897800  0.27532200  0.89371000  1
  C  255  1  0.86397900  0.30650000  0.87719700  1
  C  256  1  0.85014900  0.31949800  0.88958800  1
  C  257  1  0.84158900  0.30029000  0.89987400  1
  C  258  1  0.87751600  0.31892400  0.86429200  1
  C  259  1  0.87398000  0.34717900  0.86347300  1
  C  260  1  0.90201700  0.36399500  0.86965700  1
  C  261  1  0.89650800  0.39183500  0.87003000  1
  C  262  1  0.86284000  0.40335300  0.86427300  1
  C  263  1  0.83550400  0.38649300  0.85770400  1
  C  264  1  0.84085200  0.35864300  0.85736000  1
  C  265  1  0.83414600  0.24999100  0.91559100  1
  C  266  1  0.86360100  0.24687300  0.92594600  1
  C  267  1  0.85524800  0.24654100  0.94091400  1
  C  268  1  0.81741100  0.24944100  0.94591900  1
  C  269  1  0.78787700  0.25255100  0.93554500  1
  C  270  1  0.79615500  0.25278200  0.92052500  1
  C  271  1  0.86924100  0.15158400  0.86352200  1
  C  272  1  0.83270600  0.14103700  0.86044300  1
  C  273  1  0.82598400  0.11338400  0.86142800  1
  C  274  1  0.85565700  0.09574100  0.86529800  1
  C  275  1  0.89234100  0.10629400  0.86824200  1
  C  276  1  0.89906300  0.13399300  0.86739400  1
  C  277  1  0.95163400  0.24844700  0.81859600  1
  C  278  1  0.93612700  0.24529400  0.80450100  1
  C  279  1  0.99147900  0.25180700  0.82007300  1
  C  280  1  0.01532300  0.25171300  0.80775200  1
  C  281  1  0.00005200  0.24802600  0.79361800  1
  C  282  1  0.96011100  0.24519000  0.79217800  1
  C  313  1  0.24321700  0.19997400  0.33050900  1
  C  314  1  0.25855300  0.18039000  0.33934500  1
  C  315  1  0.27198600  0.19254700  0.35205100  1
  C  317  1  0.24764000  0.22461000  0.33748200  1
  C  318  1  0.23657600  0.24972900  0.33156500  1
  C  319  1  0.24626400  0.27480700  0.33781200  1
  C  321  1  0.27110100  0.30571900  0.35272000  1
  C  322  1  0.25396700  0.31899200  0.34105400  1
  C  323  1  0.23803400  0.29995700  0.33200900  1
  C  324  1  0.28982200  0.31792600  0.36470800  1
  C  325  1  0.30397100  0.30420800  0.37715400  1
  C  327  1  0.31849400  0.27211900  0.39347300  1
  C  328  1  0.32835100  0.29683200  0.39948500  1
  C  329  1  0.31994700  0.31644400  0.38941700  1
  C  330  1  0.32340300  0.24703000  0.40050100  1
  C  331  1  0.31672800  0.22196000  0.39374500  1
  C  333  1  0.30146600  0.19106900  0.37710600  1
  C  334  1  0.31438500  0.17782900  0.38956500  1
  C  335  1  0.32307700  0.19687100  0.39992800  1
  C  336  1  0.28874000  0.17885900  0.36401700  1
  C  337  1  0.29427100  0.15077900  0.36280700  1
  C  338  1  0.26550800  0.13267200  0.36717400  1
  C  339  1  0.27297300  0.10503500  0.36760100  1
  C  340  1  0.30931400  0.09505200  0.36367900  1
  C  341  1  0.33785200  0.11320100  0.35922600  1
  C  342  1  0.33040600  0.14079700  0.35871300  1
  C  343  1  0.33388200  0.24705800  0.41550100  1
  C  344  1  0.30526700  0.25012600  0.42619000  1
  C  345  1  0.31480100  0.25045300  0.44105400  1
  C  346  1  0.35322800  0.24800300  0.44564000  1
  C  347  1  0.38166600  0.24440500  0.43492400  1
  C  348  1  0.37221400  0.24410600  0.42000400  1
  C  349  1  0.29452800  0.34615800  0.36432900  1
  C  350  1  0.32889900  0.35733300  0.35907300  1
  C  351  1  0.33487500  0.38512900  0.35960900  1
  C  352  1  0.30690800  0.40225200  0.36552100  1
  C  353  1  0.27216000  0.39101700  0.37049500  1
  C  354  1  0.26607300  0.36322700  0.36996300  1
  C  355  1  0.21522100  0.24983700  0.31832300  1
  C  356  1  0.23316300  0.25482000  0.30481900  1
  C  357  1  0.17542400  0.24521100  0.31854400  1
  C  358  1  0.15400700  0.24574100  0.30556800  1
  C  359  1  0.17186600  0.25091100  0.29203600  1
  C  360  1  0.21167600  0.25535800  0.29186300  1
  C  391  1  0.24339100  0.29755900  0.66807100  1
  C  392  1  0.25865600  0.31704100  0.65913200  1
  C  393  1  0.27185700  0.30473200  0.64644200  1
  C  395  1  0.24772000  0.27283400  0.66119000  1
  C  396  1  0.23680700  0.24777200  0.66724200  1
  C  397  1  0.24644100  0.22261100  0.66110300  1
  C  399  1  0.27088700  0.19151500  0.64624500  1
  C  400  1  0.25424100  0.17839700  0.65807400  1
  C  401  1  0.23854500  0.19754100  0.66709200  1
  C  402  1  0.28904300  0.17915500  0.63419200  1
  C  403  1  0.30252100  0.19270500  0.62157700  1
  C  405  1  0.31629400  0.22460500  0.60504400  1
  C  406  1  0.32527800  0.19979900  0.59896900  1
  C  407  1  0.31739000  0.18030200  0.60917200  1
  C  408  1  0.32115100  0.24963100  0.59794000  1
  C  409  1  0.31507500  0.27479100  0.60466800  1
  C  411  1  0.30071200  0.30590300  0.62128700  1
  C  412  1  0.31345700  0.31897700  0.60874500  1
  C  413  1  0.32165300  0.29980200  0.59840500  1
  C  414  1  0.28845500  0.31827800  0.63438600  1
  C  415  1  0.29426300  0.34635600  0.63550400  1
  C  416  1  0.26557600  0.36450600  0.63117800  1
  C  417  1  0.27324400  0.39212700  0.63072900  1
  C  418  1  0.30966200  0.40206900  0.63463400  1
  C  419  1  0.33813100  0.38386600  0.63902200  1
  C  420  1  0.33050000  0.35628100  0.63955100  1
  C  421  1  0.33072600  0.24949800  0.58285900  1
  C  422  1  0.30137100  0.24704200  0.57240900  1
  C  423  1  0.30995000  0.24730700  0.55745800  1
  C  424  1  0.34794800  0.24993300  0.55257400  1
  C  425  1  0.37738500  0.25232900  0.56304800  1
  C  426  1  0.36886400  0.25209200  0.57804700  1
  C  427  1  0.29378000  0.15093900  0.63466100  1
  C  428  1  0.32846800  0.13992900  0.63967100  1
  C  429  1  0.33448400  0.11214800  0.63918200  1
  C  430  1  0.30625400  0.09488200  0.63353900  1
  C  431  1  0.27118700  0.10594500  0.62882600  1
  C  432  1  0.26504500  0.13372000  0.62932800  1
  C  433  1  0.21549500  0.24782600  0.68048700  1
  C  434  1  0.23345700  0.24315100  0.69401600  1
  C  435  1  0.17568100  0.25229200  0.68022900  1
  C  436  1  0.15425500  0.25189800  0.69319900  1
  C  437  1  0.17212300  0.24703100  0.70675800  1
  C  438  1  0.21194700  0.24272900  0.70696600  1
  C  469  1  0.42678800  0.70002200  0.66778200  1
  C  470  1  0.41188800  0.68039800  0.65885000  1
  C  471  1  0.39711700  0.69267800  0.64640500  1
  C  473  1  0.42083200  0.72479200  0.66112900  1
  C  474  1  0.43110500  0.74994300  0.66724200  1
  C  475  1  0.42076300  0.77503900  0.66118800  1
  C  477  1  0.39554400  0.80598600  0.64641800  1
  C  478  1  0.41166800  0.81917300  0.65832800  1
  C  479  1  0.42784600  0.80013600  0.66729000  1
  C  480  1  0.37700900  0.81821700  0.63440800  1
  C  481  1  0.36359900  0.80453600  0.62181700  1
  C  483  1  0.34942400  0.77251900  0.60538900  1
  C  484  1  0.34038600  0.79729800  0.59929000  1
  C  485  1  0.34863300  0.81686300  0.60940500  1
  C  486  1  0.34415800  0.74745800  0.59835300  1
  C  487  1  0.35073400  0.72233100  0.60504700  1
  C  489  1  0.36675800  0.69129000  0.62149400  1
  C  490  1  0.35304800  0.67815900  0.60911700  1
  C  491  1  0.34379900  0.69728900  0.59888100  1
  C  492  1  0.38034200  0.67899600  0.63442600  1
  C  493  1  0.37636700  0.65075000  0.63539000  1
  C  494  1  0.40429700  0.63364300  0.62941500  1
  C  495  1  0.39839500  0.60581500  0.62919000  1
  C  496  1  0.36442600  0.59455900  0.63488500  1
  C  497  1  0.33718100  0.61171200  0.64124400  1
  C  498  1  0.34290800  0.63955000  0.64143000  1
  C  499  1  0.33333333  0.74755800  0.58338500  1
  C  500  1  0.36156400  0.75138700  0.57259900  1
  C  501  1  0.35156700  0.75202700  0.55778100  1
  C  502  1  0.31317500  0.74862700  0.55335800  1
  C  503  1  0.28493100  0.74532900  0.56417400  1
  C  504  1  0.29487900  0.74460800  0.57904100  1
  C  505  1  0.37134700  0.84636600  0.63494900  1
  C  506  1  0.33504100  0.85666100  0.63856900  1
  C  507  1  0.32785200  0.88425400  0.63762500  1
  C  508  1  0.35683800  0.90211800  0.63325500  1
  C  509  1  0.39329500  0.89181900  0.62975200  1
  C  510  1  0.40046100  0.86417600  0.63055100  1
  C  511  1  0.45249200  0.75004900  0.68047600  1
  C  512  1  0.43438200  0.75413000  0.69403300  1
  C  513  1  0.49244500  0.74624100  0.68019800  1
  C  514  1  0.51384900  0.74668700  0.69317800  1
  C  515  1  0.49581800  0.75095400  0.70676500  1
  C  516  1  0.45585900  0.75461000  0.70699000  1
  C  547  1  0.42752400  0.79741400  0.33085600  1
  C  548  1  0.41267800  0.81707500  0.33975800  1
  C  549  1  0.39756200  0.80482300  0.35215700  1
  C  551  1  0.42104600  0.77264400  0.33745600  1
  C  552  1  0.43086000  0.74745600  0.33130600  1
  C  553  1  0.42026400  0.72238300  0.33734500  1
  C  555  1  0.39525600  0.69147300  0.35221800  1
  C  556  1  0.41046900  0.67829000  0.34014400  1
  C  557  1  0.42657400  0.69729500  0.33112300  1
  C  558  1  0.37735100  0.67925700  0.36438100  1
  C  559  1  0.36490800  0.69298000  0.37709400  1
  C  561  1  0.35154700  0.72510000  0.39354400  1
  C  562  1  0.34386700  0.70030800  0.39991300  1
  C  563  1  0.35152100  0.68067100  0.38977600  1
  C  564  1  0.34623600  0.75021700  0.40050600  1
  C  565  1  0.35202400  0.77531400  0.39366700  1
  C  567  1  0.36726000  0.80628500  0.37706600  1
  C  568  1  0.35343000  0.81944600  0.38940600  1
  C  569  1  0.34472900  0.80036600  0.39974600  1
  C  570  1  0.38071900  0.81853400  0.36409900  1
  C  571  1  0.37675500  0.84676400  0.36309300  1
  C  572  1  0.40447900  0.86394400  0.36918900  1
  C  573  1  0.39848600  0.89174900  0.36941500  1
  C  574  1  0.36463500  0.90290300  0.36359700  1
  C  575  1  0.33762300  0.88568200  0.35710700  1
  C  576  1  0.34344800  0.85786600  0.35691700  1
  C  577  1  0.33689800  0.75026400  0.41561200  1
  C  578  1  0.36631800  0.74728500  0.42599300  1
  C  579  1  0.35787700  0.74696100  0.44095200  1
  C  580  1  0.31998700  0.74972700  0.44592000  1
  C  581  1  0.29049300  0.75273300  0.43552100  1
  C  582  1  0.29886000  0.75295600  0.42050900  1
  C  583  1  0.37154600  0.65110200  0.36391900  1
  C  584  1  0.33484400  0.64081800  0.36085300  1
  C  585  1  0.32769500  0.61321100  0.36182100  1
  C  586  1  0.35709800  0.59531800  0.36565500  1
  C  587  1  0.39394300  0.60560100  0.36859400  1
  C  588  1  0.40108900  0.63325800  0.36776600  1
  C  589  1  0.45226900  0.74730200  0.31808800  1
  C  590  1  0.43412800  0.74361500  0.30450200  1
  C  591  1  0.49229400  0.75078700  0.31841400  1
  C  592  1  0.51373400  0.75044100  0.30544800  1
  C  593  1  0.49567000  0.74658600  0.29182800  1
  C  594  1  0.45565100  0.74321200  0.29155600  1
  C  625  1  0.87873900  0.75283000  0.01466100  1
  C  626  1  0.90929800  0.75524500  0.00470500  1
  C  627  1  0.90205200  0.75729700  0.98955100  1
  C  628  1  0.86343000  0.75707200  0.98479600  1
  C  632  1  0.93186300  0.76101700  0.97980300  1
  C  633  1  0.96106400  0.74072600  0.97826800  1
  C  638  1  0.88409300  0.75150500  0.02960600  1
  C  640  1  0.85044800  0.76046800  0.97068400  1
  C  642  1  0.78929700  0.25009100  0.98391500  1
  C  643  1  0.76027600  0.25621000  0.99404700  1
  C  644  1  0.76713900  0.25374300  0.00921400  1
  C  645  1  0.80380300  0.24496500  0.01388900  1
  C  649  1  0.73826500  0.25965800  0.01903300  1
  C  650  1  0.70657500  0.24125700  0.02059600  1
  C  655  1  0.78421200  0.25226000  0.96898700  1
  C  657  1  0.81674000  0.24140400  0.02808700  1
  C  659  1  0.37654900  0.25250500  0.51465000  1
  C  660  1  0.40713300  0.25472400  0.50469100  1
  C  661  1  0.39991600  0.25658000  0.48952600  1
  C  662  1  0.36130100  0.25633300  0.48476200  1
  C  666  1  0.42974400  0.26014400  0.47976700  1
  C  667  1  0.45908400  0.23991600  0.47838700  1
  C  672  1  0.38186300  0.25137600  0.52960300  1
  C  674  1  0.34833900  0.25959200  0.47063800  1
  C  676  1  0.29178300  0.75001500  0.48389700  1
  C  677  1  0.26285900  0.75616000  0.49406300  1
  C  678  1  0.26977400  0.75354100  0.50922100  1
  C  679  1  0.30640000  0.74459500  0.51384700  1
  C  683  1  0.24099900  0.75954600  0.51908900  1
  C  684  1  0.21005000  0.74053800  0.52078300  1
  C  689  1  0.28667100  0.75231300  0.46897700  1
  C  691  1  0.31944500  0.74092600  0.52802400  1
  C  693  1  0.81642800  0.97340300  0.87264900  1
  C  694  1  0.80682800  0.99332400  0.88289100  1
  C  695  1  0.82252400  0.01930600  0.88166700  1
  C  696  1  0.84783300  0.02450100  0.86990200  1
  C  700  1  0.81433100  0.03860700  0.89209600  1
  C  701  1  0.77664500  0.05053900  0.89203800  1
  C  706  1  0.80214300  0.94770300  0.87366800  1
  C  708  1  0.86577900  0.04859200  0.86731700  1
  C  710  1  0.81598400  0.52468900  0.12626400  1
  C  711  1  0.80645600  0.50482900  0.11596600  1
  C  712  1  0.82224000  0.47889600  0.11712400  1
  C  713  1  0.84756700  0.47369400  0.12887300  1
  C  717  1  0.81413000  0.45967900  0.10666100  1
  C  718  1  0.77647400  0.44758900  0.10654800  1
  C  723  1  0.80162800  0.55034900  0.12531200  1
  C  725  1  0.86555900  0.44964000  0.13139000  1
  C  727  1  0.85271600  0.02438400  0.12665900  1
  C  728  1  0.86175300  0.00442400  0.11636100  1
  C  729  1  0.84543900  0.97862900  0.11754900  1
  C  730  1  0.82009600  0.97365200  0.12932700  1
  C  734  1  0.85306200  0.95933300  0.10708000  1
  C  735  1  0.89045700  0.94692500  0.10692300  1
  C  740  1  0.86741600  0.04997100  0.12561200  1
  C  742  1  0.80157300  0.94975600  0.13182600  1
  C  744  1  0.85239900  0.47383600  0.87188600  1
  C  745  1  0.86155000  0.49387600  0.88212900  1
  C  746  1  0.84509100  0.51959600  0.88095300  1
  C  747  1  0.81950700  0.52441100  0.86923600  1
  C  751  1  0.85288800  0.53900500  0.89135600  1
  C  752  1  0.89034100  0.55128200  0.89170700  1
  C  757  1  0.86722700  0.44831400  0.87292400  1
  C  759  1  0.80094500  0.54824700  0.86673400  1
  C  761  1  0.31651700  0.47297100  0.37287200  1
  C  762  1  0.30679100  0.49303000  0.38302100  1
  C  763  1  0.32266100  0.51895800  0.38178100  1
  C  764  1  0.34825400  0.52400900  0.37008600  1
  C  768  1  0.31430200  0.53834000  0.39212500  1
  C  769  1  0.27660000  0.55018000  0.39235100  1
  C  774  1  0.30201100  0.44731900  0.37392500  1
  C  776  1  0.36647200  0.54803600  0.36751700  1
  C  778  1  0.31594300  0.02425000  0.62608600  1
  C  779  1  0.30636000  0.00426800  0.61586200  1
  C  780  1  0.32236100  0.97839600  0.61702500  1
  C  781  1  0.34791400  0.97333200  0.62872200  1
  C  785  1  0.31418200  0.95908400  0.60661300  1
  C  786  1  0.27651200  0.94713500  0.60627800  1
  C  791  1  0.30132600  0.04985400  0.62511100  1
  C  793  1  0.36618100  0.94934500  0.63122200  1
  C  795  1  0.35342200  0.52388200  0.62760400  1
  C  796  1  0.36232300  0.50379900  0.61735700  1
  C  797  1  0.34578800  0.47807400  0.61858000  1
  C  798  1  0.32038900  0.47323900  0.63036200  1
  C  802  1  0.35323600  0.45870900  0.60812500  1
  C  803  1  0.39069000  0.44652700  0.60755700  1
  C  808  1  0.36838200  0.54940700  0.62649200  1
  C  810  1  0.30152000  0.44943700  0.63285600  1
  C  812  1  0.35305900  0.97345900  0.37099200  1
  C  813  1  0.36172900  0.99355900  0.38126600  1
  C  814  1  0.34514300  0.01923300  0.38000900  1
  C  815  1  0.31988100  0.02396800  0.36817900  1
  C  819  1  0.35236300  0.03865000  0.39048900  1
  C  820  1  0.38966500  0.05122300  0.39064500  1
  C  825  1  0.36809300  0.94798900  0.37212400  1
  C  827  1  0.30100300  0.04770700  0.36564400  1
  C  829  1  0.59337300  0.75463600  0.76611300  1
  C  830  1  0.55407000  0.75997600  0.76436400  1
  C  831  1  0.53689000  0.75891500  0.75041000  1
  C  832  1  0.56019200  0.75229100  0.73822000  1
  C  836  1  0.49821800  0.76455100  0.74905200  1
  C  837  1  0.48651500  0.79233200  0.74936600  1
  C  842  1  0.61065300  0.75552400  0.77970000  1
  C  844  1  0.54888800  0.75038300  0.72368000  1
  C  846  1  0.59355300  0.74341700  0.23258300  1
  C  847  1  0.55424100  0.73798300  0.23428200  1
  C  848  1  0.53696200  0.73899900  0.24821500  1
  C  849  1  0.56017200  0.74566800  0.26043100  1
  C  853  1  0.49832700  0.73329600  0.24952000  1
  C  854  1  0.48634100  0.70553600  0.24914300  1
  C  859  1  0.61095500  0.74253800  0.21902800  1
  C  861  1  0.54877900  0.74751800  0.27495700  1
  C  863  1  0.07417400  0.25474600  0.23271300  1
  C  864  1  0.11342500  0.26033300  0.23447900  1
  C  865  1  0.13063400  0.25918000  0.24842400  1
  C  866  1  0.10743500  0.25218900  0.26059000  1
  C  870  1  0.16919700  0.26505500  0.24979000  1
  C  871  1  0.18093800  0.29286800  0.24946600  1
  C  876  1  0.05686300  0.25576900  0.21913400  1
  C  878  1  0.11880200  0.25010300  0.27511700  1
  C  880  1  0.07412000  0.24330400  0.76598500  1
  C  881  1  0.11337100  0.23776100  0.76426100  1
  C  882  1  0.13070000  0.23904000  0.75034200  1
  C  883  1  0.10760700  0.24607600  0.73816300  1
  C  887  1  0.16928900  0.23324000  0.74901700  1
  C  888  1  0.18158600  0.20563300  0.74970300  1
  C  893  1  0.05668000  0.24216300  0.77953000  1
  C  895  1  0.11906700  0.24824200  0.72365500  1
  C  897  1  0.48794800  0.59991300  0.83087900  1
  C  898  1  0.50342200  0.58045700  0.83976200  1
  C  899  1  0.51768000  0.59286300  0.85226500  1
  C  901  1  0.49317300  0.62469900  0.83760800  1
  C  902  1  0.48197600  0.64971600  0.83161300  1
  C  903  1  0.49187200  0.67489700  0.83767500  1
  C  905  1  0.51666700  0.70603100  0.85244100  1
  C  906  1  0.49936000  0.71912400  0.84075000  1
  C  907  1  0.48342000  0.69994700  0.83179700  1
  C  908  1  0.53520600  0.71839800  0.86441900  1
  C  909  1  0.54936500  0.70488600  0.87693000  1
  C  911  1  0.56402900  0.67304400  0.89337300  1
  C  912  1  0.57357000  0.69786200  0.89932500  1
  C  913  1  0.56507300  0.71732600  0.88918400  1
  C  914  1  0.56912600  0.64805300  0.90048400  1
  C  915  1  0.56266400  0.62289000  0.89380800  1
  C  917  1  0.54748100  0.59177700  0.87728500  1
  C  918  1  0.56051600  0.57870800  0.88978000  1
  C  919  1  0.56916900  0.59788600  0.90007200  1
  C  920  1  0.53454000  0.57938800  0.86427800  1
  C  921  1  0.53952600  0.55125800  0.86326000  1
  C  922  1  0.51049200  0.53355500  0.86785000  1
  C  923  1  0.51739500  0.50586700  0.86841700  1
  C  924  1  0.55342500  0.49545200  0.86441400  1
  C  925  1  0.58223100  0.51319900  0.85974500  1
  C  926  1  0.57534800  0.54085200  0.85909200  1
  C  927  1  0.57953400  0.64826900  0.91549000  1
  C  928  1  0.55085100  0.65132500  0.92615400  1
  C  929  1  0.56029300  0.65165500  0.94102700  1
  C  930  1  0.59869300  0.64921400  0.94564400  1
  C  931  1  0.62720400  0.64564600  0.93495300  1
  C  932  1  0.61784400  0.64534500  0.92002500  1
  C  933  1  0.53943800  0.74664600  0.86400700  1
  C  934  1  0.57368600  0.75807100  0.85879700  1
  C  935  1  0.57919600  0.78590600  0.85933300  1
  C  936  1  0.55087800  0.80279100  0.86520000  1
  C  937  1  0.51624600  0.79130700  0.87011800  1
  C  938  1  0.51062400  0.76347700  0.86958600  1
  C  939  1  0.45859000  0.64955900  0.81888900  1
  C  940  1  0.47407900  0.65385500  0.80487800  1
  C  941  1  0.41892300  0.64512200  0.82022400  1
  C  942  1  0.39522800  0.64529000  0.80785700  1
  C  943  1  0.41046700  0.65009000  0.79381800  1
  C  944  1  0.45025800  0.65398300  0.79250700  1
  C  975  1  0.48825900  0.69852400  0.16775200  1
  C  976  1  0.50367400  0.71788800  0.15877600  1
  C  977  1  0.51769900  0.70534900  0.14628200  1
  C  979  1  0.49340700  0.67365900  0.16110900  1
  C  980  1  0.48235200  0.64869300  0.16722700  1
  C  981  1  0.49217600  0.62344300  0.16125900  1
  C  983  1  0.51652900  0.59214000  0.14652400  1
  C  984  1  0.49971000  0.57918600  0.15837300  1
  C  985  1  0.48402400  0.59846600  0.16730900  1
  C  986  1  0.53447400  0.57963200  0.13447100  1
  C  987  1  0.54795700  0.59299300  0.12179800  1
  C  989  1  0.56185200  0.62466400  0.10515000  1
  C  990  1  0.57055000  0.59976500  0.09913300  1
  C  991  1  0.56257900  0.58040100  0.10940400  1
  C  992  1  0.56688600  0.64959600  0.09797100  1
  C  993  1  0.56103400  0.67484200  0.10462900  1
  C  995  1  0.54680300  0.70615200  0.12115100  1
  C  996  1  0.55963100  0.71907000  0.10857300  1
  C  997  1  0.56775800  0.69977400  0.09829400  1
  C  998  1  0.53438500  0.71869100  0.13418100  1
  C  999  1  0.53964300  0.74681900  0.13511400  1
  C  1000  1  0.51066700  0.76456500  0.13058200  1
  C  1001  1  0.51777400  0.79224100  0.12998400  1
  C  1002  1  0.55390200  0.80261000  0.13394400  1
  C  1003  1  0.58266700  0.78480900  0.13853000  1
  C  1004  1  0.57559800  0.75716900  0.13920700  1
  C  1005  1  0.57639500  0.64929900  0.08288500  1
  C  1006  1  0.54698300  0.64685700  0.07245700  1
  C  1007  1  0.55547900  0.64716500  0.05750100  1
  C  1008  1  0.59344800  0.64982700  0.05258800  1
  C  1009  1  0.62294400  0.65218300  0.06304000  1
  C  1010  1  0.61450500  0.65189900  0.07804500  1
  C  1011  1  0.53875000  0.55140200  0.13496900  1
  C  1012  1  0.57330300  0.54014600  0.13994800  1
  C  1013  1  0.57887600  0.51232500  0.13945100  1
  C  1014  1  0.55032600  0.49529800  0.13383200  1
  C  1015  1  0.51538400  0.50660700  0.12916400  1
  C  1016  1  0.50968500  0.53442000  0.12967300  1
  C  1017  1  0.45898700  0.64897500  0.17994900  1
  C  1018  1  0.47446400  0.64491300  0.19397900  1
  C  1019  1  0.41930200  0.65320900  0.17857100  1
  C  1020  1  0.39556200  0.65304700  0.19092100  1
  C  1021  1  0.41077800  0.64842700  0.20497900  1
  C  1022  1  0.45058900  0.64477300  0.20633100  1
  C  1053  1  0.66804500  0.09991700  0.16742500  1
  C  1054  1  0.65296300  0.08042700  0.15845100  1
  C  1055  1  0.63733500  0.09294200  0.14622800  1
  C  1057  1  0.66124000  0.12481600  0.16104300  1
  C  1058  1  0.67163600  0.14986100  0.16724700  1
  C  1059  1  0.66104200  0.17504500  0.16138300  1
  C  1061  1  0.63582400  0.20620500  0.14675700  1
  C  1062  1  0.65212100  0.21921800  0.15869100  1
  C  1063  1  0.66834100  0.20004500  0.16755900  1
  C  1064  1  0.61747700  0.21860100  0.13475700  1
  C  1065  1  0.60411100  0.20514000  0.12208800  1
  C  1067  1  0.58984700  0.17338200  0.10552200  1
  C  1068  1  0.58117700  0.19827000  0.09948000  1
  C  1069  1  0.58947500  0.21767700  0.10968000  1
  C  1070  1  0.58438600  0.14842800  0.09839900  1
  C  1071  1  0.59074100  0.12321000  0.10502000  1
  C  1073  1  0.60664300  0.09195600  0.12135700  1
  C  1074  1  0.59276000  0.07899400  0.10895400  1
  C  1075  1  0.58357100  0.09825600  0.09878600  1
  C  1076  1  0.62041200  0.07948400  0.13420800  1
  C  1077  1  0.61686700  0.05121400  0.13498600  1
  C  1078  1  0.64504300  0.03447300  0.12887700  1
  C  1079  1  0.63961300  0.00661200  0.12850800  1
  C  1080  1  0.60588300  0.99499578  0.13419100  1
  C  1081  1  0.57838600  0.01178500  0.14067600  1
  C  1082  1  0.58365100  0.03965400  0.14101100  1
  C  1083  1  0.57364300  0.14870400  0.08342500  1
  C  1084  1  0.60198200  0.15217600  0.07265400  1
  C  1085  1  0.59208000  0.15275900  0.05782400  1
  C  1086  1  0.55365800  0.14965100  0.05337800  1
  C  1087  1  0.52529100  0.14673800  0.06418100  1
  C  1088  1  0.53514200  0.14607100  0.07905700  1
  C  1089  1  0.61227000  0.24677000  0.13533500  1
  C  1090  1  0.57611900  0.25733100  0.13894600  1
  C  1091  1  0.56936000  0.28496900  0.13797700  1
  C  1092  1  0.59863200  0.30258400  0.13358700  1
  C  1093  1  0.63493900  0.29201600  0.13010200  1
  C  1094  1  0.64167800  0.26433000  0.13092800  1
  C  1095  1  0.69513400  0.14975300  0.17994500  1
  C  1096  1  0.67960300  0.15322900  0.19401400  1
  C  1097  1  0.73492600  0.14607100  0.17853200  1
  C  1098  1  0.75868400  0.14616700  0.19088100  1
  C  1099  1  0.74339600  0.15017500  0.20498500  1
  C  1100  1  0.70349700  0.15332900  0.20636400  1
  C  1131  1  0.66850400  0.19842200  0.83116000  1
  C  1132  1  0.65348800  0.21795200  0.84010400  1
  C  1133  1  0.63757600  0.20547500  0.85229300  1
  C  1135  1  0.66123800  0.17353400  0.83750000  1
  C  1136  1  0.67124000  0.14845200  0.83127100  1
  C  1137  1  0.66044000  0.12329400  0.83713400  1
  C  1139  1  0.63549100  0.09217400  0.85187800  1
  C  1140  1  0.65091300  0.07915800  0.83978500  1
  C  1141  1  0.66703000  0.09830100  0.83085100  1
  C  1142  1  0.61776100  0.07980100  0.86402800  1
  C  1143  1  0.60534400  0.09331000  0.87681300  1
  C  1145  1  0.59197100  0.12517000  0.89341200  1
  C  1146  1  0.58446200  0.10028000  0.89969100  1
  C  1147  1  0.59212500  0.08080100  0.88946500  1
  C  1148  1  0.58656700  0.15017900  0.90047700  1
  C  1149  1  0.59213600  0.17536400  0.89371000  1
  C  1151  1  0.60713700  0.20654200  0.87719700  1
  C  1152  1  0.59330700  0.21954000  0.88958800  1
  C  1153  1  0.58474700  0.20033200  0.89987400  1
  C  1154  1  0.62067400  0.21896600  0.86429200  1
  C  1155  1  0.61713800  0.24722100  0.86347300  1
  C  1156  1  0.64517500  0.26403700  0.86965700  1
  C  1157  1  0.63966600  0.29187700  0.87003000  1
  C  1158  1  0.60599800  0.30339500  0.86427300  1
  C  1159  1  0.57866200  0.28653500  0.85770400  1
  C  1160  1  0.58401000  0.25868500  0.85736000  1
  C  1161  1  0.57730400  0.15003300  0.91559100  1
  C  1162  1  0.60675900  0.14691500  0.92594600  1
  C  1163  1  0.59840600  0.14658300  0.94091400  1
  C  1164  1  0.56056900  0.14948300  0.94591900  1
  C  1165  1  0.53103500  0.15259300  0.93554500  1
  C  1166  1  0.53931300  0.15282400  0.92052500  1
  C  1167  1  0.61239900  0.05162600  0.86352200  1
  C  1168  1  0.57586400  0.04107900  0.86044300  1
  C  1169  1  0.56914200  0.01342600  0.86142800  1
  C  1170  1  0.59881500  0.99578278  0.86529800  1
  C  1171  1  0.63549900  0.00633600  0.86824200  1
  C  1172  1  0.64222100  0.03403500  0.86739400  1
  C  1173  1  0.69479200  0.14848900  0.81859600  1
  C  1174  1  0.67928500  0.14533600  0.80450100  1
  C  1175  1  0.73463700  0.15184900  0.82007300  1
  C  1176  1  0.75848100  0.15175500  0.80775200  1
  C  1177  1  0.74321000  0.14806800  0.79361800  1
  C  1178  1  0.70326900  0.14523200  0.79217800  1
  C  1209  1  0.98637500  0.10001600  0.33050900  1
  C  1210  1  0.00171100  0.08043200  0.33934500  1
  C  1211  1  0.01514400  0.09258900  0.35205100  1
  C  1213  1  0.99079801  0.12465200  0.33748200  1
  C  1214  1  0.97973400  0.14977100  0.33156500  1
  C  1215  1  0.98942200  0.17484900  0.33781200  1
  C  1217  1  0.01425900  0.20576100  0.35272000  1
  C  1218  1  0.99712501  0.21903400  0.34105400  1
  C  1219  1  0.98119200  0.19999900  0.33200900  1
  C  1220  1  0.03298000  0.21796800  0.36470800  1
  C  1221  1  0.04712900  0.20425000  0.37715400  1
  C  1223  1  0.06165200  0.17216100  0.39347300  1
  C  1224  1  0.07150900  0.19687400  0.39948500  1
  C  1225  1  0.06310500  0.21648600  0.38941700  1
  C  1226  1  0.06656100  0.14707200  0.40050100  1
  C  1227  1  0.05988600  0.12200200  0.39374500  1
  C  1229  1  0.04462400  0.09111100  0.37710600  1
  C  1230  1  0.05754300  0.07787100  0.38956500  1
  C  1231  1  0.06623500  0.09691300  0.39992800  1
  C  1232  1  0.03189800  0.07890100  0.36401700  1
  C  1233  1  0.03742900  0.05082100  0.36280700  1
  C  1234  1  0.00866600  0.03271400  0.36717400  1
  C  1235  1  0.01613100  0.00507700  0.36760100  1
  C  1236  1  0.05247200  0.99509378  0.36367900  1
  C  1237  1  0.08101000  0.01324300  0.35922600  1
  C  1238  1  0.07356400  0.04083900  0.35871300  1
  C  1239  1  0.07704000  0.14710000  0.41550100  1
  C  1240  1  0.04842500  0.15016800  0.42619000  1
  C  1241  1  0.05795900  0.15049500  0.44105400  1
  C  1242  1  0.09638600  0.14804500  0.44564000  1
  C  1243  1  0.12482400  0.14444700  0.43492400  1
  C  1244  1  0.11537200  0.14414800  0.42000400  1
  C  1245  1  0.03768600  0.24620000  0.36432900  1
  C  1246  1  0.07205700  0.25737500  0.35907300  1
  C  1247  1  0.07803300  0.28517100  0.35960900  1
  C  1248  1  0.05006600  0.30229400  0.36552100  1
  C  1249  1  0.01531800  0.29105900  0.37049500  1
  C  1250  1  0.00923100  0.26326900  0.36996300  1
  C  1251  1  0.95837900  0.14987900  0.31832300  1
  C  1252  1  0.97632100  0.15486200  0.30481900  1
  C  1253  1  0.91858200  0.14525300  0.31854400  1
  C  1254  1  0.89716500  0.14578300  0.30556800  1
  C  1255  1  0.91502400  0.15095300  0.29203600  1
  C  1256  1  0.95483400  0.15540000  0.29186300  1
  C  1287  1  0.98654900  0.19760100  0.66807100  1
  C  1288  1  0.00181400  0.21708300  0.65913200  1
  C  1289  1  0.01501500  0.20477400  0.64644200  1
  C  1291  1  0.99087801  0.17287600  0.66119000  1
  C  1292  1  0.97996500  0.14781400  0.66724200  1
  C  1293  1  0.98959900  0.12265300  0.66110300  1
  C  1295  1  0.01404500  0.09155700  0.64624500  1
  C  1296  1  0.99739901  0.07843900  0.65807400  1
  C  1297  1  0.98170300  0.09758300  0.66709200  1
  C  1298  1  0.03220100  0.07919700  0.63419200  1
  C  1299  1  0.04567900  0.09274700  0.62157700  1
  C  1301  1  0.05945200  0.12464700  0.60504400  1
  C  1302  1  0.06843600  0.09984100  0.59896900  1
  C  1303  1  0.06054800  0.08034400  0.60917200  1
  C  1304  1  0.06430900  0.14967300  0.59794000  1
  C  1305  1  0.05823300  0.17483300  0.60466800  1
  C  1307  1  0.04387000  0.20594500  0.62128700  1
  C  1308  1  0.05661500  0.21901900  0.60874500  1
  C  1309  1  0.06481100  0.19984400  0.59840500  1
  C  1310  1  0.03161300  0.21832000  0.63438600  1
  C  1311  1  0.03742100  0.24639800  0.63550400  1
  C  1312  1  0.00873400  0.26454800  0.63117800  1
  C  1313  1  0.01640200  0.29216900  0.63072900  1
  C  1314  1  0.05282000  0.30211100  0.63463400  1
  C  1315  1  0.08128900  0.28390800  0.63902200  1
  C  1316  1  0.07365800  0.25632300  0.63955100  1
  C  1317  1  0.07388400  0.14954000  0.58285900  1
  C  1318  1  0.04452900  0.14708400  0.57240900  1
  C  1319  1  0.05310800  0.14734900  0.55745800  1
  C  1320  1  0.09110600  0.14997500  0.55257400  1
  C  1321  1  0.12054300  0.15237100  0.56304800  1
  C  1322  1  0.11202200  0.15213400  0.57804700  1
  C  1323  1  0.03693800  0.05098100  0.63466100  1
  C  1324  1  0.07162600  0.03997100  0.63967100  1
  C  1325  1  0.07764200  0.01219000  0.63918200  1
  C  1326  1  0.04941200  0.99492378  0.63353900  1
  C  1327  1  0.01434500  0.00598700  0.62882600  1
  C  1328  1  0.00820300  0.03376200  0.62932800  1
  C  1329  1  0.95865300  0.14786800  0.68048700  1
  C  1330  1  0.97661500  0.14319300  0.69401600  1
  C  1331  1  0.91883900  0.15233400  0.68022900  1
  C  1332  1  0.89741300  0.15194000  0.69319900  1
  C  1333  1  0.91528100  0.14707300  0.70675800  1
  C  1334  1  0.95510500  0.14277100  0.70696600  1
  C  1365  1  0.16994600  0.60006400  0.66778200  1
  C  1366  1  0.15504600  0.58044000  0.65885000  1
  C  1367  1  0.14027500  0.59272000  0.64640500  1
  C  1369  1  0.16399000  0.62483400  0.66112900  1
  C  1370  1  0.17426300  0.64998500  0.66724200  1
  C  1371  1  0.16392100  0.67508100  0.66118800  1
  C  1373  1  0.13870200  0.70602800  0.64641800  1
  C  1374  1  0.15482600  0.71921500  0.65832800  1
  C  1375  1  0.17100400  0.70017800  0.66729000  1
  C  1376  1  0.12016700  0.71825900  0.63440800  1
  C  1377  1  0.10675700  0.70457800  0.62181700  1
  C  1379  1  0.09258200  0.67256100  0.60538900  1
  C  1380  1  0.08354400  0.69734000  0.59929000  1
  C  1381  1  0.09179100  0.71690500  0.60940500  1
  C  1382  1  0.08731600  0.64750000  0.59835300  1
  C  1383  1  0.09389200  0.62237300  0.60504700  1
  C  1385  1  0.10991600  0.59133200  0.62149400  1
  C  1386  1  0.09620600  0.57820100  0.60911700  1
  C  1387  1  0.08695700  0.59733100  0.59888100  1
  C  1388  1  0.12350000  0.57903800  0.63442600  1
  C  1389  1  0.11952500  0.55079200  0.63539000  1
  C  1390  1  0.14745500  0.53368500  0.62941500  1
  C  1391  1  0.14155300  0.50585700  0.62919000  1
  C  1392  1  0.10758400  0.49460100  0.63488500  1
  C  1393  1  0.08033900  0.51175400  0.64124400  1
  C  1394  1  0.08606600  0.53959200  0.64143000  1
  C  1395  1  0.07651200  0.64760000  0.58338500  1
  C  1396  1  0.10472200  0.65142900  0.57259900  1
  C  1397  1  0.09472500  0.65206900  0.55778100  1
  C  1398  1  0.05633300  0.64866900  0.55335800  1
  C  1399  1  0.02808900  0.64537100  0.56417400  1
  C  1400  1  0.03803700  0.64465000  0.57904100  1
  C  1401  1  0.11450500  0.74640800  0.63494900  1
  C  1402  1  0.07819900  0.75670300  0.63856900  1
  C  1403  1  0.07101000  0.78429600  0.63762500  1
  C  1404  1  0.09999600  0.80216000  0.63325500  1
  C  1405  1  0.13645300  0.79186100  0.62975200  1
  C  1406  1  0.14361900  0.76421800  0.63055100  1
  C  1407  1  0.19565000  0.65009100  0.68047600  1
  C  1408  1  0.17754000  0.65417200  0.69403300  1
  C  1409  1  0.23560300  0.64628300  0.68019800  1
  C  1410  1  0.25700700  0.64672900  0.69317800  1
  C  1411  1  0.23897600  0.65099600  0.70676500  1
  C  1412  1  0.19901700  0.65465200  0.70699000  1
  C  1443  1  0.17068200  0.69745600  0.33085600  1
  C  1444  1  0.15583600  0.71711700  0.33975800  1
  C  1445  1  0.14072000  0.70486500  0.35215700  1
  C  1447  1  0.16420400  0.67268600  0.33745600  1
  C  1448  1  0.17401800  0.64749800  0.33130600  1
  C  1449  1  0.16342200  0.62242500  0.33734500  1
  C  1451  1  0.13841400  0.59151500  0.35221800  1
  C  1452  1  0.15362700  0.57833200  0.34014400  1
  C  1453  1  0.16973200  0.59733700  0.33112300  1
  C  1454  1  0.12050900  0.57929900  0.36438100  1
  C  1455  1  0.10806600  0.59302200  0.37709400  1
  C  1457  1  0.09470500  0.62514200  0.39354400  1
  C  1458  1  0.08702500  0.60035000  0.39991300  1
  C  1459  1  0.09467900  0.58071300  0.38977600  1
  C  1460  1  0.08939400  0.65025900  0.40050600  1
  C  1461  1  0.09518200  0.67535600  0.39366700  1
  C  1463  1  0.11041800  0.70632700  0.37706600  1
  C  1464  1  0.09658800  0.71948800  0.38940600  1
  C  1465  1  0.08788700  0.70040800  0.39974600  1
  C  1466  1  0.12387700  0.71857600  0.36409900  1
  C  1467  1  0.11991300  0.74680600  0.36309300  1
  C  1468  1  0.14763700  0.76398600  0.36918900  1
  C  1469  1  0.14164400  0.79179100  0.36941500  1
  C  1470  1  0.10779300  0.80294500  0.36359700  1
  C  1471  1  0.08078100  0.78572400  0.35710700  1
  C  1472  1  0.08660600  0.75790800  0.35691700  1
  C  1473  1  0.08005600  0.65030600  0.41561200  1
  C  1474  1  0.10947600  0.64732700  0.42599300  1
  C  1475  1  0.10103500  0.64700300  0.44095200  1
  C  1476  1  0.06314500  0.64976900  0.44592000  1
  C  1477  1  0.03365100  0.65277500  0.43552100  1
  C  1478  1  0.04201800  0.65299800  0.42050900  1
  C  1479  1  0.11470400  0.55114400  0.36391900  1
  C  1480  1  0.07800200  0.54086000  0.36085300  1
  C  1481  1  0.07085300  0.51325300  0.36182100  1
  C  1482  1  0.10025600  0.49536000  0.36565500  1
  C  1483  1  0.13710100  0.50564300  0.36859400  1
  C  1484  1  0.14424700  0.53330000  0.36776600  1
  C  1485  1  0.19542700  0.64734400  0.31808800  1
  C  1486  1  0.17728600  0.64365700  0.30450200  1
  C  1487  1  0.23545200  0.65082900  0.31841400  1
  C  1488  1  0.25689200  0.65048300  0.30544800  1
  C  1489  1  0.23882800  0.64662800  0.29182800  1
  C  1490  1  0.19880900  0.64325400  0.29155600  1
  C  1521  1  0.62189700  0.65287200  0.01466100  1
  C  1522  1  0.65245600  0.65528700  0.00470500  1
  C  1523  1  0.64521000  0.65733900  0.98955100  1
  C  1524  1  0.60658800  0.65711400  0.98479600  1
  C  1528  1  0.67502100  0.66105900  0.97980300  1
  C  1529  1  0.70422200  0.64076800  0.97826800  1
  C  1534  1  0.62725100  0.65154700  0.02960600  1
  C  1536  1  0.59360600  0.66051000  0.97068400  1
  C  1538  1  0.53245500  0.15013300  0.98391500  1
  C  1539  1  0.50343400  0.15625200  0.99404700  1
  C  1540  1  0.51029700  0.15378500  0.00921400  1
  C  1541  1  0.54696100  0.14500700  0.01388900  1
  C  1545  1  0.48142300  0.15970000  0.01903300  1
  C  1546  1  0.44973300  0.14129900  0.02059600  1
  C  1551  1  0.52737000  0.15230200  0.96898700  1
  C  1553  1  0.55989800  0.14144600  0.02808700  1
  C  1555  1  0.11970700  0.15254700  0.51465000  1
  C  1556  1  0.15029100  0.15476600  0.50469100  1
  C  1557  1  0.14307400  0.15662200  0.48952600  1
  C  1558  1  0.10445900  0.15637500  0.48476200  1
  C  1562  1  0.17290200  0.16018600  0.47976700  1
  C  1563  1  0.20224200  0.13995800  0.47838700  1
  C  1568  1  0.12502100  0.15141800  0.52960300  1
  C  1570  1  0.09149700  0.15963400  0.47063800  1
  C  1572  1  0.03494100  0.65005700  0.48389700  1
  C  1573  1  0.00601700  0.65620200  0.49406300  1
  C  1574  1  0.01293200  0.65358300  0.50922100  1
  C  1575  1  0.04955800  0.64463700  0.51384700  1
  C  1579  1  0.98415700  0.65958800  0.51908900  1
  C  1580  1  0.95320800  0.64058000  0.52078300  1
  C  1585  1  0.02982900  0.65235500  0.46897700  1
  C  1587  1  0.06260300  0.64096800  0.52802400  1
  C  1589  1  0.55958600  0.87344500  0.87264900  1
  C  1590  1  0.54998600  0.89336600  0.88289100  1
  C  1591  1  0.56568200  0.91934780  0.88166700  1
  C  1592  1  0.59099100  0.92454280  0.86990200  1
  C  1596  1  0.55748900  0.93864880  0.89209600  1
  C  1597  1  0.51980300  0.95058080  0.89203800  1
  C  1602  1  0.54530100  0.84774500  0.87366800  1
  C  1604  1  0.60893700  0.94863380  0.86731700  1
  C  1606  1  0.55914200  0.42473100  0.12626400  1
  C  1607  1  0.54961400  0.40487100  0.11596600  1
  C  1608  1  0.56539800  0.37893800  0.11712400  1
  C  1609  1  0.59072500  0.37373600  0.12887300  1
  C  1613  1  0.55728800  0.35972100  0.10666100  1
  C  1614  1  0.51963200  0.34763100  0.10654800  1
  C  1619  1  0.54478600  0.45039100  0.12531200  1
  C  1621  1  0.60871700  0.34968200  0.13139000  1
  C  1623  1  0.59587400  0.92442580  0.12665900  1
  C  1624  1  0.60491100  0.90446580  0.11636100  1
  C  1625  1  0.58859700  0.87867100  0.11754900  1
  C  1626  1  0.56325400  0.87369400  0.12932700  1
  C  1630  1  0.59622000  0.85937500  0.10708000  1
  C  1631  1  0.63361500  0.84696700  0.10692300  1
  C  1636  1  0.61057400  0.95001280  0.12561200  1
  C  1638  1  0.54473100  0.84979800  0.13182600  1
  C  1640  1  0.59555700  0.37387800  0.87188600  1
  C  1641  1  0.60470800  0.39391800  0.88212900  1
  C  1642  1  0.58824900  0.41963800  0.88095300  1
  C  1643  1  0.56266500  0.42445300  0.86923600  1
  C  1647  1  0.59604600  0.43904700  0.89135600  1
  C  1648  1  0.63349900  0.45132400  0.89170700  1
  C  1653  1  0.61038500  0.34835600  0.87292400  1
  C  1655  1  0.54410300  0.44828900  0.86673400  1
  C  1657  1  0.05967500  0.37301300  0.37287200  1
  C  1658  1  0.04994900  0.39307200  0.38302100  1
  C  1659  1  0.06581900  0.41900000  0.38178100  1
  C  1660  1  0.09141200  0.42405100  0.37008600  1
  C  1664  1  0.05746000  0.43838200  0.39212500  1
  C  1665  1  0.01975800  0.45022200  0.39235100  1
  C  1670  1  0.04516900  0.34736100  0.37392500  1
  C  1672  1  0.10963000  0.44807800  0.36751700  1
  C  1674  1  0.05910100  0.92429180  0.62608600  1
  C  1675  1  0.04951800  0.90430980  0.61586200  1
  C  1676  1  0.06551900  0.87843800  0.61702500  1
  C  1677  1  0.09107200  0.87337400  0.62872200  1
  C  1681  1  0.05734000  0.85912600  0.60661300  1
  C  1682  1  0.01967000  0.84717700  0.60627800  1
  C  1687  1  0.04448400  0.94989580  0.62511100  1
  C  1689  1  0.10933900  0.84938700  0.63122200  1
  C  1691  1  0.09658000  0.42392400  0.62760400  1
  C  1692  1  0.10548100  0.40384100  0.61735700  1
  C  1693  1  0.08894600  0.37811600  0.61858000  1
  C  1694  1  0.06354700  0.37328100  0.63036200  1
  C  1698  1  0.09639400  0.35875100  0.60812500  1
  C  1699  1  0.13384800  0.34656900  0.60755700  1
  C  1704  1  0.11154000  0.44944900  0.62649200  1
  C  1706  1  0.04467800  0.34947900  0.63285600  1
  C  1708  1  0.09621700  0.87350100  0.37099200  1
  C  1709  1  0.10488700  0.89360100  0.38126600  1
  C  1710  1  0.08830100  0.91927480  0.38000900  1
  C  1711  1  0.06303900  0.92400980  0.36817900  1
  C  1715  1  0.09552100  0.93869180  0.39048900  1
  C  1716  1  0.13282300  0.95126480  0.39064500  1
  C  1721  1  0.11125100  0.84803100  0.37212400  1
  C  1723  1  0.04416100  0.94774880  0.36564400  1
  C  1725  1  0.33653100  0.65467800  0.76611300  1
  C  1726  1  0.29722800  0.66001800  0.76436400  1
  C  1727  1  0.28004800  0.65895700  0.75041000  1
  C  1728  1  0.30335000  0.65233300  0.73822000  1
  C  1732  1  0.24137600  0.66459300  0.74905200  1
  C  1733  1  0.22967300  0.69237400  0.74936600  1
  C  1738  1  0.35381100  0.65556600  0.77970000  1
  C  1740  1  0.29204600  0.65042500  0.72368000  1
  C  1742  1  0.33671100  0.64345900  0.23258300  1
  C  1743  1  0.29739900  0.63802500  0.23428200  1
  C  1744  1  0.28012000  0.63904100  0.24821500  1
  C  1745  1  0.30333000  0.64571000  0.26043100  1
  C  1749  1  0.24148500  0.63333800  0.24952000  1
  C  1750  1  0.22949900  0.60557800  0.24914300  1
  C  1755  1  0.35411300  0.64258000  0.21902800  1
  C  1757  1  0.29193700  0.64756000  0.27495700  1
  C  1759  1  0.81733200  0.15478800  0.23271300  1
  C  1760  1  0.85658300  0.16037500  0.23447900  1
  C  1761  1  0.87379200  0.15922200  0.24842400  1
  C  1762  1  0.85059300  0.15223100  0.26059000  1
  C  1766  1  0.91235500  0.16509700  0.24979000  1
  C  1767  1  0.92409600  0.19291000  0.24946600  1
  C  1772  1  0.80002100  0.15581100  0.21913400  1
  C  1774  1  0.86196000  0.15014500  0.27511700  1
  C  1776  1  0.81727800  0.14334600  0.76598500  1
  C  1777  1  0.85652900  0.13780300  0.76426100  1
  C  1778  1  0.87385800  0.13908200  0.75034200  1
  C  1779  1  0.85076500  0.14611800  0.73816300  1
  C  1783  1  0.91244700  0.13328200  0.74901700  1
  C  1784  1  0.92474400  0.10567500  0.74970300  1
  C  1789  1  0.79983800  0.14220500  0.77953000  1
  C  1791  1  0.86222500  0.14828400  0.72365500  1
  N  4  1  0.76779800  0.71926400  0.85038700  1
  N  8  1  0.76851300  0.77958100  0.85003800  1
  N  14  1  0.80667600  0.77835100  0.87995100  1
  N  20  1  0.80642600  0.71813200  0.88021200  1
  N  75  1  0.86586100  0.74890900  0.95963500  1
  N  76  1  0.81576300  0.92868200  0.86584000  1
  N  77  1  0.64629100  0.75037500  0.78167300  1
  N  78  1  0.82015800  0.57008600  0.86624500  1
  N  82  1  0.76788200  0.77887300  0.14828300  1
  N  86  1  0.76839100  0.71852800  0.14882100  1
  N  92  1  0.80540800  0.71942200  0.11872400  1
  N  98  1  0.80525100  0.77968300  0.11826600  1
  N  153  1  0.85527100  0.75065100  0.03825400  1
  N  154  1  0.81529500  0.56935800  0.13315600  1
  N  155  1  0.64652800  0.74801200  0.21709700  1
  N  156  1  0.82071900  0.92791100  0.13215800  1
  N  160  1  0.89965900  0.21942200  0.14838600  1
  N  164  1  0.89852600  0.27978300  0.14892900  1
  N  170  1  0.86027000  0.27861100  0.11905000  1
  N  176  1  0.86144900  0.21833300  0.11848700  1
  N  231  1  0.79989600  0.25074700  0.03945200  1
  N  232  1  0.84600100  0.42793500  0.13167600  1
  N  233  1  0.02129600  0.25035900  0.21712500  1
  N  234  1  0.85449200  0.06904300  0.13357500  1
  N  238  1  0.89956400  0.27889100  0.85012200  1
  N  242  1  0.89850800  0.21849300  0.84972200  1
  N  248  1  0.86114700  0.21979800  0.87972200  1
  N  254  1  0.86243400  0.28010400  0.88017700  1
  N  309  1  0.81244000  0.24874700  0.96025800  1
  N  310  1  0.84631200  0.07030700  0.86721500  1
  N  311  1  0.02120800  0.24782600  0.78151000  1
  N  312  1  0.85446200  0.42921800  0.86492600  1
  N  316  1  0.26471400  0.21897800  0.35037500  1
  N  320  1  0.26591000  0.27934600  0.35023400  1
  N  326  1  0.30420200  0.27767800  0.38009300  1
  N  332  1  0.30368600  0.21743000  0.38012200  1
  N  387  1  0.36363000  0.24783700  0.45962500  1
  N  388  1  0.31536400  0.42814700  0.36613300  1
  N  389  1  0.15375300  0.25203000  0.27929400  1
  N  390  1  0.31970400  0.06978500  0.36543100  1
  N  394  1  0.26463100  0.27831100  0.64824800  1
  N  398  1  0.26567900  0.21791300  0.64861100  1
  N  404  1  0.30291800  0.21921300  0.61858200  1
  N  410  1  0.30245000  0.27950700  0.61832300  1
  N  465  1  0.35301400  0.25065200  0.53824100  1
  N  466  1  0.31475600  0.06901600  0.63290900  1
  N  467  1  0.15397200  0.24597100  0.71948900  1
  N  468  1  0.32014400  0.42735400  0.63293500  1
  N  472  1  0.40316700  0.71921000  0.64834200  1
  N  476  1  0.40156300  0.77964000  0.64867600  1
  N  482  1  0.36315300  0.77800700  0.61886800  1
  N  488  1  0.36454000  0.71767700  0.61854300  1
  N  543  1  0.30246700  0.74990100  0.53944700  1
  N  544  1  0.34698900  0.92746700  0.63138500  1
  N  545  1  0.51390300  0.75198600  0.71951300  1
  N  546  1  0.35577100  0.56867500  0.63439500  1
  N  550  1  0.40326900  0.77826800  0.35020700  1
  N  554  1  0.40165400  0.71779500  0.34999100  1
  N  560  1  0.36396400  0.71955600  0.37989200  1
  N  566  1  0.36555900  0.77992000  0.38012800  1
  N  621  1  0.31493000  0.74893700  0.46024800  1
  N  622  1  0.34737800  0.56992300  0.36753400  1
  N  623  1  0.51379400  0.74567100  0.27909200  1
  N  624  1  0.35583600  0.92873800  0.36411200  1
  N  629  1  0.83584600  0.75479300  0.99511600  1
  N  630  1  0.84289300  0.75274500  0.00901700  1
  N  646  1  0.82984500  0.23948700  0.00332400  1
  N  647  1  0.82327600  0.24182800  0.98940500  1
  N  663  1  0.33369600  0.25423600  0.49508600  1
  N  664  1  0.34071700  0.25237800  0.50899600  1
  N  680  1  0.33234700  0.73910900  0.50324900  1
  N  681  1  0.32572600  0.74158200  0.48934300  1
  N  697  1  0.85578900  0.00418100  0.86058300  1
  N  698  1  0.84109200  0.98027200  0.86185000  1
  N  714  1  0.85546600  0.49395000  0.13824700  1
  N  715  1  0.84068100  0.51781500  0.13704200  1
  N  731  1  0.81268000  0.99398600  0.13870100  1
  N  732  1  0.82794800  0.01772800  0.13746600  1
  N  748  1  0.81199800  0.50400800  0.85991000  1
  N  749  1  0.82739200  0.48033600  0.86114100  1
  N  765  1  0.35632700  0.50355300  0.36086400  1
  N  766  1  0.34148200  0.47968100  0.36214500  1
  N  782  1  0.35584500  0.99370600  0.63802300  1
  N  783  1  0.34088500  0.01752600  0.63680900  1
  N  799  1  0.31311500  0.49369400  0.63968200  1
  N  800  1  0.32856800  0.51738200  0.63841000  1
  N  816  1  0.31282400  0.00350600  0.35883300  1
  N  817  1  0.32835400  0.97987700  0.36013200  1
  N  833  1  0.59777300  0.74746700  0.74097700  1
  N  834  1  0.61338600  0.74850100  0.75390400  1
  N  850  1  0.59776200  0.75058800  0.25772000  1
  N  851  1  0.61347200  0.74959900  0.24481200  1
  N  867  1  0.06990500  0.24714100  0.25781600  1
  N  868  1  0.05425200  0.24827600  0.24489800  1
  N  884  1  0.07006500  0.25107900  0.74089700  1
  N  885  1  0.05430600  0.24984700  0.75379200  1
  N  900  1  0.51095600  0.61930600  0.85038700  1
  N  904  1  0.51167100  0.67962300  0.85003800  1
  N  910  1  0.54983400  0.67839300  0.87995100  1
  N  916  1  0.54958400  0.61817400  0.88021200  1
  N  971  1  0.60901900  0.64895100  0.95963500  1
  N  972  1  0.55892100  0.82872400  0.86584000  1
  N  973  1  0.38944900  0.65041700  0.78167300  1
  N  974  1  0.56331600  0.47012800  0.86624500  1
  N  978  1  0.51104000  0.67891500  0.14828300  1
  N  982  1  0.51154900  0.61857000  0.14882100  1
  N  988  1  0.54856600  0.61946400  0.11872400  1
  N  994  1  0.54840900  0.67972500  0.11826600  1
  N  1049  1  0.59842900  0.65069300  0.03825400  1
  N  1050  1  0.55845300  0.46940000  0.13315600  1
  N  1051  1  0.38968600  0.64805400  0.21709700  1
  N  1052  1  0.56387700  0.82795300  0.13215800  1
  N  1056  1  0.64281700  0.11946400  0.14838600  1
  N  1060  1  0.64168400  0.17982500  0.14892900  1
  N  1066  1  0.60342800  0.17865300  0.11905000  1
  N  1072  1  0.60460700  0.11837500  0.11848700  1
  N  1127  1  0.54305400  0.15078900  0.03945200  1
  N  1128  1  0.58915900  0.32797700  0.13167600  1
  N  1129  1  0.76445400  0.15040100  0.21712500  1
  N  1130  1  0.59765000  0.96908480  0.13357500  1
  N  1134  1  0.64272200  0.17893300  0.85012200  1
  N  1138  1  0.64166600  0.11853500  0.84972200  1
  N  1144  1  0.60430500  0.11984000  0.87972200  1
  N  1150  1  0.60559200  0.18014600  0.88017700  1
  N  1205  1  0.55559800  0.14878900  0.96025800  1
  N  1206  1  0.58947000  0.97034880  0.86721500  1
  N  1207  1  0.76436600  0.14786800  0.78151000  1
  N  1208  1  0.59762000  0.32926000  0.86492600  1
  N  1212  1  0.00787200  0.11902000  0.35037500  1
  N  1216  1  0.00906800  0.17938800  0.35023400  1
  N  1222  1  0.04736000  0.17772000  0.38009300  1
  N  1228  1  0.04684400  0.11747200  0.38012200  1
  N  1283  1  0.10678800  0.14787900  0.45962500  1
  N  1284  1  0.05852200  0.32818900  0.36613300  1
  N  1285  1  0.89691100  0.15207200  0.27929400  1
  N  1286  1  0.06286200  0.96982680  0.36543100  1
  N  1290  1  0.00778900  0.17835300  0.64824800  1
  N  1294  1  0.00883700  0.11795500  0.64861100  1
  N  1300  1  0.04607600  0.11925500  0.61858200  1
  N  1306  1  0.04560800  0.17954900  0.61832300  1
  N  1361  1  0.09617200  0.15069400  0.53824100  1
  N  1362  1  0.05791400  0.96905780  0.63290900  1
  N  1363  1  0.89713000  0.14601300  0.71948900  1
  N  1364  1  0.06330200  0.32739600  0.63293500  1
  N  1368  1  0.14632500  0.61925200  0.64834200  1
  N  1372  1  0.14472100  0.67968200  0.64867600  1
  N  1378  1  0.10631100  0.67804900  0.61886800  1
  N  1384  1  0.10769800  0.61771900  0.61854300  1
  N  1439  1  0.04562500  0.64994300  0.53944700  1
  N  1440  1  0.09014700  0.82750900  0.63138500  1
  N  1441  1  0.25706100  0.65202800  0.71951300  1
  N  1442  1  0.09892900  0.46871700  0.63439500  1
  N  1446  1  0.14642700  0.67831000  0.35020700  1
  N  1450  1  0.14481200  0.61783700  0.34999100  1
  N  1456  1  0.10712200  0.61959800  0.37989200  1
  N  1462  1  0.10871700  0.67996200  0.38012800  1
  N  1517  1  0.05808800  0.64897900  0.46024800  1
  N  1518  1  0.09053600  0.46996500  0.36753400  1
  N  1519  1  0.25695200  0.64571300  0.27909200  1
  N  1520  1  0.09899400  0.82878000  0.36411200  1
  N  1525  1  0.57900400  0.65483500  0.99511600  1
  N  1526  1  0.58605100  0.65278700  0.00901700  1
  N  1542  1  0.57300300  0.13952900  0.00332400  1
  N  1543  1  0.56643400  0.14187000  0.98940500  1
  N  1559  1  0.07685400  0.15427800  0.49508600  1
  N  1560  1  0.08387500  0.15242000  0.50899600  1
  N  1576  1  0.07550500  0.63915100  0.50324900  1
  N  1577  1  0.06888400  0.64162400  0.48934300  1
  N  1593  1  0.59894700  0.90422280  0.86058300  1
  N  1594  1  0.58425000  0.88031400  0.86185000  1
  N  1610  1  0.59862400  0.39399200  0.13824700  1
  N  1611  1  0.58383900  0.41785700  0.13704200  1
  N  1627  1  0.55583800  0.89402800  0.13870100  1
  N  1628  1  0.57110600  0.91776980  0.13746600  1
  N  1644  1  0.55515600  0.40405000  0.85991000  1
  N  1645  1  0.57055000  0.38037800  0.86114100  1
  N  1661  1  0.09948500  0.40359500  0.36086400  1
  N  1662  1  0.08464000  0.37972300  0.36214500  1
  N  1678  1  0.09900300  0.89374800  0.63802300  1
  N  1679  1  0.08404300  0.91756780  0.63680900  1
  N  1695  1  0.05627300  0.39373600  0.63968200  1
  N  1696  1  0.07172600  0.41742400  0.63841000  1
  N  1712  1  0.05598200  0.90354780  0.35883300  1
  N  1713  1  0.07151200  0.87991900  0.36013200  1
  N  1729  1  0.34093100  0.64750900  0.74097700  1
  N  1730  1  0.35654400  0.64854300  0.75390400  1
  N  1746  1  0.34092000  0.65063000  0.25772000  1
  N  1747  1  0.35663000  0.64964100  0.24481200  1
  N  1763  1  0.81306300  0.14718300  0.25781600  1
  N  1764  1  0.79741000  0.14831800  0.24489800  1
  N  1780  1  0.81322300  0.15112100  0.74089700  1
  N  1781  1  0.79746400  0.14988900  0.75379200  1
  O  637  1  0.94274100  0.78420900  0.97878100  1
  O  654  1  0.73038800  0.28344700  0.01991800  1
  O  671  1  0.44046300  0.28334500  0.47857200  1
  O  688  1  0.23230900  0.78320400  0.51973900  1
  O  705  1  0.82853600  0.03457500  0.90406200  1
  O  722  1  0.82816000  0.46367400  0.09465300  1
  O  739  1  0.83898900  0.96341600  0.09509100  1
  O  756  1  0.83787600  0.53504100  0.90319700  1
  O  773  1  0.32917300  0.53462900  0.40401400  1
  O  790  1  0.32919900  0.96295900  0.59476300  1
  O  807  1  0.33774900  0.46263900  0.59637300  1
  O  824  1  0.33781400  0.03437200  0.40237100  1
  O  841  1  0.47671500  0.74854600  0.75492200  1
  O  858  1  0.47660400  0.74910700  0.24363300  1
  O  875  1  0.19111500  0.24936700  0.24390800  1
  O  892  1  0.19074400  0.24969100  0.75455500  1
  O  1533  1  0.68589900  0.68425100  0.97878100  1
  O  1550  1  0.47354600  0.18348900  0.01991800  1
  O  1567  1  0.18362100  0.18338700  0.47857200  1
  O  1584  1  0.97546700  0.68324600  0.51973900  1
  O  1601  1  0.57169400  0.93461680  0.90406200  1
  O  1618  1  0.57131800  0.36371600  0.09465300  1
  O  1635  1  0.58214700  0.86345800  0.09509100  1
  O  1652  1  0.58103400  0.43508300  0.90319700  1
  O  1669  1  0.07233100  0.43467100  0.40401400  1
  O  1686  1  0.07235700  0.86300100  0.59476300  1
  O  1703  1  0.08090700  0.36268100  0.59637300  1
  O  1720  1  0.08097200  0.93441380  0.40237100  1
  O  1737  1  0.21987300  0.64858800  0.75492200  1
  O  1754  1  0.21976200  0.64914900  0.24363300  1
  O  1771  1  0.93427300  0.14940900  0.24390800  1
  O  1788  1  0.93390200  0.14973300  0.75455500  1
