# generated using pymatgen
data_H36C45(N4O)2
_symmetry_space_group_name_H-M   'P 1'
_cell_length_a   26.41110000
_cell_length_b   71.79300000
_cell_length_c   71.79300000
_cell_angle_alpha   90.00000000
_cell_angle_beta   90.00000000
_cell_angle_gamma   90.00000000
_symmetry_Int_Tables_number   1
_chemical_formula_structural   H36C45(N4O)2
_chemical_formula_sum   'H576 C720 N128 O32'
_cell_volume   136129.01202042
_cell_formula_units_Z   16
loop_
 _symmetry_equiv_pos_site_id
 _symmetry_equiv_pos_as_xyz
  1  'x, y, z'
loop_
 _atom_site_type_symbol
 _atom_site_label
 _atom_site_symmetry_multiplicity
 _atom_site_fract_x
 _atom_site_fract_y
 _atom_site_fract_z
 _atom_site_occupancy
  H  25  1  0.10024900  0.05866800  0.97873100  1
  H  26  1  0.14884700  0.08123900  0.96231900  1
  H  27  1  0.19875300  0.10682500  0.95135500  1
  H  28  1  0.25505200  0.13163900  0.94456200  1
  H  29  1  0.32810400  0.12377000  0.99652400  1
  H  30  1  0.19323600  0.06603800  0.02630400  1
  H  31  1  0.19029900  0.12433000  0.01982600  1
  H  32  1  0.25370100  0.12925000  0.07388800  1
  H  33  1  0.31062600  0.10460000  0.06717100  1
  H  34  1  0.32546000  0.06649800  0.99082300  1
  H  35  1  0.36378500  0.08003800  0.05570500  1
  H  36  1  0.41391700  0.05788400  0.03935100  1
  H  42  1  0.09990200  0.05042200  0.02650900  1
  H  43  1  0.34927000  0.15168300  0.97426400  1
  H  44  1  0.41762000  0.05047900  0.99118900  1
  H  45  1  0.15850600  0.14885000  0.04273600  1
  H  70  1  0.60036900  0.45911600  0.03906200  1
  H  71  1  0.64897300  0.43655000  0.05547400  1
  H  72  1  0.69877800  0.41093200  0.06642400  1
  H  73  1  0.75508800  0.38613100  0.07323400  1
  H  74  1  0.82819000  0.39398900  0.02128300  1
  H  75  1  0.69325400  0.45170200  0.99146800  1
  H  76  1  0.69041400  0.39340200  0.99796100  1
  H  77  1  0.75395600  0.38844100  0.94392600  1
  H  78  1  0.81075800  0.41313200  0.95062400  1
  H  79  1  0.82546700  0.45127500  0.02695400  1
  H  80  1  0.86389000  0.43770000  0.96208900  1
  H  81  1  0.91396800  0.45987500  0.97843400  1
  H  87  1  0.60015300  0.46739100  0.99123000  1
  H  88  1  0.84938500  0.36609300  0.04356000  1
  H  89  1  0.91766700  0.46730500  0.02658000  1
  H  90  1  0.65775400  0.36918100  0.97490600  1
  H  115  1  0.35039100  0.28915200  0.80811000  1
  H  116  1  0.39907100  0.30554900  0.83066800  1
  H  117  1  0.44891000  0.31647400  0.85630400  1
  H  118  1  0.50509400  0.32321100  0.88116600  1
  H  119  1  0.57807100  0.27124400  0.87326700  1
  H  120  1  0.44315800  0.24152800  0.81551300  1
  H  121  1  0.44034100  0.24804000  0.87380600  1
  H  122  1  0.50323200  0.19388700  0.87862100  1
  H  123  1  0.56025300  0.20058400  0.85398600  1
  H  124  1  0.57558400  0.27697000  0.81597100  1
  H  125  1  0.61363600  0.21206100  0.82948800  1
  H  126  1  0.66385000  0.22839800  0.80734400  1
  H  132  1  0.34995400  0.24132900  0.79986800  1
  H  133  1  0.59928200  0.29344100  0.90118700  1
  H  134  1  0.66777200  0.27655200  0.79996600  1
  H  135  1  0.41002500  0.22532700  0.89897300  1
  H  160  1  0.85033600  0.22866000  0.20967100  1
  H  161  1  0.89901200  0.21226300  0.18711300  1
  H  162  1  0.94877900  0.20135500  0.16145600  1
  H  163  1  0.00496400  0.19461500  0.13659200  1
  H  164  1  0.07798200  0.24657200  0.14450300  1
  H  165  1  0.94311100  0.27628300  0.20227100  1
  H  166  1  0.94041900  0.26975300  0.14393300  1
  H  167  1  0.00390700  0.32378900  0.13890400  1
  H  168  1  0.06064300  0.31714300  0.16363300  1
  H  169  1  0.07545500  0.24084800  0.20184600  1
  H  170  1  0.11371200  0.30572400  0.18825500  1
  H  171  1  0.16385100  0.28939600  0.21042900  1
  H  177  1  0.84967700  0.27643400  0.21785700  1
  H  178  1  0.09917000  0.22437300  0.11657800  1
  H  179  1  0.16766200  0.24124500  0.21787100  1
  H  180  1  0.90787600  0.29274000  0.11963500  1
  H  205  1  0.91737900  0.95918700  0.03909900  1
  H  206  1  0.87422300  0.93441900  0.05410100  1
  H  207  1  0.82439200  0.90868500  0.06486900  1
  H  208  1  0.76581400  0.88465200  0.07200900  1
  H  209  1  0.68760900  0.89518100  0.02155200  1
  H  210  1  0.81788000  0.95482400  0.99290500  1
  H  211  1  0.82915100  0.89470300  0.99751700  1
  H  212  1  0.75834000  0.88664000  0.94512200  1
  H  213  1  0.69944100  0.91061000  0.95214400  1
  H  214  1  0.69869900  0.95445000  0.02565100  1
  H  215  1  0.64725100  0.93554300  0.96340500  1
  H  216  1  0.60292800  0.95996200  0.97852900  1
  H  222  1  0.88192100  0.98182500  0.99586900  1
  H  223  1  0.66615500  0.86688500  0.04326600  1
  H  224  1  0.63528200  0.98173800  0.02243200  1
  H  225  1  0.86014200  0.86980000  0.97496200  1
  H  250  1  0.41736600  0.55857700  0.97866200  1
  H  251  1  0.37419700  0.58334400  0.96366000  1
  H  252  1  0.32435000  0.60907400  0.95289200  1
  H  253  1  0.26574200  0.63309400  0.94574900  1
  H  254  1  0.18756300  0.62256300  0.99621300  1
  H  255  1  0.31793700  0.56295900  0.02487200  1
  H  256  1  0.32919900  0.62306500  0.02027200  1
  H  257  1  0.25842400  0.63110500  0.07267800  1
  H  258  1  0.19954200  0.60712900  0.06565600  1
  H  259  1  0.19867200  0.56335300  0.99210900  1
  H  260  1  0.14728200  0.58222600  0.05437300  1
  H  261  1  0.10292600  0.55782400  0.03923600  1
  H  267  1  0.38192300  0.53593800  0.02188200  1
  H  268  1  0.16601800  0.65084000  0.97449500  1
  H  269  1  0.13517300  0.53609700  0.99528200  1
  H  270  1  0.36021100  0.64795900  0.04283500  1
  H  295  1  0.66744300  0.72876000  0.20901400  1
  H  296  1  0.61884200  0.71234200  0.18644900  1
  H  297  1  0.56892700  0.70135700  0.16087800  1
  H  298  1  0.51256500  0.69452200  0.13609500  1
  H  299  1  0.43954200  0.74649800  0.14390700  1
  H  300  1  0.57448600  0.77633700  0.20161000  1
  H  301  1  0.57724200  0.76983700  0.14328000  1
  H  302  1  0.51364400  0.82386200  0.13831600  1
  H  303  1  0.45691800  0.81716800  0.16304000  1
  H  304  1  0.44227200  0.74083900  0.20118700  1
  H  305  1  0.40388300  0.80571100  0.18763300  1
  H  306  1  0.35380400  0.78936400  0.20980300  1
  H  312  1  0.66774900  0.77656500  0.21726200  1
  H  313  1  0.41818400  0.72419500  0.11606200  1
  H  314  1  0.35003900  0.74122300  0.21722900  1
  H  315  1  0.60950900  0.79284200  0.11894500  1
  H  340  1  0.16736800  0.78903100  0.80875500  1
  H  341  1  0.11875800  0.80544500  0.83132000  1
  H  342  1  0.06887300  0.81642100  0.85690000  1
  H  343  1  0.01253900  0.82324800  0.88169100  1
  H  344  1  0.93951400  0.77127300  0.87387800  1
  H  345  1  0.07446900  0.74144000  0.81616900  1
  H  346  1  0.07717700  0.74793300  0.87451300  1
  H  347  1  0.01351800  0.69391900  0.87948300  1
  H  348  1  0.95682100  0.70061600  0.85475100  1
  H  349  1  0.94222900  0.77694300  0.81660500  1
  H  350  1  0.90385100  0.71206600  0.83013900  1
  H  351  1  0.85376200  0.72842100  0.80797800  1
  H  357  1  0.16762000  0.74120100  0.80048800  1
  H  358  1  0.91824600  0.79357700  0.90175000  1
  H  359  1  0.85002100  0.77656500  0.80056700  1
  H  360  1  0.10942600  0.72492200  0.89884700  1
  H  385  1  0.60035400  0.55867600  0.47872700  1
  H  386  1  0.64895800  0.58124000  0.46230600  1
  H  387  1  0.69888000  0.60680500  0.45131600  1
  H  388  1  0.75518200  0.63160700  0.44448800  1
  H  389  1  0.82812900  0.62384100  0.49648500  1
  H  390  1  0.69323900  0.56611000  0.52631400  1
  H  391  1  0.69043700  0.62442800  0.51983700  1
  H  392  1  0.75386900  0.62930800  0.57389500  1
  H  393  1  0.81071600  0.60463300  0.56716700  1
  H  394  1  0.82548200  0.56654000  0.49081400  1
  H  395  1  0.86379600  0.58006000  0.55569900  1
  H  396  1  0.91388800  0.55789500  0.53934800  1
  H  402  1  0.60000900  0.55046500  0.52653400  1
  H  403  1  0.84937400  0.65171200  0.47417900  1
  H  404  1  0.91763300  0.55047900  0.49118600  1
  H  405  1  0.65903300  0.64904800  0.54272000  1
  H  430  1  0.10047400  0.95910900  0.53907000  1
  H  431  1  0.14908400  0.93654700  0.55548300  1
  H  432  1  0.19891700  0.91094700  0.56645500  1
  H  433  1  0.25524000  0.88615900  0.57329400  1
  H  434  1  0.32821100  0.89392200  0.52130600  1
  H  435  1  0.19324600  0.95163700  0.49145800  1
  H  436  1  0.19054400  0.89330400  0.49794400  1
  H  437  1  0.25406000  0.88839900  0.44390200  1
  H  438  1  0.31077600  0.91312000  0.45060800  1
  H  439  1  0.32549800  0.95122300  0.52695600  1
  H  440  1  0.36383400  0.93770100  0.46207500  1
  H  441  1  0.41389400  0.95987800  0.47842200  1
  H  447  1  0.10021400  0.96733700  0.49121800  1
  H  448  1  0.34948300  0.86606400  0.54362400  1
  H  449  1  0.41763900  0.96728200  0.52657800  1
  H  450  1  0.15827400  0.86897700  0.47492000  1
  H  475  1  0.85038900  0.78913900  0.30851800  1
  H  476  1  0.89354500  0.80414200  0.33328600  1
  H  477  1  0.94341000  0.81492100  0.35900900  1
  H  478  1  0.00198400  0.82206700  0.38303800  1
  H  479  1  0.08017000  0.77160200  0.37252800  1
  H  480  1  0.94983200  0.74293500  0.31290300  1
  H  481  1  0.93848000  0.74751900  0.37298500  1
  H  482  1  0.00894200  0.69503300  0.38089000  1
  H  483  1  0.06800100  0.70210000  0.35698400  1
  H  484  1  0.06915000  0.77570400  0.31330900  1
  H  485  1  0.12045900  0.71342900  0.33216800  1
  H  486  1  0.16485000  0.72856600  0.30777400  1
  H  492  1  0.88576000  0.74588000  0.28591200  1
  H  493  1  0.10164700  0.79332200  0.40081800  1
  H  494  1  0.13269000  0.77254700  0.28607100  1
  H  495  1  0.90850800  0.72506300  0.39840000  1
  H  520  1  0.35038900  0.72867000  0.70926300  1
  H  521  1  0.39358100  0.71366100  0.68451000  1
  H  522  1  0.44335900  0.70290300  0.65876400  1
  H  523  1  0.50192200  0.69575500  0.63473100  1
  H  524  1  0.58008600  0.74622900  0.64521900  1
  H  525  1  0.44975400  0.77489500  0.70485200  1
  H  526  1  0.43857700  0.77027500  0.64472100  1
  H  527  1  0.50956600  0.82262400  0.63659200  1
  H  528  1  0.56835200  0.81562500  0.66060400  1
  H  529  1  0.56902600  0.74213600  0.70448000  1
  H  530  1  0.62048500  0.80437700  0.68556600  1
  H  531  1  0.66481900  0.78925200  0.70998200  1
  H  537  1  0.38577700  0.77190700  0.73188000  1
  H  538  1  0.60155000  0.72449900  0.61693400  1
  H  539  1  0.63259800  0.74528200  0.73170600  1
  H  540  1  0.40689300  0.79297600  0.62005700  1
  H  565  1  0.41735500  0.45914500  0.53910200  1
  H  566  1  0.37417900  0.43438400  0.55410600  1
  H  567  1  0.32428300  0.40868400  0.56489900  1
  H  568  1  0.26568100  0.38467000  0.57206600  1
  H  569  1  0.18757400  0.39512500  0.52157200  1
  H  570  1  0.31787900  0.45477600  0.49290600  1
  H  571  1  0.32901400  0.39461100  0.49750800  1
  H  572  1  0.25826300  0.38662300  0.44509200  1
  H  573  1  0.19944200  0.41062200  0.45212200  1
  H  574  1  0.19865000  0.45439400  0.52566900  1
  H  575  1  0.14729400  0.43555400  0.46339500  1
  H  576  1  0.10296400  0.45996300  0.47853300  1
  H  582  1  0.38193800  0.48177400  0.49586300  1
  H  583  1  0.16605200  0.36685900  0.54332400  1
  H  584  1  0.13517200  0.48166400  0.52249400  1
  H  585  1  0.35966100  0.36961400  0.47498100  1
  H  610  1  0.91734900  0.05863100  0.47865600  1
  H  611  1  0.87417000  0.08339400  0.46365300  1
  H  612  1  0.82425200  0.10908600  0.45285100  1
  H  613  1  0.76561400  0.13308500  0.44567600  1
  H  614  1  0.68751400  0.12262800  0.49617000  1
  H  615  1  0.81791400  0.06301600  0.52486100  1
  H  616  1  0.82906800  0.12316500  0.52027100  1
  H  617  1  0.75831400  0.13114500  0.57268700  1
  H  618  1  0.69949800  0.10714500  0.56565600  1
  H  619  1  0.69864200  0.06340600  0.49208900  1
  H  620  1  0.64726200  0.08225300  0.55435800  1
  H  621  1  0.60292100  0.05785100  0.53921700  1
  H  627  1  0.88192800  0.03600000  0.52188500  1
  H  628  1  0.66588700  0.15086900  0.47441000  1
  H  629  1  0.63513800  0.03614800  0.49524500  1
  H  630  1  0.85973700  0.14815100  0.54280500  1
  H  655  1  0.16737300  0.22874300  0.70859900  1
  H  656  1  0.12421300  0.21371200  0.68385300  1
  H  657  1  0.07430200  0.20287800  0.65818600  1
  H  658  1  0.01560800  0.19564600  0.63422400  1
  H  659  1  0.93743900  0.24614100  0.64462600  1
  H  660  1  0.06784300  0.27492000  0.70419400  1
  H  661  1  0.07911100  0.27034400  0.64411200  1
  H  662  1  0.00823100  0.32273900  0.63613200  1
  H  663  1  0.94930900  0.31565800  0.66008200  1
  H  664  1  0.94868400  0.24210700  0.70384500  1
  H  665  1  0.89707400  0.30434000  0.68496000  1
  H  666  1  0.85282700  0.28920100  0.70938300  1
  H  672  1  0.13191600  0.27199700  0.73118900  1
  H  673  1  0.91581600  0.22431200  0.61641700  1
  H  674  1  0.88517300  0.24524800  0.73110000  1
  H  675  1  0.10985600  0.29293300  0.61917600  1
  H  700  1  0.66732500  0.28904100  0.30916800  1
  H  701  1  0.62418400  0.30406300  0.33392300  1
  H  702  1  0.57426200  0.31490000  0.35958100  1
  H  703  1  0.51559800  0.32212500  0.38355300  1
  H  704  1  0.43746000  0.27162100  0.37316900  1
  H  705  1  0.56784500  0.24285100  0.31358400  1
  H  706  1  0.57906700  0.24741800  0.37370000  1
  H  707  1  0.50795700  0.19508200  0.38176000  1
  H  708  1  0.44913700  0.20214500  0.35777000  1
  H  709  1  0.44866400  0.27567300  0.31396800  1
  H  710  1  0.39709100  0.21342600  0.33281500  1
  H  711  1  0.35280800  0.22858200  0.30840900  1
  H  717  1  0.63194600  0.24575700  0.28660200  1
  H  718  1  0.41591200  0.29345600  0.40140000  1
  H  719  1  0.38509200  0.27256700  0.28673400  1
  H  720  1  0.61049300  0.22469600  0.39839100  1
  H  729  1  0.07876300  0.97321400  0.04200300  1
  H  730  1  0.14428300  0.97112300  0.03790100  1
  H  731  1  0.10105900  0.96699000  0.01960400  1
  H  733  1  0.08964200  0.00703600  0.05394200  1
  H  734  1  0.12805500  0.02277800  0.04147200  1
  H  735  1  0.15526300  0.00282400  0.05133300  1
  H  737  1  0.14699200  0.99225300  0.99883800  1
  H  738  1  0.19021500  0.99236300  0.01765600  1
  H  739  1  0.16554900  0.01339600  0.00943400  1
  H  741  1  0.93370200  0.01343400  0.99622000  1
  H  752  1  0.57885100  0.54457200  0.97580700  1
  H  753  1  0.64437700  0.54663400  0.97991200  1
  H  754  1  0.60116800  0.55075700  0.99821500  1
  H  756  1  0.58962700  0.51076000  0.96382400  1
  H  757  1  0.62801200  0.49499100  0.97627100  1
  H  758  1  0.65526200  0.51494700  0.96643300  1
  H  760  1  0.64705400  0.52545300  0.01894300  1
  H  761  1  0.69026300  0.52534800  0.00012200  1
  H  762  1  0.66554200  0.50431600  0.00832000  1
  H  764  1  0.43369300  0.50435200  0.02154100  1
  H  775  1  0.32839200  0.22568000  0.72276600  1
  H  776  1  0.39397800  0.22965200  0.72072000  1
  H  777  1  0.35104000  0.24802700  0.71653100  1
  H  779  1  0.33886600  0.21376600  0.75660600  1
  H  780  1  0.37736400  0.22617500  0.77236700  1
  H  781  1  0.40455300  0.21623300  0.75245100  1
  H  783  1  0.39717400  0.26873000  0.74180700  1
  H  784  1  0.44009500  0.24982000  0.74195700  1
  H  785  1  0.41547700  0.25811200  0.76296800  1
  H  787  1  0.18369300  0.27175000  0.76279200  1
  H  798  1  0.82832200  0.29215000  0.29499600  1
  H  799  1  0.89390100  0.28817500  0.29707400  1
  H  800  1  0.85093800  0.26980900  0.30127200  1
  H  802  1  0.83892000  0.30401500  0.26114300  1
  H  803  1  0.87744900  0.29157600  0.24541400  1
  H  804  1  0.90459300  0.30154200  0.26532700  1
  H  806  1  0.89711100  0.24906200  0.27604500  1
  H  807  1  0.94005900  0.26796400  0.27588400  1
  H  808  1  0.91549000  0.25964700  0.25487600  1
  H  810  1  0.68371600  0.24603400  0.25496800  1
  H  821  1  0.93910100  0.54460200  0.04193700  1
  H  822  1  0.87363600  0.54680600  0.03776400  1
  H  823  1  0.91705800  0.55089700  0.01952400  1
  H  825  1  0.92763600  0.51076500  0.05382200  1
  H  826  1  0.88904300  0.49513500  0.04128300  1
  H  827  1  0.86211500  0.51514000  0.05114000  1
  H  829  1  0.87108100  0.52575800  0.99866300  1
  H  830  1  0.82764100  0.52563900  0.01741300  1
  H  831  1  0.85224000  0.50460200  0.00916500  1
  H  833  1  0.08384000  0.50423200  0.99612700  1
  H  844  1  0.43908100  0.97318300  0.97583400  1
  H  845  1  0.37361900  0.97097800  0.98001500  1
  H  846  1  0.41706300  0.96688900  0.99825000  1
  H  848  1  0.42760000  0.00702100  0.96394800  1
  H  849  1  0.38901400  0.02265000  0.97649100  1
  H  850  1  0.36208400  0.00264400  0.96663800  1
  H  852  1  0.37109900  0.99202900  0.01911500  1
  H  853  1  0.32764200  0.99214500  0.00037100  1
  H  854  1  0.35224500  0.01318400  0.00861400  1
  H  856  1  0.58384200  0.01354900  0.02164200  1
  H  867  1  0.68934300  0.29206100  0.72272300  1
  H  868  1  0.62384000  0.28796100  0.72052300  1
  H  869  1  0.66711300  0.26968200  0.71638800  1
  H  871  1  0.67803300  0.30388900  0.75658700  1
  H  872  1  0.63935600  0.29136300  0.77219700  1
  H  873  1  0.61248500  0.30129000  0.75221900  1
  H  875  1  0.62099600  0.24882500  0.74149800  1
  H  876  1  0.57771200  0.26762200  0.74165500  1
  H  877  1  0.60226200  0.25930800  0.76267400  1
  H  879  1  0.83376700  0.24599600  0.76295100  1
  H  890  1  0.18934400  0.22574400  0.29508600  1
  H  891  1  0.12382200  0.22980400  0.29726900  1
  H  892  1  0.16700900  0.24811100  0.30140400  1
  H  894  1  0.17816700  0.21389400  0.26122800  1
  H  895  1  0.13946600  0.22638700  0.24559800  1
  H  896  1  0.11259400  0.21645200  0.26557200  1
  H  898  1  0.12081500  0.26892600  0.27627600  1
  H  899  1  0.07763000  0.25009700  0.27611800  1
  H  900  1  0.10217000  0.25841800  0.25510000  1
  H  902  1  0.33373100  0.27180000  0.25485100  1
  H  913  1  0.68910800  0.79209700  0.29443000  1
  H  914  1  0.62355200  0.78805400  0.29649000  1
  H  915  1  0.66666667  0.76971800  0.30064000  1
  H  917  1  0.67843800  0.80405200  0.26061100  1
  H  918  1  0.64001900  0.79162100  0.24484200  1
  H  919  1  0.61278000  0.80150200  0.26477900  1
  H  921  1  0.62063700  0.74900000  0.27534900  1
  H  922  1  0.57755300  0.76786100  0.27523300  1
  H  923  1  0.60220900  0.75962500  0.25420600  1
  H  925  1  0.83401300  0.74619900  0.25428800  1
  H  936  1  0.18907000  0.72572000  0.72332900  1
  H  937  1  0.12351200  0.72976000  0.72128400  1
  H  938  1  0.16658500  0.74810400  0.71714400  1
  H  940  1  0.17845800  0.71373600  0.75714000  1
  H  941  1  0.14004900  0.72614900  0.77292500  1
  H  942  1  0.11279200  0.71628200  0.75298500  1
  H  944  1  0.12059500  0.76879400  0.74246000  1
  H  945  1  0.07752600  0.74993000  0.74256700  1
  H  946  1  0.10220200  0.75815000  0.76359700  1
  H  948  1  0.33400600  0.77159400  0.76348300  1
  H  959  1  0.32848300  0.72576100  0.29446800  1
  H  960  1  0.39399000  0.72985000  0.29665300  1
  H  961  1  0.35074300  0.74814000  0.30077700  1
  H  963  1  0.33971300  0.71390400  0.26061500  1
  H  964  1  0.37838400  0.72640600  0.24498200  1
  H  965  1  0.40527700  0.71649000  0.26496300  1
  H  967  1  0.39688600  0.76896500  0.27564400  1
  H  968  1  0.44012900  0.75015600  0.27549900  1
  H  969  1  0.41558300  0.75845600  0.25447600  1
  H  971  1  0.18395700  0.77173500  0.25420500  1
  H  982  1  0.82842100  0.79206000  0.72333300  1
  H  983  1  0.89392700  0.78796900  0.72114500  1
  H  984  1  0.85067300  0.76968300  0.71701000  1
  H  986  1  0.83965400  0.80389900  0.75719300  1
  H  987  1  0.87832800  0.79138800  0.77281700  1
  H  988  1  0.90521400  0.80131400  0.75284000  1
  H  990  1  0.89681200  0.74884400  0.74213100  1
  H  991  1  0.94005900  0.76765200  0.74228900  1
  H  992  1  0.91550900  0.75933900  0.76330600  1
  H  994  1  0.68388300  0.74607300  0.76357400  1
  H  1005  1  0.57871500  0.47325300  0.54203400  1
  H  1006  1  0.64424400  0.47118100  0.53794300  1
  H  1007  1  0.60105000  0.46704000  0.51963700  1
  H  1009  1  0.58952500  0.50706900  0.55398800  1
  H  1010  1  0.62789900  0.52283000  0.54152700  1
  H  1011  1  0.65516000  0.50288200  0.55138100  1
  H  1013  1  0.64694800  0.49232500  0.49888300  1
  H  1014  1  0.69015300  0.49243100  0.51770500  1
  H  1015  1  0.66547400  0.51346400  0.50949300  1
  H  1017  1  0.43367700  0.51341900  0.49621200  1
  H  1028  1  0.07876300  0.04452200  0.47574700  1
  H  1029  1  0.14429600  0.04657600  0.47984000  1
  H  1030  1  0.10111000  0.05071300  0.49814800  1
  H  1032  1  0.08949700  0.01071000  0.46377300  1
  H  1033  1  0.12785900  0.99493300  0.47621900  1
  H  1034  1  0.15514000  0.01488200  0.46637400  1
  H  1036  1  0.14698300  0.02540700  0.51888000  1
  H  1037  1  0.19017600  0.02529900  0.50005500  1
  H  1038  1  0.16546100  0.00426800  0.50825700  1
  H  1040  1  0.93367900  0.00437400  0.52156700  1
  H  1051  1  0.43925500  0.04454500  0.54201600  1
  H  1052  1  0.37376300  0.04673800  0.53789300  1
  H  1053  1  0.41708200  0.05085200  0.51962200  1
  H  1055  1  0.42792200  0.01069900  0.55388200  1
  H  1056  1  0.38929100  0.99506700  0.54136200  1
  H  1057  1  0.36237500  0.01505600  0.55125300  1
  H  1059  1  0.37101800  0.02571700  0.49877900  1
  H  1060  1  0.32768900  0.02558200  0.51756300  1
  H  1061  1  0.35225800  0.00455300  0.50928300  1
  H  1063  1  0.58379200  0.00426700  0.49604600  1
  H  1074  1  0.93929100  0.47324100  0.47573600  1
  H  1075  1  0.87378000  0.47105900  0.47982400  1
  H  1076  1  0.91702000  0.46693700  0.49811700  1
  H  1078  1  0.92806000  0.50709000  0.46386700  1
  H  1079  1  0.88939900  0.52272800  0.47636700  1
  H  1080  1  0.86249700  0.50274600  0.46645700  1
  H  1082  1  0.87088800  0.49207800  0.51893400  1
  H  1083  1  0.82764400  0.49222400  0.50012400  1
  H  1084  1  0.85220600  0.51324500  0.50842200  1
  H  1086  1  0.08378700  0.51351300  0.52171800  1
  H  1097  1  0.40286500  0.14233600  0.88209800  1
  H  1098  1  0.42417800  0.11985400  0.88810400  1
  H  1099  1  0.45972700  0.13955300  0.89484100  1
  H  1101  1  0.31602000  0.13662400  0.89832500  1
  H  1102  1  0.31476700  0.12592500  0.92044600  1
  H  1103  1  0.33912000  0.11368400  0.90134100  1
  H  1105  1  0.45618300  0.12861800  0.92959400  1
  H  1106  1  0.42522600  0.10877200  0.92045500  1
  H  1107  1  0.39801400  0.12100500  0.93904200  1
  H  1109  1  0.38283100  0.20619900  0.93122000  1
  H  1120  1  0.90267700  0.37537500  0.13576700  1
  H  1121  1  0.92390700  0.39787600  0.12979000  1
  H  1122  1  0.95955500  0.37820400  0.12304500  1
  H  1124  1  0.81585000  0.38106400  0.11952200  1
  H  1125  1  0.81460100  0.39177100  0.09740700  1
  H  1126  1  0.83886300  0.40401700  0.11652300  1
  H  1128  1  0.95604900  0.38916500  0.08829800  1
  H  1129  1  0.92501600  0.40898900  0.09745300  1
  H  1130  1  0.89787200  0.39676700  0.07884500  1
  H  1132  1  0.88319300  0.31156100  0.08654300  1
  H  1143  1  0.65272600  0.38565600  0.89234900  1
  H  1144  1  0.67396300  0.37977800  0.86982500  1
  H  1145  1  0.70956100  0.37292100  0.88947000  1
  H  1147  1  0.56585300  0.36948500  0.88657200  1
  H  1148  1  0.56452800  0.34742100  0.87576100  1
  H  1149  1  0.58887700  0.36658100  0.86360600  1
  H  1151  1  0.70593800  0.33822500  0.87834100  1
  H  1152  1  0.67498100  0.34749900  0.85855600  1
  H  1153  1  0.64774300  0.32884400  0.87067500  1
  H  1155  1  0.63294200  0.33615400  0.95592900  1
  H  1166  1  0.15263100  0.13216300  0.12546500  1
  H  1167  1  0.17390700  0.13805300  0.14798200  1
  H  1168  1  0.20948400  0.14489300  0.12832600  1
  H  1170  1  0.06578000  0.14835000  0.13125100  1
  H  1171  1  0.06449100  0.17041900  0.14205200  1
  H  1172  1  0.08884300  0.15126100  0.15420900  1
  H  1174  1  0.20591100  0.17959300  0.13943600  1
  H  1175  1  0.17495800  0.17034100  0.15923000  1
  H  1176  1  0.14773200  0.18899100  0.14710100  1
  H  1178  1  0.13277200  0.18161900  0.06185700  1
  H  1189  1  0.62067800  0.87531000  0.13584200  1
  H  1190  1  0.59983100  0.89796700  0.13026500  1
  H  1191  1  0.56281600  0.87853600  0.12383300  1
  H  1193  1  0.70635400  0.88065600  0.11852400  1
  H  1194  1  0.70590400  0.89165600  0.09654000  1
  H  1195  1  0.68381500  0.90373800  0.11610700  1
  H  1197  1  0.56360000  0.88968800  0.08918400  1
  H  1198  1  0.59645800  0.90929000  0.09794900  1
  H  1199  1  0.62116700  0.89691800  0.07897300  1
  H  1201  1  0.63275700  0.81178000  0.08583900  1
  H  1212  1  0.12058600  0.64245700  0.88192800  1
  H  1213  1  0.09975800  0.61979800  0.88750100  1
  H  1214  1  0.06273500  0.63922400  0.89394200  1
  H  1216  1  0.20628200  0.63711400  0.89923500  1
  H  1217  1  0.20585500  0.62610700  0.92121600  1
  H  1218  1  0.18375800  0.61403000  0.90164700  1
  H  1220  1  0.06355300  0.62806200  0.92858700  1
  H  1221  1  0.09641400  0.60846600  0.91981300  1
  H  1222  1  0.12113300  0.62083300  0.93879000  1
  H  1224  1  0.13271000  0.70597500  0.93194100  1
  H  1235  1  0.36446900  0.63208300  0.12548300  1
  H  1236  1  0.34320000  0.63813600  0.14795900  1
  H  1237  1  0.30765500  0.64485900  0.12825300  1
  H  1239  1  0.45137800  0.64827800  0.13116500  1
  H  1240  1  0.45272200  0.67041500  0.14182700  1
  H  1241  1  0.42830100  0.65134400  0.15410000  1
  H  1243  1  0.31132900  0.67962900  0.13911800  1
  H  1244  1  0.34225100  0.67051000  0.15898200  1
  H  1245  1  0.36953100  0.68906200  0.14671600  1
  H  1247  1  0.38458800  0.68109200  0.06155100  1
  H  1258  1  0.86459900  0.88571900  0.89233300  1
  H  1259  1  0.84338400  0.87968500  0.86984400  1
  H  1260  1  0.80778200  0.87295200  0.88953300  1
  H  1262  1  0.95150500  0.86952500  0.88666900  1
  H  1263  1  0.95287200  0.84739000  0.87600200  1
  H  1264  1  0.92849600  0.86646700  0.86372300  1
  H  1266  1  0.81146600  0.83818500  0.87864800  1
  H  1267  1  0.84242600  0.84732100  0.85880000  1
  H  1268  1  0.86968000  0.82875800  0.87105300  1
  H  1270  1  0.88437100  0.83663900  0.95623600  1
  H  1281  1  0.90334000  0.64226500  0.38207500  1
  H  1282  1  0.92462300  0.61979300  0.38813700  1
  H  1283  1  0.96012700  0.63950600  0.39486900  1
  H  1285  1  0.81640300  0.63656800  0.39823700  1
  H  1286  1  0.81501300  0.62591700  0.42037800  1
  H  1287  1  0.83949500  0.61363700  0.40132100  1
  H  1289  1  0.95638200  0.62864400  0.42964100  1
  H  1290  1  0.92551200  0.60877400  0.42051100  1
  H  1291  1  0.89816400  0.62103400  0.43905300  1
  H  1293  1  0.88304500  0.70620200  0.43107000  1
  H  1304  1  0.40316000  0.87544000  0.63577800  1
  H  1305  1  0.42435200  0.89793200  0.62975300  1
  H  1306  1  0.45996600  0.87825200  0.62300800  1
  H  1308  1  0.31624500  0.88110500  0.61959700  1
  H  1309  1  0.31485100  0.89177100  0.59746400  1
  H  1310  1  0.33923200  0.90405400  0.61653700  1
  H  1312  1  0.45625500  0.88915000  0.58824300  1
  H  1313  1  0.42529800  0.90899000  0.59739700  1
  H  1314  1  0.39803000  0.89674700  0.57883000  1
  H  1316  1  0.38343000  0.81156000  0.58667000  1
  H  1327  1  0.14706900  0.88589800  0.39245800  1
  H  1328  1  0.16790300  0.88033300  0.36979700  1
  H  1329  1  0.20492600  0.87388800  0.38922200  1
  H  1331  1  0.06138300  0.86858700  0.38710800  1
  H  1332  1  0.06182200  0.84661000  0.37609400  1
  H  1333  1  0.08391400  0.86618300  0.36402300  1
  H  1335  1  0.20412700  0.83924400  0.37805200  1
  H  1336  1  0.17127300  0.84802500  0.35845700  1
  H  1337  1  0.14655400  0.82904200  0.37081500  1
  H  1339  1  0.13505200  0.83586300  0.45596300  1
  H  1350  1  0.64705000  0.63193000  0.62534600  1
  H  1351  1  0.66790500  0.63750700  0.64800100  1
  H  1352  1  0.70490400  0.64394300  0.62856900  1
  H  1354  1  0.56136600  0.64923800  0.63069800  1
  H  1355  1  0.56180200  0.67122200  0.64169900  1
  H  1356  1  0.58391400  0.65165600  0.65377900  1
  H  1358  1  0.70410500  0.67859200  0.63972300  1
  H  1359  1  0.67126700  0.66982200  0.65932500  1
  H  1360  1  0.64653500  0.68879700  0.64695800  1
  H  1362  1  0.63490300  0.68191800  0.56181300  1
  H  1373  1  0.12009800  0.37539900  0.63583400  1
  H  1374  1  0.09927300  0.39804300  0.63019600  1
  H  1375  1  0.06231600  0.37859700  0.62376500  1
  H  1377  1  0.20588800  0.38072700  0.61859000  1
  H  1378  1  0.20559200  0.39167900  0.59658100  1
  H  1379  1  0.18334700  0.40380000  0.61610100  1
  H  1381  1  0.06332800  0.38967500  0.58909400  1
  H  1382  1  0.09608800  0.40930100  0.59785300  1
  H  1383  1  0.12095500  0.39689800  0.57892500  1
  H  1385  1  0.13263200  0.31178100  0.58598100  1
  H  1396  1  0.62008400  0.14239700  0.38189700  1
  H  1397  1  0.59930100  0.11974400  0.38752100  1
  H  1398  1  0.56230500  0.13917800  0.39396300  1
  H  1400  1  0.70588100  0.13708000  0.39913900  1
  H  1401  1  0.70560500  0.12611600  0.42114200  1
  H  1402  1  0.68338300  0.11399900  0.40161500  1
  H  1404  1  0.56333900  0.12808100  0.42863000  1
  H  1405  1  0.59612400  0.10846800  0.41985700  1
  H  1406  1  0.62097700  0.12086200  0.43879200  1
  H  1408  1  0.63249500  0.20598500  0.43179200  1
  H  1419  1  0.86995600  0.13184500  0.62535400  1
  H  1420  1  0.84912800  0.13758900  0.64797200  1
  H  1421  1  0.81216200  0.14392100  0.62849600  1
  H  1423  1  0.95573400  0.14913000  0.63059500  1
  H  1424  1  0.95540900  0.17118700  0.64145000  1
  H  1425  1  0.93318700  0.15171700  0.65365700  1
  H  1427  1  0.81313500  0.17864300  0.63941000  1
  H  1428  1  0.84592500  0.16998700  0.65907400  1
  H  1429  1  0.87075500  0.18885800  0.64657600  1
  H  1431  1  0.88248500  0.18139000  0.56149800  1
  H  1442  1  0.37010800  0.38595400  0.39244900  1
  H  1443  1  0.34932400  0.38022500  0.36982300  1
  H  1444  1  0.31230800  0.37388900  0.38928500  1
  H  1446  1  0.45587600  0.36866300  0.38722200  1
  H  1447  1  0.45555500  0.34660600  0.37636400  1
  H  1448  1  0.43338200  0.36608200  0.36415100  1
  H  1450  1  0.31327200  0.33917000  0.37835700  1
  H  1451  1  0.34609600  0.34783400  0.35870400  1
  H  1452  1  0.37089400  0.32895300  0.37119500  1
  H  1454  1  0.38227900  0.33634900  0.45628000  1
  C  1  1  0.30327500  0.08239100  0.01429000  1
  C  2  1  0.31534700  0.08614100  0.03290600  1
  C  3  1  0.28369400  0.09996100  0.03971100  1
  C  4  1  0.24956900  0.10545100  0.02584000  1
  C  5  1  0.21499000  0.12013100  0.02996000  1
  C  6  1  0.21501000  0.12922500  0.04772800  1
  C  7  1  0.25101600  0.12304900  0.06108800  1
  C  8  1  0.28486300  0.10850300  0.05729300  1
  C  9  1  0.35513000  0.07702700  0.04216300  1
  C  10  1  0.38423600  0.06391800  0.03243100  1
  C  11  1  0.37435300  0.05962700  0.01348400  1
  C  12  1  0.33333333  0.06910300  0.00452200  1
  C  13  1  0.21343600  0.08244000  0.00293700  1
  C  14  1  0.19949600  0.08671900  0.98462700  1
  C  15  1  0.23048700  0.10072200  0.97782300  1
  C  16  1  0.26665800  0.10559200  0.99123400  1
  C  17  1  0.22654600  0.11006300  0.96071400  1
  C  18  1  0.26026500  0.12459300  0.95679000  1
  C  19  1  0.29939900  0.12969900  0.96935100  1
  C  20  1  0.30152100  0.12011000  0.98683900  1
  C  21  1  0.18417900  0.06896000  0.01276700  1
  C  22  1  0.14233800  0.05973000  0.00409200  1
  C  23  1  0.13063400  0.06450300  0.98540300  1
  C  24  1  0.15880700  0.07786700  0.97565300  1
  C  37  1  0.25847800  0.09405400  0.00852200  1
  C  38  1  0.33234100  0.14430500  0.96436300  1
  C  39  1  0.10990100  0.04745500  0.01351100  1
  C  40  1  0.40757500  0.04751300  0.00418500  1
  C  41  1  0.18305600  0.14434800  0.05219300  1
  C  46  1  0.80330200  0.43537400  0.00348800  1
  C  47  1  0.81538100  0.43162600  0.98487400  1
  C  48  1  0.78382600  0.41776500  0.97808500  1
  C  49  1  0.74965800  0.41229000  0.99194700  1
  C  50  1  0.71510100  0.39760300  0.98782700  1
  C  51  1  0.71517300  0.38848500  0.97006900  1
  C  52  1  0.75121800  0.39465600  0.95671600  1
  C  53  1  0.78502600  0.40921400  0.96050800  1
  C  54  1  0.85518200  0.44073400  0.97562100  1
  C  55  1  0.88424900  0.45385900  0.98534700  1
  C  56  1  0.87434400  0.45815600  0.00429200  1
  C  57  1  0.83334700  0.44867100  0.01325500  1
  C  58  1  0.71347300  0.43530700  0.01483900  1
  C  59  1  0.69952800  0.43102700  0.03314700  1
  C  60  1  0.73054900  0.41704100  0.03996300  1
  C  61  1  0.76673400  0.41217000  0.02655900  1
  C  62  1  0.72663400  0.40771600  0.05708200  1
  C  63  1  0.76034700  0.39318500  0.06101400  1
  C  64  1  0.79950100  0.38807700  0.04846200  1
  C  65  1  0.80161400  0.39765700  0.03096700  1
  C  66  1  0.68421200  0.44878600  0.00500700  1
  C  67  1  0.64238900  0.45802700  0.01368600  1
  C  68  1  0.63072000  0.45326600  0.03238000  1
  C  69  1  0.65887400  0.43989600  0.04212800  1
  C  82  1  0.75853300  0.42369800  0.00926000  1
  C  83  1  0.83240400  0.37346000  0.05345900  1
  C  84  1  0.60989100  0.47028300  0.00427100  1
  C  85  1  0.90756900  0.47027000  0.01359000  1
  C  86  1  0.68331100  0.37331800  0.96565200  1
  C  91  1  0.55328200  0.25350700  0.83185000  1
  C  92  1  0.56525100  0.23487800  0.83558100  1
  C  93  1  0.53359800  0.22809100  0.84941100  1
  C  94  1  0.49955500  0.24198500  0.85491100  1
  C  95  1  0.46498600  0.23789400  0.86960100  1
  C  96  1  0.46493700  0.22012300  0.87868200  1
  C  97  1  0.50072900  0.20671100  0.87245900  1
  C  98  1  0.53463900  0.21049700  0.85793100  1
  C  99  1  0.60504900  0.22561100  0.82648500  1
  C  100  1  0.63419200  0.23533100  0.81337600  1
  C  101  1  0.62437800  0.25428400  0.80909100  1
  C  102  1  0.58339500  0.26326400  0.81856900  1
  C  103  1  0.46346400  0.26489200  0.83190100  1
  C  104  1  0.44960300  0.28321200  0.83617100  1
  C  105  1  0.48059000  0.29000100  0.85018500  1
  C  106  1  0.51668800  0.27657000  0.85507000  1
  C  107  1  0.47665900  0.30709800  0.85954800  1
  C  108  1  0.51032700  0.31099600  0.87410300  1
  C  109  1  0.54942000  0.29841900  0.87921600  1
  C  110  1  0.55153700  0.28094400  0.86960200  1
  C  111  1  0.43416200  0.25507100  0.81842400  1
  C  112  1  0.39233500  0.26376100  0.80919500  1
  C  113  1  0.38074100  0.28246200  0.81395000  1
  C  114  1  0.40894200  0.29220100  0.82731700  1
  C  127  1  0.50850600  0.25929400  0.84351500  1
  C  128  1  0.58227800  0.30336700  0.89386500  1
  C  129  1  0.35978800  0.25435500  0.79694700  1
  C  130  1  0.65764800  0.26356900  0.79698200  1
  C  131  1  0.43280300  0.21565200  0.89373300  1
  C  136  1  0.05323800  0.26430000  0.18593500  1
  C  137  1  0.06528200  0.28291600  0.18217400  1
  C  138  1  0.03368900  0.28969400  0.16831900  1
  C  139  1  0.99954200  0.27582100  0.16285600  1
  C  140  1  0.96504500  0.27990600  0.14814000  1
  C  141  1  0.96512800  0.29764600  0.13898800  1
  C  142  1  0.00112100  0.31101700  0.14515800  1
  C  143  1  0.03486600  0.30726300  0.15974800  1
  C  144  1  0.10506300  0.29218300  0.19128100  1
  C  145  1  0.13417900  0.28246600  0.20440000  1
  C  146  1  0.12433300  0.26351900  0.20869700  1
  C  147  1  0.08331300  0.25454700  0.19923300  1
  C  148  1  0.96342100  0.25291900  0.18588200  1
  C  149  1  0.94953300  0.23460400  0.18160300  1
  C  150  1  0.98059100  0.22779500  0.16762100  1
  C  151  1  0.01668100  0.24122800  0.16273200  1
  C  152  1  0.97658200  0.21071400  0.15823000  1
  C  153  1  0.01022800  0.20682300  0.14366700  1
  C  154  1  0.04932400  0.21939600  0.13855600  1
  C  155  1  0.05147300  0.23686700  0.14817900  1
  C  156  1  0.93410300  0.26274200  0.19935200  1
  C  157  1  0.89230300  0.25404700  0.20859200  1
  C  158  1  0.88070900  0.23534500  0.20384200  1
  C  159  1  0.90890600  0.22560700  0.19047300  1
  C  172  1  0.00845800  0.25851700  0.17426900  1
  C  173  1  0.08218000  0.21444900  0.12390800  1
  C  174  1  0.85979400  0.26345500  0.22085500  1
  C  175  1  0.15754700  0.25423400  0.22082900  1
  C  176  1  0.93339200  0.30201000  0.12377000  1
  C  181  1  0.71371100  0.93566400  0.00362800  1
  C  182  1  0.69845600  0.93060800  0.98564400  1
  C  183  1  0.72985600  0.91672500  0.97881300  1
  C  184  1  0.76693500  0.91243900  0.99205000  1
  C  185  1  0.80247700  0.89811600  0.98777500  1
  C  186  1  0.80094700  0.88836900  0.97037200  1
  C  187  1  0.76213000  0.89338200  0.95760900  1
  C  188  1  0.72705400  0.90747800  0.96161100  1
  C  189  1  0.65767000  0.93928000  0.97659400  1
  C  190  1  0.63170400  0.95365500  0.98570100  1
  C  191  1  0.64548600  0.95968300  0.00386000  1
  C  192  1  0.68709400  0.95038200  0.01268700  1
  C  193  1  0.80439700  0.93560200  0.01468400  1
  C  194  1  0.82117700  0.93006200  0.03232600  1
  C  195  1  0.79025100  0.91604100  0.03913400  1
  C  196  1  0.75157800  0.91229000  0.02634400  1
  C  197  1  0.79521100  0.90611700  0.05588100  1
  C  198  1  0.76016100  0.89206900  0.06002300  1
  C  199  1  0.71895100  0.88796700  0.04800100  1
  C  200  1  0.71579000  0.89812000  0.03086500  1
  C  201  1  0.83042400  0.95047500  0.00565900  1
  C  202  1  0.87273100  0.95955000  0.01425300  1
  C  203  1  0.88796700  0.95308400  0.03210400  1
  C  204  1  0.86274700  0.93848100  0.04112800  1
  C  217  1  0.75895000  0.92413900  0.00922300  1
  C  218  1  0.68492800  0.87374300  0.05309200  1
  C  219  1  0.89803500  0.97490300  0.00627800  1
  C  220  1  0.61962200  0.97490200  0.01187500  1
  C  221  1  0.83413400  0.87366500  0.96575200  1
  C  226  1  0.21378400  0.58209600  0.01415900  1
  C  227  1  0.19852900  0.58715000  0.03214300  1
  C  228  1  0.22992100  0.60103400  0.03897700  1
  C  229  1  0.26693400  0.60534900  0.02572600  1
  C  230  1  0.30253800  0.61964700  0.03001600  1
  C  231  1  0.30100800  0.62939000  0.04742100  1
  C  232  1  0.26219500  0.62437500  0.06018400  1
  C  233  1  0.22712700  0.61027400  0.05618300  1
  C  234  1  0.15769100  0.57849600  0.04118000  1
  C  235  1  0.13173800  0.56411800  0.03207300  1
  C  236  1  0.14549100  0.55810200  0.01390600  1
  C  237  1  0.18709600  0.56740800  0.00508100  1
  C  238  1  0.30445400  0.58218500  0.00309800  1
  C  239  1  0.32122700  0.58772600  0.98545500  1
  C  240  1  0.29026200  0.60173200  0.97864100  1
  C  241  1  0.25163400  0.60549800  0.99144400  1
  C  242  1  0.29518500  0.61164600  0.96188600  1
  C  243  1  0.26012200  0.62568800  0.95774400  1
  C  244  1  0.21891500  0.62978900  0.96976800  1
  C  245  1  0.21576200  0.61963500  0.98690500  1
  C  246  1  0.33049100  0.56731500  0.01212200  1
  C  247  1  0.37277200  0.55823000  0.00351900  1
  C  248  1  0.38798100  0.56469200  0.98566400  1
  C  249  1  0.36276400  0.57929500  0.97664300  1
  C  262  1  0.25898700  0.59363800  0.00855700  1
  C  263  1  0.18484300  0.64399600  0.96467300  1
  C  264  1  0.39808300  0.54288100  0.01149600  1
  C  265  1  0.11960300  0.54289200  0.00588400  1
  C  266  1  0.33420800  0.64409000  0.05204500  1
  C  271  1  0.46443700  0.76430500  0.18528600  1
  C  272  1  0.45235900  0.78292100  0.18154000  1
  C  273  1  0.48389500  0.78971300  0.16767500  1
  C  274  1  0.51805900  0.77585200  0.16219400  1
  C  275  1  0.55257100  0.77997200  0.14749100  1
  C  276  1  0.55246100  0.79772900  0.13837300  1
  C  277  1  0.51642700  0.81108000  0.14454800  1
  C  278  1  0.48265700  0.80728800  0.15911900  1
  C  279  1  0.41255400  0.79217100  0.19064700  1
  C  280  1  0.38350500  0.78244900  0.20378000  1
  C  281  1  0.39338000  0.76349800  0.20806200  1
  C  282  1  0.43440100  0.75453900  0.19858500  1
  C  283  1  0.55428600  0.75296500  0.18521300  1
  C  284  1  0.56824600  0.73465800  0.18093400  1
  C  285  1  0.53722100  0.72783600  0.16695100  1
  C  286  1  0.50102000  0.74123600  0.16208000  1
  C  287  1  0.54112500  0.71071200  0.15763400  1
  C  288  1  0.50736200  0.70676000  0.14312500  1
  C  289  1  0.46823900  0.71931700  0.13800200  1
  C  290  1  0.46613000  0.73681700  0.14757400  1
  C  291  1  0.58355000  0.76280100  0.19869100  1
  C  292  1  0.62540400  0.75413100  0.20792000  1
  C  293  1  0.63708100  0.73543700  0.20316600  1
  C  294  1  0.60890300  0.72568100  0.18980700  1
  C  307  1  0.50921000  0.75853800  0.17360500  1
  C  308  1  0.43526800  0.71430400  0.12340800  1
  C  309  1  0.65783700  0.76355300  0.22020000  1
  C  310  1  0.36019000  0.75420600  0.22019600  1
  C  311  1  0.58421600  0.80215100  0.12318100  1
  C  316  1  0.96440100  0.75347200  0.83250000  1
  C  317  1  0.95233400  0.73485300  0.83623500  1
  C  318  1  0.98391600  0.72804900  0.85008100  1
  C  319  1  0.01806200  0.74191100  0.85557300  1
  C  320  1  0.05253200  0.73779400  0.87028900  1
  C  321  1  0.05239600  0.72003900  0.87941200  1
  C  322  1  0.01634300  0.70669500  0.87324000  1
  C  323  1  0.98260600  0.71048500  0.85865800  1
  C  324  1  0.91252500  0.72560600  0.82712700  1
  C  325  1  0.88344300  0.73534000  0.81401200  1
  C  326  1  0.89334400  0.75428400  0.80971700  1
  C  327  1  0.93435300  0.76324300  0.81920600  1
  C  328  1  0.05425500  0.76481000  0.83256600  1
  C  329  1  0.06820400  0.78311900  0.83684500  1
  C  330  1  0.03718500  0.78993700  0.85083300  1
  C  331  1  0.00102200  0.77652700  0.85571800  1
  C  332  1  0.04110000  0.80705800  0.86015300  1
  C  333  1  0.00734500  0.81100700  0.87466500  1
  C  334  1  0.96819500  0.79845600  0.87978000  1
  C  335  1  0.96609800  0.78095400  0.87021100  1
  C  336  1  0.08352700  0.75497700  0.81909200  1
  C  337  1  0.12536700  0.76365200  0.80985700  1
  C  338  1  0.13702000  0.78235000  0.81460600  1
  C  339  1  0.10886000  0.79209900  0.82797700  1
  C  352  1  0.00918500  0.75923300  0.84417800  1
  C  353  1  0.93524700  0.80346900  0.89438200  1
  C  354  1  0.15783500  0.75423600  0.79758700  1
  C  355  1  0.86012700  0.76357900  0.79759400  1
  C  356  1  0.08413000  0.71561500  0.89461000  1
  C  361  1  0.80331400  0.58244200  0.51428000  1
  C  362  1  0.81538400  0.58618300  0.53289800  1
  C  363  1  0.78375800  0.60001000  0.53970600  1
  C  364  1  0.74964700  0.60551600  0.52583700  1
  C  365  1  0.71511600  0.62021100  0.52996700  1
  C  366  1  0.71516100  0.62929700  0.54774000  1
  C  367  1  0.75115400  0.62310400  0.56109500  1
  C  368  1  0.78495400  0.60854600  0.55729300  1
  C  369  1  0.85514400  0.57705500  0.54215500  1
  C  370  1  0.88423000  0.56393800  0.53242400  1
  C  371  1  0.87435600  0.55965100  0.51347500  1
  C  372  1  0.83335800  0.56914400  0.50451500  1
  C  373  1  0.71346900  0.58249600  0.50293800  1
  C  374  1  0.69955800  0.58675400  0.48462100  1
  C  375  1  0.73055600  0.60075300  0.47780600  1
  C  376  1  0.76670400  0.60564400  0.49121500  1
  C  377  1  0.72664900  0.61006400  0.46067800  1
  C  378  1  0.76037000  0.62458900  0.45673400  1
  C  379  1  0.79946700  0.62972800  0.46929700  1
  C  380  1  0.80156100  0.62016400  0.48680100  1
  C  381  1  0.68419300  0.56902200  0.51277300  1
  C  382  1  0.64237800  0.55977100  0.50409800  1
  C  383  1  0.63071600  0.56452300  0.48540300  1
  C  384  1  0.65889300  0.57788400  0.47564700  1
  C  397  1  0.75852200  0.59411500  0.50851600  1
  C  398  1  0.83239200  0.64433800  0.46428700  1
  C  399  1  0.60991400  0.54750400  0.51352500  1
  C  400  1  0.90755800  0.54752400  0.50417900  1
  C  401  1  0.68331100  0.64444500  0.55222400  1
  C  406  1  0.30332000  0.93532700  0.50348700  1
  C  407  1  0.31537500  0.93159400  0.48486700  1
  C  408  1  0.28384400  0.91772800  0.47807500  1
  C  409  1  0.24970700  0.91223000  0.49193800  1
  C  410  1  0.21520400  0.89752500  0.48781000  1
  C  411  1  0.21529200  0.88842100  0.47004300  1
  C  412  1  0.25130400  0.89461300  0.45669400  1
  C  413  1  0.28506300  0.90918700  0.46049100  1
  C  414  1  0.35514100  0.94072200  0.47561100  1
  C  415  1  0.38420200  0.95385000  0.48533900  1
  C  416  1  0.37432700  0.95813300  0.50428800  1
  C  417  1  0.33333333  0.94862800  0.51325200  1
  C  418  1  0.21349100  0.93525200  0.51483200  1
  C  419  1  0.19957900  0.93099100  0.53314700  1
  C  420  1  0.23061400  0.91700800  0.53997200  1
  C  421  1  0.26677600  0.91211700  0.52656400  1
  C  422  1  0.22674200  0.90771200  0.55710900  1
  C  423  1  0.26046500  0.89318800  0.56105800  1
  C  424  1  0.29958100  0.88805000  0.54850200  1
  C  425  1  0.30165500  0.89760800  0.53099100  1
  C  426  1  0.18421200  0.94872800  0.50499800  1
  C  427  1  0.14241800  0.95799000  0.51367900  1
  C  428  1  0.13079600  0.95324700  0.53238100  1
  C  429  1  0.15895400  0.93987600  0.54213100  1
  C  442  1  0.25856400  0.92363800  0.50925800  1
  C  443  1  0.33248300  0.87343100  0.55351800  1
  C  444  1  0.10990500  0.97024700  0.50426100  1
  C  445  1  0.40756300  0.97024700  0.51358700  1
  C  446  1  0.18353900  0.87322900  0.46561000  1
  C  451  1  0.05400200  0.75365300  0.33204700  1
  C  452  1  0.06922500  0.73566300  0.33709200  1
  C  453  1  0.03780100  0.72882600  0.35096300  1
  C  454  1  0.00080300  0.74208100  0.35528300  1
  C  455  1  0.96517000  0.73778300  0.36957000  1
  C  456  1  0.96660900  0.72035200  0.37926600  1
  C  457  1  0.00531600  0.70756200  0.37421500  1
  C  458  1  0.04048100  0.71159100  0.36015500  1
  C  459  1  0.11004700  0.72662000  0.32843200  1
  C  460  1  0.13603600  0.73573100  0.31406600  1
  C  461  1  0.12230500  0.75390100  0.30805400  1
  C  462  1  0.08070900  0.76273100  0.31736300  1
  C  463  1  0.96335200  0.76472100  0.33211300  1
  C  464  1  0.94654900  0.78235700  0.33766100  1
  C  465  1  0.97749800  0.78917100  0.35167500  1
  C  466  1  0.01612600  0.77636900  0.35544900  1
  C  467  1  0.97257200  0.80592900  0.36158600  1
  C  468  1  0.00761800  0.81007300  0.37563300  1
  C  469  1  0.04883100  0.79805300  0.37974100  1
  C  470  1  0.05198000  0.78091100  0.36959200  1
  C  471  1  0.93728800  0.75568800  0.31725100  1
  C  472  1  0.89499900  0.76428700  0.30816500  1
  C  473  1  0.87978500  0.78214100  0.31462700  1
  C  474  1  0.90501000  0.79116500  0.32922900  1
  C  487  1  0.00878800  0.75925600  0.34358200  1
  C  488  1  0.08285200  0.80314800  0.39396600  1
  C  489  1  0.86968000  0.75630800  0.29281400  1
  C  490  1  0.14821500  0.76192600  0.29284900  1
  C  491  1  0.93322500  0.71567300  0.39387000  1
  C  496  1  0.55393000  0.76417700  0.68572300  1
  C  497  1  0.56921500  0.78215200  0.68065200  1
  C  498  1  0.53784600  0.78897700  0.66675300  1
  C  499  1  0.50078900  0.77573600  0.66245600  1
  C  500  1  0.46524000  0.78002100  0.64813700  1
  C  501  1  0.46679600  0.79741500  0.63837000  1
  C  502  1  0.50568900  0.81015800  0.64336300  1
  C  503  1  0.54069300  0.80617000  0.65748900  1
  C  504  1  0.61005400  0.79118900  0.68930700  1
  C  505  1  0.63599400  0.78208900  0.70369400  1
  C  506  1  0.62221200  0.76393200  0.70972600  1
  C  507  1  0.58060800  0.75510500  0.70041800  1
  C  508  1  0.46326400  0.75311400  0.68563400  1
  C  509  1  0.44653200  0.73546100  0.68011400  1
  C  510  1  0.47750400  0.72863800  0.66611400  1
  C  511  1  0.51613900  0.74143900  0.66234400  1
  C  512  1  0.47254700  0.71188700  0.65619400  1
  C  513  1  0.50757100  0.70774800  0.64213800  1
  C  514  1  0.54876500  0.71977100  0.63802200  1
  C  515  1  0.55192300  0.73691200  0.64817100  1
  C  516  1  0.43722500  0.76213700  0.70050700  1
  C  517  1  0.39493600  0.75353900  0.70959200  1
  C  518  1  0.37973800  0.73568100  0.70313600  1
  C  519  1  0.40496600  0.72665600  0.68853600  1
  C  532  1  0.50873300  0.75857000  0.67417900  1
  C  533  1  0.58277800  0.71467500  0.62379400  1
  C  534  1  0.36964400  0.76150700  0.72495400  1
  C  535  1  0.64812500  0.75590400  0.72493000  1
  C  536  1  0.43373400  0.80198000  0.62360600  1
  C  541  1  0.21369300  0.43562600  0.50363200  1
  C  542  1  0.19846200  0.43059000  0.48564000  1
  C  543  1  0.22984000  0.41670200  0.47880300  1
  C  544  1  0.26688200  0.41239000  0.49204600  1
  C  545  1  0.30237100  0.39804700  0.48776400  1
  C  546  1  0.30083100  0.38831700  0.47035100  1
  C  547  1  0.26206300  0.39335900  0.45758300  1
  C  548  1  0.22703100  0.40747000  0.46159100  1
  C  549  1  0.15769900  0.43927800  0.47659000  1
  C  550  1  0.13172900  0.45364900  0.48570400  1
  C  551  1  0.14547900  0.45965800  0.50387300  1
  C  552  1  0.18706900  0.45033900  0.51269800  1
  C  553  1  0.30438300  0.43555100  0.51468100  1
  C  554  1  0.32114800  0.43001900  0.53232800  1
  C  555  1  0.29020400  0.41600300  0.53914200  1
  C  556  1  0.25154100  0.41224100  0.52635000  1
  C  557  1  0.29512400  0.40610100  0.55590600  1
  C  558  1  0.26005700  0.39206500  0.56006300  1
  C  559  1  0.21887500  0.38793900  0.54803700  1
  C  560  1  0.21574400  0.39807500  0.53088500  1
  C  561  1  0.33042200  0.45042600  0.50566000  1
  C  562  1  0.37273400  0.45950500  0.51425100  1
  C  563  1  0.38794700  0.45303900  0.53210400  1
  C  564  1  0.36271600  0.43844000  0.54113000  1
  C  577  1  0.25891900  0.42408900  0.50922400  1
  C  578  1  0.18484900  0.37371600  0.55314300  1
  C  579  1  0.39803000  0.47487100  0.50628800  1
  C  580  1  0.11958100  0.47486600  0.51190000  1
  C  581  1  0.33390800  0.37358400  0.46571800  1
  C  586  1  0.71375300  0.08214700  0.51414100  1
  C  587  1  0.69850500  0.08718900  0.53213000  1
  C  588  1  0.72987500  0.10107800  0.53896800  1
  C  589  1  0.76686700  0.10541300  0.52571600  1
  C  590  1  0.80242400  0.11972600  0.53001400  1
  C  591  1  0.80087900  0.12945800  0.54742800  1
  C  592  1  0.76209600  0.12441800  0.56019100  1
  C  593  1  0.72706900  0.11030600  0.55618300  1
  C  594  1  0.65768900  0.07852000  0.54116900  1
  C  595  1  0.63173100  0.06414800  0.53205500  1
  C  596  1  0.64547500  0.05813900  0.51388600  1
  C  597  1  0.68707100  0.06745600  0.50506200  1
  C  598  1  0.80443100  0.08224700  0.50309000  1
  C  599  1  0.82119600  0.08778200  0.48544500  1
  C  600  1  0.79021300  0.10178100  0.47861900  1
  C  601  1  0.75158500  0.10555800  0.49142100  1
  C  602  1  0.79510100  0.11167100  0.46184800  1
  C  603  1  0.76002100  0.12570300  0.45768700  1
  C  604  1  0.71883400  0.12982600  0.46971200  1
  C  605  1  0.71570700  0.11969000  0.48686400  1
  C  606  1  0.83047300  0.06737300  0.51211300  1
  C  607  1  0.87275800  0.05828300  0.50351300  1
  C  608  1  0.88796700  0.06474700  0.48565900  1
  C  609  1  0.86273900  0.07934900  0.47663600  1
  C  622  1  0.75894600  0.09370100  0.50854300  1
  C  623  1  0.68475700  0.14403100  0.46459400  1
  C  624  1  0.89805800  0.04291900  0.51148100  1
  C  625  1  0.61958800  0.04292500  0.50586300  1
  C  626  1  0.83397900  0.14418100  0.55206500  1
  C  631  1  0.96368600  0.26415100  0.68508100  1
  C  632  1  0.94835100  0.28212400  0.68001900  1
  C  633  1  0.97971300  0.28897000  0.66613400  1
  C  634  1  0.01677700  0.27573900  0.66181600  1
  C  635  1  0.05238600  0.28006500  0.64752900  1
  C  636  1  0.05086200  0.29749400  0.63782400  1
  C  637  1  0.01200400  0.31023400  0.64284400  1
  C  638  1  0.97690000  0.30619300  0.65692100  1
  C  639  1  0.90754300  0.29115500  0.68869600  1
  C  640  1  0.88162200  0.28204000  0.70307600  1
  C  641  1  0.89545700  0.26388500  0.70910200  1
  C  642  1  0.93704900  0.25506800  0.69978000  1
  C  643  1  0.05438200  0.25312900  0.68498500  1
  C  644  1  0.07117400  0.23548300  0.67946400  1
  C  645  1  0.04021100  0.22864400  0.66546900  1
  C  646  1  0.00151400  0.24142200  0.66170400  1
  C  647  1  0.04511700  0.21185900  0.65560200  1
  C  648  1  0.01000600  0.20766800  0.64159200  1
  C  649  1  0.96879000  0.21967600  0.63746500  1
  C  650  1  0.96566200  0.23684600  0.64756900  1
  C  651  1  0.08042100  0.26217200  0.69984600  1
  C  652  1  0.12272300  0.25358800  0.70893600  1
  C  653  1  0.13797000  0.23573300  0.70248400  1
  C  654  1  0.11277700  0.22669900  0.68788100  1
  C  667  1  0.00888600  0.25856300  0.67353000  1
  C  668  1  0.93467500  0.21451800  0.62329000  1
  C  669  1  0.14802300  0.26157400  0.72428700  1
  C  670  1  0.86959600  0.25585500  0.72431500  1
  C  671  1  0.08405500  0.30217900  0.62314500  1
  C  676  1  0.46368400  0.25361800  0.33271700  1
  C  677  1  0.44835300  0.23564400  0.33777100  1
  C  678  1  0.47973000  0.22878700  0.35165000  1
  C  679  1  0.51683900  0.24200700  0.35595300  1
  C  680  1  0.55237400  0.23769000  0.37027000  1
  C  681  1  0.55078400  0.22027600  0.38000400  1
  C  682  1  0.51184200  0.20755900  0.37500800  1
  C  683  1  0.47681500  0.21158800  0.36090000  1
  C  684  1  0.40752900  0.22661800  0.32909500  1
  C  685  1  0.38162400  0.23573500  0.31471200  1
  C  686  1  0.39542100  0.25390000  0.30870300  1
  C  687  1  0.43704000  0.26270700  0.31802100  1
  C  688  1  0.55437700  0.26464000  0.33279500  1
  C  689  1  0.57115800  0.28228800  0.33831300  1
  C  690  1  0.54022000  0.28911900  0.35232000  1
  C  691  1  0.50158100  0.27632500  0.35610900  1
  C  692  1  0.54511500  0.30590700  0.36218000  1
  C  693  1  0.51000900  0.31009700  0.37619400  1
  C  694  1  0.46878400  0.29809200  0.38031700  1
  C  695  1  0.46567900  0.28091500  0.37022300  1
  C  696  1  0.58039600  0.25560600  0.31792300  1
  C  697  1  0.62268900  0.26419300  0.30883100  1
  C  698  1  0.63792500  0.28205000  0.31528200  1
  C  699  1  0.61271200  0.29108600  0.32987800  1
  C  712  1  0.50891100  0.25919500  0.34426100  1
  C  713  1  0.43468800  0.30325300  0.39449800  1
  C  714  1  0.64799300  0.25621000  0.29347700  1
  C  715  1  0.36954900  0.26193800  0.29349500  1
  C  716  1  0.58384900  0.21565200  0.39474500  1
  C  721  1  0.06124900  0.00349800  0.01738400  1
  C  722  1  0.05222200  0.02123100  0.00896100  1
  C  723  1  0.00378600  0.02410400  0.00083900  1
  C  725  1  0.97498000  0.99417600  0.01010700  1
  C  727  1  0.11064600  0.99691500  0.02604800  1
  C  728  1  0.10856300  0.97574600  0.03174800  1
  C  732  1  0.12150900  0.00811400  0.04429100  1
  C  736  1  0.15600200  0.99890000  0.01212300  1
  C  744  1  0.56126800  0.51425900  0.00038800  1
  C  745  1  0.55220300  0.49652500  0.00880400  1
  C  746  1  0.50375400  0.49366400  0.01692100  1
  C  748  1  0.47500900  0.52360200  0.00766300  1
  C  750  1  0.61067900  0.52083800  0.99173100  1
  C  751  1  0.60864600  0.54201600  0.98605900  1
  C  755  1  0.62150000  0.50965900  0.97347300  1
  C  759  1  0.65603500  0.51881800  0.00565000  1
  C  767  1  0.31106900  0.25037800  0.75300700  1
  C  768  1  0.30210000  0.25891800  0.77069100  1
  C  769  1  0.25370200  0.26708700  0.77350900  1
  C  771  1  0.22489000  0.25772900  0.74361100  1
  C  773  1  0.36037200  0.24160400  0.74647200  1
  C  774  1  0.35832400  0.23588100  0.72530800  1
  C  778  1  0.37087500  0.22335200  0.75770300  1
  C  782  1  0.40594300  0.25543200  0.74846900  1
  C  790  1  0.81106400  0.26741200  0.26478500  1
  C  791  1  0.80213600  0.25886900  0.24709900  1
  C  792  1  0.75374700  0.25069600  0.24426800  1
  C  794  1  0.72487300  0.26005600  0.27415900  1
  C  796  1  0.86035800  0.27618700  0.27132600  1
  C  797  1  0.85825300  0.28194300  0.29248000  1
  C  801  1  0.87092200  0.29442200  0.26007300  1
  C  805  1  0.90591800  0.26234900  0.26936600  1
  C  813  1  0.95645800  0.51431700  0.01730700  1
  C  814  1  0.96537100  0.49650300  0.00902800  1
  C  815  1  0.01374400  0.49361100  0.00085500  1
  C  817  1  0.04273200  0.52359000  0.00993600  1
  C  819  1  0.90706900  0.52097700  0.02591600  1
  C  820  1  0.90935200  0.54213400  0.03164600  1
  C  824  1  0.89583500  0.50977700  0.04413000  1
  C  828  1  0.86186100  0.51908200  0.01191400  1
  C  836  1  0.45646000  0.00347000  0.00045900  1
  C  837  1  0.46538000  0.02128300  0.00874000  1
  C  838  1  0.51375400  0.02417300  0.01691300  1
  C  840  1  0.54274900  0.99420200  0.00781100  1
  C  842  1  0.40706000  0.99680800  0.99185800  1
  C  843  1  0.40934300  0.97565100  0.98612900  1
  C  847  1  0.39581100  0.00800700  0.97364400  1
  C  851  1  0.36186800  0.99870400  0.00586600  1
  C  859  1  0.70654800  0.26735100  0.75295400  1
  C  860  1  0.71541500  0.25900600  0.77074100  1
  C  861  1  0.76372400  0.25077000  0.77359800  1
  C  863  1  0.79277300  0.25993200  0.74365200  1
  C  865  1  0.65721600  0.27602700  0.74632300  1
  C  866  1  0.65951400  0.28179600  0.72517600  1
  C  870  1  0.64615600  0.29423200  0.75756000  1
  C  874  1  0.61189400  0.26207300  0.74819900  1
  C  882  1  0.20648700  0.25045200  0.26484800  1
  C  883  1  0.21533300  0.25885300  0.24708800  1
  C  884  1  0.26367200  0.26705100  0.24420600  1
  C  886  1  0.29269600  0.25790300  0.27416500  1
  C  888  1  0.15718500  0.24174700  0.27147100  1
  C  889  1  0.15947700  0.23598800  0.29262100  1
  C  893  1  0.14624200  0.22353000  0.26023900  1
  C  897  1  0.11179500  0.25566900  0.26957900  1
  C  905  1  0.70655500  0.76746500  0.26414800  1
  C  906  1  0.71556700  0.75900500  0.24643200  1
  C  907  1  0.76397000  0.75084500  0.24359100  1
  C  909  1  0.79278000  0.76015100  0.27350900  1
  C  911  1  0.65719700  0.77617500  0.27071200  1
  C  912  1  0.65924500  0.78186900  0.29188200  1
  C  916  1  0.64651200  0.79443000  0.25951000  1
  C  920  1  0.61174300  0.76229600  0.26870500  1
  C  928  1  0.20654200  0.75032700  0.75363000  1
  C  929  1  0.21557000  0.75877900  0.77135000  1
  C  930  1  0.26397800  0.76693700  0.77418900  1
  C  932  1  0.29275600  0.75765100  0.74426100  1
  C  934  1  0.15718100  0.74162000  0.74706800  1
  C  935  1  0.15920800  0.73594400  0.72589200  1
  C  939  1  0.14652500  0.72335400  0.75825500  1
  C  943  1  0.11171900  0.75549200  0.74909300  1
  C  951  1  0.31127600  0.75045100  0.26421800  1
  C  952  1  0.30242100  0.75885900  0.24645900  1
  C  953  1  0.25403300  0.76701000  0.24356600  1
  C  955  1  0.22503600  0.75785900  0.27352300  1
  C  957  1  0.36060300  0.74176900  0.27084800  1
  C  958  1  0.35831900  0.73601900  0.29200100  1
  C  962  1  0.37160900  0.72355300  0.25962400  1
  C  966  1  0.40595400  0.75570900  0.26895400  1
  C  974  1  0.81120400  0.76735500  0.75357000  1
  C  975  1  0.80235200  0.75894100  0.77132500  1
  C  976  1  0.75395900  0.75079000  0.77421400  1
  C  978  1  0.72496000  0.75995800  0.74426000  1
  C  980  1  0.86053600  0.77603900  0.74694400  1
  C  981  1  0.85825300  0.78180000  0.72579400  1
  C  985  1  0.87155000  0.79424900  0.75817600  1
  C  989  1  0.90588000  0.76209600  0.74883000  1
  C  997  1  0.56116900  0.50354200  0.51742100  1
  C  998  1  0.55212800  0.52129500  0.50903500  1
  C  999  1  0.50372000  0.52411700  0.50086400  1
  C  1001  1  0.47493300  0.49418400  0.51013100  1
  C  1003  1  0.61056900  0.49696700  0.52609100  1
  C  1004  1  0.60852400  0.47579600  0.53178500  1
  C  1008  1  0.62139400  0.50816300  0.54433900  1
  C  1012  1  0.65593600  0.49896500  0.51217100  1
  C  1020  1  0.06117300  0.01421800  0.50034200  1
  C  1021  1  0.05210900  0.99646800  0.50873400  1
  C  1022  1  0.00370300  0.99366300  0.51691000  1
  C  1024  1  0.97493500  0.02359200  0.50762100  1
  C  1026  1  0.11057900  0.02078900  0.49167500  1
  C  1027  1  0.10856700  0.04196500  0.48599500  1
  C  1031  1  0.12137200  0.00960300  0.47341700  1
  C  1035  1  0.15595100  0.01877100  0.50558700  1
  C  1043  1  0.45652400  0.01428200  0.51734700  1
  C  1044  1  0.46540700  0.99648400  0.50902600  1
  C  1045  1  0.51373900  0.99362300  0.50080800  1
  C  1047  1  0.54276800  0.02358200  0.50994700  1
  C  1049  1  0.40717300  0.02092400  0.52600000  1
  C  1050  1  0.40945300  0.04207900  0.53174300  1
  C  1054  1  0.39606800  0.00970900  0.54421400  1
  C  1058  1  0.36188600  0.01903100  0.51203200  1
  C  1066  1  0.95649900  0.50349600  0.50041700  1
  C  1067  1  0.96536700  0.52126700  0.50879200  1
  C  1068  1  0.01372400  0.52415500  0.51697400  1
  C  1070  1  0.04272100  0.49418400  0.50785200  1
  C  1072  1  0.90717200  0.49686600  0.49173600  1
  C  1073  1  0.90945100  0.47571200  0.48599200  1
  C  1077  1  0.89616900  0.50808500  0.47351700  1
  C  1081  1  0.86182300  0.49876600  0.50567600  1
  C  1089  1  0.38687100  0.15530600  0.91909900  1
  C  1090  1  0.36522200  0.16087500  0.93646900  1
  C  1091  1  0.36459500  0.18026300  0.94044100  1
  C  1093  1  0.40435300  0.18759600  0.91159600  1
  C  1095  1  0.39077100  0.13544500  0.91184900  1
  C  1096  1  0.42127700  0.13421700  0.89305000  1
  C  1100  1  0.33681400  0.12745800  0.90777200  1
  C  1104  1  0.41921800  0.12271600  0.92614700  1
  C  1112  1  0.88681600  0.36243300  0.09875100  1
  C  1113  1  0.86525000  0.35687500  0.08136100  1
  C  1114  1  0.86477300  0.33749300  0.07736400  1
  C  1116  1  0.90448300  0.33014400  0.10621900  1
  C  1118  1  0.89062500  0.38229000  0.10601900  1
  C  1119  1  0.92108200  0.38351700  0.12482900  1
  C  1123  1  0.83662500  0.39024400  0.11008600  1
  C  1127  1  0.91905700  0.39504900  0.09174400  1
  C  1135  1  0.63671000  0.34858600  0.90511300  1
  C  1136  1  0.61513500  0.33116900  0.91058400  1
  C  1137  1  0.61455600  0.32709800  0.92994900  1
  C  1139  1  0.65432700  0.35590500  0.93744000  1
  C  1141  1  0.64057500  0.35594900  0.88529200  1
  C  1142  1  0.67110000  0.37474800  0.88415900  1
  C  1146  1  0.58660200  0.36008100  0.87734800  1
  C  1150  1  0.66897200  0.34172200  0.87246600  1
  C  1158  1  0.13663000  0.16922800  0.11268300  1
  C  1159  1  0.11504600  0.18664100  0.10720300  1
  C  1160  1  0.11442900  0.19069700  0.08783400  1
  C  1162  1  0.15420800  0.16189100  0.08036000  1
  C  1164  1  0.14051700  0.16187700  0.13250800  1
  C  1165  1  0.17102800  0.14307400  0.13364500  1
  C  1169  1  0.08655100  0.15775500  0.14046500  1
  C  1173  1  0.16894600  0.17610800  0.14531800  1
  C  1181  1  0.63271500  0.86253200  0.09859200  1
  C  1182  1  0.65288100  0.85700100  0.08097400  1
  C  1183  1  0.65212700  0.83766200  0.07679100  1
  C  1185  1  0.61362500  0.83031000  0.10586700  1
  C  1187  1  0.63037900  0.88236100  0.10601900  1
  C  1188  1  0.60164100  0.88362600  0.12518500  1
  C  1192  1  0.68500400  0.89004300  0.10947400  1
  C  1196  1  0.60117900  0.89532500  0.09214500  1
  C  1204  1  0.13264500  0.65522600  0.91917900  1
  C  1205  1  0.15282100  0.66075300  0.93679800  1
  C  1206  1  0.15207600  0.68009200  0.94098400  1
  C  1208  1  0.11352400  0.68744900  0.91191800  1
  C  1210  1  0.13031700  0.63539900  0.91174800  1
  C  1211  1  0.10156400  0.63413700  0.89258300  1
  C  1215  1  0.18494200  0.62772300  0.90828400  1
  C  1219  1  0.10113500  0.62243000  0.92562000  1
  C  1227  1  0.38060500  0.66905200  0.11245100  1
  C  1228  1  0.40229700  0.68641000  0.10686300  1
  C  1229  1  0.40299700  0.69032300  0.08746400  1
  C  1231  1  0.36294200  0.66151100  0.08018200  1
  C  1233  1  0.37667800  0.66183900  0.13232500  1
  C  1234  1  0.34610300  0.64305800  0.13358700  1
  C  1238  1  0.43062600  0.65775000  0.14031600  1
  C  1242  1  0.34828200  0.67617400  0.14502700  1
  C  1250  1  0.88067100  0.84874100  0.90534400  1
  C  1251  1  0.90236700  0.83138500  0.91093500  1
  C  1252  1  0.90289700  0.82743200  0.93032500  1
  C  1254  1  0.86296700  0.85626700  0.93761400  1
  C  1256  1  0.87680600  0.85596700  0.88547400  1
  C  1257  1  0.84624600  0.87475300  0.88421400  1
  C  1261  1  0.93077500  0.86005700  0.87750700  1
  C  1265  1  0.84843100  0.84164500  0.87275000  1
  C  1273  1  0.88710000  0.65529700  0.41903600  1
  C  1274  1  0.86530700  0.66089200  0.43637400  1
  C  1275  1  0.86464400  0.68028700  0.44030200  1
  C  1277  1  0.90469200  0.68757200  0.41148900  1
  C  1279  1  0.89106800  0.63542400  0.41182700  1
  C  1280  1  0.92169200  0.63416500  0.39305500  1
  C  1284  1  0.83714000  0.62742400  0.40772100  1
  C  1288  1  0.91944700  0.62272800  0.42617300  1
  C  1296  1  0.38707200  0.86244300  0.59879700  1
  C  1297  1  0.36537800  0.85686100  0.58143600  1
  C  1298  1  0.36487700  0.83747200  0.57747700  1
  C  1300  1  0.40484100  0.83016800  0.60630900  1
  C  1302  1  0.39093400  0.88230900  0.60603000  1
  C  1303  1  0.42150100  0.88356600  0.62481300  1
  C  1307  1  0.33695900  0.89027000  0.61012700  1
  C  1311  1  0.41929000  0.89504300  0.59171300  1
  C  1319  1  0.13502500  0.84864000  0.40521700  1
  C  1320  1  0.11484600  0.83102200  0.41074500  1
  C  1321  1  0.11565300  0.82682600  0.43008000  1
  C  1323  1  0.15414900  0.85590400  0.43744300  1
  C  1325  1  0.13735300  0.85607800  0.38539200  1
  C  1326  1  0.16609800  0.87524500  0.38413500  1
  C  1330  1  0.08273000  0.85954100  0.37771400  1
  C  1334  1  0.16654700  0.84221200  0.37241800  1
  C  1342  1  0.63497900  0.66918100  0.61257100  1
  C  1343  1  0.61478300  0.68679300  0.60703300  1
  C  1344  1  0.61554800  0.69097500  0.58769400  1
  C  1346  1  0.65406200  0.66189900  0.58034700  1
  C  1348  1  0.63733000  0.66175200  0.63239900  1
  C  1349  1  0.66608400  0.64258800  0.63366100  1
  C  1353  1  0.58271300  0.65829000  0.64008400  1
  C  1357  1  0.66653000  0.67562800  0.64536100  1
  C  1365  1  0.13241800  0.36255500  0.59862000  1
  C  1366  1  0.15275700  0.35699300  0.58103800  1
  C  1367  1  0.15208500  0.33764300  0.57690600  1
  C  1369  1  0.11327000  0.33034900  0.60594800  1
  C  1371  1  0.13000200  0.38239500  0.60600700  1
  C  1372  1  0.10112900  0.38369400  0.62514400  1
  C  1376  1  0.18459400  0.39009100  0.60949900  1
  C  1380  1  0.10087800  0.39532600  0.59207900  1
  C  1388  1  0.63237400  0.15522300  0.41911600  1
  C  1389  1  0.65269500  0.16077500  0.43670600  1
  C  1390  1  0.65198300  0.18012200  0.44085000  1
  C  1392  1  0.61314700  0.18743100  0.41181100  1
  C  1394  1  0.62999600  0.13538500  0.41172000  1
  C  1395  1  0.60113000  0.13409200  0.39258200  1
  C  1399  1  0.68460200  0.12770500  0.40822500  1
  C  1403  1  0.60089500  0.12244000  0.42563900  1
  C  1411  1  0.88222700  0.16899800  0.61233300  1
  C  1412  1  0.90256000  0.18655500  0.60668600  1
  C  1413  1  0.90190100  0.19059400  0.58731700  1
  C  1415  1  0.86306900  0.16152100  0.58016100  1
  C  1417  1  0.87983100  0.16170700  0.63220800  1
  C  1418  1  0.85097500  0.14257100  0.63359700  1
  C  1422  1  0.93442500  0.15825900  0.63991900  1
  C  1426  1  0.85069500  0.17569100  0.64507000  1
  C  1434  1  0.38231600  0.34879300  0.40545500  1
  C  1435  1  0.40265300  0.33124000  0.41110700  1
  C  1436  1  0.40182000  0.32716400  0.43046700  1
  C  1438  1  0.36310100  0.35625900  0.43762700  1
  C  1440  1  0.37996500  0.35609500  0.38558200  1
  C  1441  1  0.35113600  0.37523500  0.38419500  1
  C  1445  1  0.43458200  0.35953700  0.37788900  1
  C  1449  1  0.35084100  0.34212000  0.37270500  1
  N  724  1  0.96670700  0.01086100  0.00169200  1
  N  726  1  0.02138600  0.99133000  0.01764800  1
  N  742  1  0.08781600  0.03389400  0.00489100  1
  N  743  1  0.94103600  0.98065300  0.01267200  1
  N  747  1  0.46670500  0.50691700  0.01607300  1
  N  749  1  0.52142800  0.52643900  0.00012600  1
  N  765  1  0.58773400  0.48384000  0.01287600  1
  N  766  1  0.44109100  0.53713500  0.00510300  1
  N  770  1  0.21665300  0.26622700  0.76025600  1
  N  772  1  0.27123300  0.25011200  0.74082300  1
  N  788  1  0.33766800  0.26295300  0.78337900  1
  N  789  1  0.19097200  0.25516400  0.73007600  1
  N  793  1  0.71667200  0.25156000  0.25751300  1
  N  795  1  0.77121000  0.26767700  0.27695800  1
  N  811  1  0.83776500  0.25484100  0.23443200  1
  N  812  1  0.69092900  0.26262500  0.28768400  1
  N  816  1  0.05086900  0.50685200  0.00160200  1
  N  818  1  0.99635400  0.52647900  0.01748800  1
  N  834  1  0.92960100  0.48387300  0.00500000  1
  N  835  1  0.07685800  0.53708200  0.01247100  1
  N  839  1  0.55087800  0.01093300  0.01616100  1
  N  841  1  0.49635900  0.99130900  0.00027100  1
  N  857  1  0.42961500  0.03391200  0.01277300  1
  N  858  1  0.57685200  0.98069900  0.00529800  1
  N  862  1  0.80084100  0.25152100  0.76035600  1
  N  864  1  0.74644000  0.26753200  0.74079000  1
  N  880  1  0.67963500  0.25498200  0.78336900  1
  N  881  1  0.82688700  0.26245100  0.73015400  1
  N  885  1  0.30079100  0.26628900  0.25745000  1
  N  887  1  0.24638500  0.25027500  0.27701200  1
  N  903  1  0.17957900  0.26283200  0.23442800  1
  N  904  1  0.32683100  0.25535100  0.28765400  1
  N  908  1  0.80103400  0.75169800  0.25684100  1
  N  910  1  0.74640200  0.76772600  0.27632700  1
  N  926  1  0.67999400  0.75494000  0.23375300  1
  N  927  1  0.82671700  0.76271600  0.28703900  1
  N  931  1  0.30102400  0.76609500  0.76093100  1
  N  933  1  0.24637600  0.75007600  0.74144600  1
  N  949  1  0.18002400  0.76284200  0.78403800  1
  N  950  1  0.32667100  0.75510100  0.73072200  1
  N  954  1  0.21691500  0.76624000  0.25680800  1
  N  956  1  0.27137500  0.75025900  0.27637900  1
  N  972  1  0.33818200  0.76280700  0.23379700  1
  N  973  1  0.19091900  0.75531900  0.28701800  1
  N  977  1  0.71684200  0.75156700  0.76097200  1
  N  979  1  0.77130400  0.76755600  0.74140800  1
  N  995  1  0.83811000  0.75498600  0.78398800  1
  N  996  1  0.69083800  0.76250400  0.73076400  1
  N  1000  1  0.46666400  0.51086200  0.50170400  1
  N  1002  1  0.52133800  0.49135700  0.51767800  1
  N  1018  1  0.58772600  0.53394800  0.50492600  1
  N  1019  1  0.44100000  0.48064600  0.51269000  1
  N  1023  1  0.96666200  0.00692300  0.51606700  1
  N  1025  1  0.02135300  0.02640900  0.50008000  1
  N  1041  1  0.08766400  0.98379900  0.51284700  1
  N  1042  1  0.94102500  0.03713900  0.50507500  1
  N  1046  1  0.55085500  0.00686900  0.50155600  1
  N  1048  1  0.49641600  0.02644800  0.51753000  1
  N  1064  1  0.42963400  0.98384700  0.50500200  1
  N  1065  1  0.57689000  0.03708300  0.51246700  1
  N  1069  1  0.05083700  0.51090900  0.51621800  1
  N  1071  1  0.99639200  0.49133100  0.50024300  1
  N  1087  1  0.92962000  0.53392800  0.51277300  1
  N  1088  1  0.07684400  0.48068800  0.50531300  1
  N  1092  1  0.38403900  0.19299400  0.92816500  1
  N  1094  1  0.40518900  0.16912000  0.90791400  1
  N  1110  1  0.34037100  0.14852700  0.94709200  1
  N  1111  1  0.42502600  0.19830400  0.89847000  1
  N  1115  1  0.88428700  0.32476000  0.08962500  1
  N  1117  1  0.90519100  0.34861900  0.10992400  1
  N  1133  1  0.84040800  0.36922600  0.07073100  1
  N  1134  1  0.92534900  0.31942600  0.11930500  1
  N  1138  1  0.63406300  0.33929700  0.94274400  1
  N  1140  1  0.65508100  0.35969300  0.91898200  1
  N  1156  1  0.59025900  0.32062200  0.89817200  1
  N  1157  1  0.67522400  0.36893200  0.94822000  1
  N  1161  1  0.13391900  0.17849000  0.07504500  1
  N  1163  1  0.15499000  0.15811600  0.09881900  1
  N  1179  1  0.09017300  0.19719200  0.11961100  1
  N  1180  1  0.17506100  0.14884900  0.06959100  1
  N  1184  1  0.63257500  0.82495100  0.08906600  1
  N  1186  1  0.61416600  0.84874900  0.10976800  1
  N  1202  1  0.67814700  0.86923000  0.07035600  1
  N  1203  1  0.59286100  0.81959300  0.11898000  1
  N  1207  1  0.13251400  0.69280500  0.92871400  1
  N  1209  1  0.11408000  0.66901100  0.90801000  1
  N  1225  1  0.17810400  0.64852300  0.94740900  1
  N  1226  1  0.09278200  0.69817200  0.89880400  1
  N  1230  1  0.38339900  0.67805100  0.07475900  1
  N  1232  1  0.36213700  0.65786400  0.09866600  1
  N  1248  1  0.42726400  0.69702800  0.11918800  1
  N  1249  1  0.34185000  0.64844200  0.06949800  1
  N  1253  1  0.88329500  0.83970200  0.94303100  1
  N  1255  1  0.86219800  0.85992300  0.91913200  1
  N  1271  1  0.92724600  0.82074400  0.89860200  1
  N  1272  1  0.84180500  0.86932100  0.94829800  1
  N  1276  1  0.88421900  0.69299400  0.42802700  1
  N  1278  1  0.90555900  0.66908500  0.40785200  1
  N  1294  1  0.84042300  0.64855500  0.44701000  1
  N  1295  1  0.92575500  0.69825400  0.39841400  1
  N  1299  1  0.38450900  0.82476200  0.58973900  1
  N  1301  1  0.40556800  0.84865000  0.60997400  1
  N  1317  1  0.34050100  0.86920200  0.57079300  1
  N  1318  1  0.42599100  0.81946900  0.61936300  1
  N  1322  1  0.13520200  0.83909900  0.44279400  1
  N  1324  1  0.15359000  0.85981000  0.41900400  1
  N  1340  1  0.08960100  0.82041100  0.39850000  1
  N  1341  1  0.17493100  0.86901300  0.44816500  1
  N  1345  1  0.63508100  0.67869500  0.57498500  1
  N  1347  1  0.65353600  0.65800600  0.59878700  1
  N  1363  1  0.58954400  0.69741000  0.61927400  1
  N  1364  1  0.67481500  0.64878000  0.56963700  1
  N  1368  1  0.13243000  0.32495800  0.58918600  1
  N  1370  1  0.11374400  0.34879600  0.60979900  1
  N  1386  1  0.17805600  0.36921000  0.57041100  1
  N  1387  1  0.09221500  0.31966200  0.61903200  1
  N  1391  1  0.63230600  0.19281100  0.42857800  1
  N  1393  1  0.61368500  0.16898500  0.40794400  1
  N  1409  1  0.67801800  0.14855800  0.44732800  1
  N  1410  1  0.59213000  0.19813400  0.39872600  1
  N  1414  1  0.88225000  0.17825400  0.57469000  1
  N  1416  1  0.86355400  0.15775400  0.59862700  1
  N  1432  1  0.92789800  0.19723400  0.61884600  1
  N  1433  1  0.84207400  0.14837700  0.56953400  1
  N  1437  1  0.38215700  0.33950500  0.44309200  1
  N  1439  1  0.36362800  0.36003400  0.41916200  1
  N  1455  1  0.42790000  0.32053700  0.39894000  1
  N  1456  1  0.34203200  0.36939000  0.44825200  1
  O  740  1  0.99332800  0.04021000  0.99176300  1
  O  763  1  0.49325500  0.47755900  0.02599300  1
  O  786  1  0.24327600  0.27624600  0.78957100  1
  O  809  1  0.74336200  0.24153800  0.22820300  1
  O  832  1  0.02410500  0.47745800  0.99184900  1
  O  855  1  0.52410900  0.04032100  0.02592800  1
  O  878  1  0.77402300  0.24169600  0.78971800  1
  O  901  1  0.27398400  0.27611300  0.22808100  1
  O  924  1  0.77442100  0.74173300  0.22750400  1
  O  947  1  0.27444400  0.77604400  0.79027700  1
  O  970  1  0.24370400  0.77605900  0.22743500  1
  O  993  1  0.74363000  0.74173300  0.79034100  1
  O  1016  1  0.49324000  0.54021200  0.49177100  1
  O  1039  1  0.99320400  0.97757600  0.52601500  1
  O  1062  1  0.52406700  0.97749400  0.49175400  1
  O  1085  1  0.02405600  0.54028800  0.52602000  1
  O  1108  1  0.34254400  0.18662700  0.95623300  1
  O  1131  1  0.84282400  0.33113300  0.06154900  1
  O  1154  1  0.59255000  0.31126300  0.93623300  1
  O  1177  1  0.09241400  0.20652700  0.08154500  1
  O  1200  1  0.67285700  0.83131400  0.06075100  1
  O  1223  1  0.17283500  0.68643600  0.95702000  1
  O  1246  1  0.42516200  0.70608200  0.08106800  1
  O  1269  1  0.92494400  0.81164800  0.93671700  1
  O  1292  1  0.84249400  0.68668000  0.45606700  1
  O  1315  1  0.34283400  0.83108600  0.56169000  1
  O  1338  1  0.09493400  0.81078200  0.43642000  1
  O  1361  1  0.59481000  0.70701400  0.58134800  1
  O  1384  1  0.17296600  0.33126500  0.56090300  1
  O  1407  1  0.67285700  0.18649500  0.45685700  1
  O  1430  1  0.92281300  0.20656100  0.58086200  1
  O  1453  1  0.42261000  0.31117500  0.43691900  1
