# generated using pymatgen
data_H22C39(N5O2)2
_symmetry_space_group_name_H-M   'P 1'
_cell_length_a   60.54880000
_cell_length_b   60.54880000
_cell_length_c   60.54880000
_cell_angle_alpha   90.00000000
_cell_angle_beta   90.00000000
_cell_angle_gamma   90.00000000
_symmetry_Int_Tables_number   1
_chemical_formula_structural   H22C39(N5O2)2
_chemical_formula_sum   'H528 C936 N240 O96'
_cell_volume   221981.41794757
_cell_formula_units_Z   24
loop_
 _symmetry_equiv_pos_site_id
 _symmetry_equiv_pos_as_xyz
  1  'x, y, z'
loop_
 _atom_site_type_symbol
 _atom_site_label
 _atom_site_symmetry_multiplicity
 _atom_site_fract_x
 _atom_site_fract_y
 _atom_site_fract_z
 _atom_site_occupancy
  H  25  1  0.34026100  0.41159700  0.95445900  1
  H  26  1  0.37031100  0.40615500  0.97864700  1
  H  27  1  0.40615500  0.37031300  0.04066400  1
  H  28  1  0.41159500  0.34026400  0.06485800  1
  H  29  1  0.35486900  0.30906300  0.03963100  1
  H  30  1  0.30905500  0.35487700  0.97969500  1
  H  31  1  0.32699400  0.37544900  0.03826300  1
  H  32  1  0.26574600  0.34823600  0.05669700  1
  H  33  1  0.27316600  0.31649500  0.03515600  1
  H  34  1  0.37545400  0.32699200  0.98106100  1
  H  35  1  0.31649000  0.27317500  0.98414800  1
  H  36  1  0.34824300  0.26574300  0.96262800  1
  H  39  1  0.39178600  0.37609500  0.00007700  1
  H  40  1  0.37610000  0.39178600  0.01923000  1
  H  42  1  0.30611200  0.29252300  0.02071200  1
  H  43  1  0.29251800  0.30611500  0.99859700  1
  H  72  1  0.67906700  0.60771600  0.95447100  1
  H  73  1  0.64902200  0.61315500  0.97866300  1
  H  74  1  0.61317500  0.64899900  0.04067600  1
  H  75  1  0.60773100  0.67904900  0.06486700  1
  H  76  1  0.66444400  0.71026200  0.03962400  1
  H  77  1  0.71026300  0.66444900  0.97969200  1
  H  78  1  0.69232700  0.64387400  0.03826700  1
  H  79  1  0.75358200  0.67108000  0.05668700  1
  H  80  1  0.74616300  0.70281800  0.03514100  1
  H  81  1  0.64386200  0.69233400  0.98107100  1
  H  82  1  0.70283800  0.74614000  0.98413600  1
  H  83  1  0.67108000  0.75357700  0.96262500  1
  H  86  1  0.62754000  0.64320300  0.00009400  1
  H  87  1  0.64324300  0.62753000  0.01924900  1
  H  89  1  0.71322400  0.72679700  0.02069800  1
  H  90  1  0.72680500  0.71319100  0.99858400  1
  H  119  1  0.67910000  0.41161700  0.06481900  1
  H  120  1  0.64904500  0.40617600  0.04063700  1
  H  121  1  0.61313000  0.37026800  0.97869600  1
  H  122  1  0.60769300  0.34022000  0.95450200  1
  H  123  1  0.66447400  0.30906600  0.97967400  1
  H  124  1  0.71026000  0.35484900  0.03963100  1
  H  125  1  0.69233100  0.37544400  0.98105800  1
  H  126  1  0.75358200  0.34823500  0.96262500  1
  H  127  1  0.74615800  0.31649000  0.98416100  1
  H  128  1  0.64386700  0.32698200  0.03824800  1
  H  129  1  0.70283400  0.27316600  0.03516900  1
  H  130  1  0.67108000  0.26573400  0.05668700  1
  H  133  1  0.62754000  0.37609000  0.01925300  1
  H  134  1  0.64321500  0.39177000  0.00008200  1
  H  136  1  0.71322300  0.29251400  0.99860600  1
  H  137  1  0.72680200  0.30611300  0.02072500  1
  H  166  1  0.34020800  0.60769600  0.06481500  1
  H  167  1  0.37026300  0.61313000  0.04062600  1
  H  168  1  0.40617000  0.64903200  0.97867500  1
  H  169  1  0.41161700  0.67908500  0.95449600  1
  H  170  1  0.35486700  0.71026600  0.97970000  1
  H  171  1  0.30906500  0.66448000  0.03964600  1
  H  172  1  0.32698600  0.64387700  0.98105600  1
  H  173  1  0.26574800  0.67110500  0.96260700  1
  H  174  1  0.27317600  0.70284900  0.98414100  1
  H  175  1  0.37544400  0.69232700  0.03826700  1
  H  176  1  0.31650700  0.74617100  0.03513800  1
  H  177  1  0.34824800  0.75359000  0.05668100  1
  H  180  1  0.39176600  0.64320700  0.01923600  1
  H  181  1  0.37608300  0.62753800  0.00006200  1
  H  183  1  0.30612500  0.72681300  0.99858800  1
  H  184  1  0.29252400  0.71323100  0.02070300  1
  H  213  1  0.95449900  0.34021300  0.41162800  1
  H  214  1  0.97868300  0.37027000  0.40618500  1
  H  215  1  0.04061000  0.40619100  0.37025500  1
  H  216  1  0.06479700  0.41162500  0.34019700  1
  H  217  1  0.03963000  0.35483400  0.30906300  1
  H  218  1  0.97967400  0.30905600  0.35485400  1
  H  219  1  0.03826100  0.32697900  0.37544700  1
  H  220  1  0.05668000  0.26572400  0.34824000  1
  H  221  1  0.03513700  0.27314800  0.31649800  1
  H  222  1  0.98105300  0.37544100  0.32698900  1
  H  223  1  0.98416100  0.31648700  0.27316300  1
  H  224  1  0.96262500  0.34823100  0.26573900  1
  H  227  1  0.00005200  0.39177100  0.37608800  1
  H  228  1  0.01923700  0.37611000  0.39176800  1
  H  230  1  0.02071000  0.30609500  0.29252100  1
  H  231  1  0.99858800  0.29251100  0.30611200  1
  H  260  1  0.95448900  0.67910300  0.60770800  1
  H  261  1  0.97868300  0.64905300  0.61313500  1
  H  262  1  0.04067600  0.61317500  0.64899200  1
  H  263  1  0.06485600  0.60771800  0.67904700  1
  H  264  1  0.03961900  0.66442900  0.71026600  1
  H  265  1  0.97968900  0.71025800  0.66447400  1
  H  266  1  0.03826800  0.69233100  0.64387500  1
  H  267  1  0.05668800  0.75358400  0.67108800  1
  H  268  1  0.03514700  0.74615700  0.70282900  1
  H  269  1  0.98106400  0.64386600  0.69232700  1
  H  270  1  0.98415800  0.70282100  0.74615300  1
  H  271  1  0.96263100  0.67107000  0.75357900  1
  H  274  1  0.00009500  0.62755300  0.64318700  1
  H  275  1  0.01926200  0.64325100  0.62752300  1
  H  277  1  0.02071300  0.71321100  0.72680200  1
  H  278  1  0.99859400  0.72679500  0.71320800  1
  H  307  1  0.06486900  0.67902600  0.41158700  1
  H  308  1  0.04069000  0.64897200  0.40612500  1
  H  309  1  0.97870800  0.61310700  0.37023500  1
  H  310  1  0.95450100  0.60769600  0.34018800  1
  H  311  1  0.97965700  0.66450000  0.30907500  1
  H  312  1  0.03961400  0.71026500  0.35489200  1
  H  313  1  0.98105500  0.69232200  0.37544600  1
  H  314  1  0.96263800  0.75358700  0.34825400  1
  H  315  1  0.98417600  0.74616600  0.31650800  1
  H  316  1  0.03826200  0.64387400  0.32698700  1
  H  317  1  0.03517900  0.70284900  0.27318100  1
  H  318  1  0.05670000  0.67109500  0.26574400  1
  H  321  1  0.01928200  0.62751300  0.37603900  1
  H  322  1  0.00011000  0.64315700  0.39175000  1
  H  324  1  0.99861400  0.71323400  0.29253100  1
  H  325  1  0.02073600  0.72681000  0.30612800  1
  H  354  1  0.06485700  0.34028100  0.60771900  1
  H  355  1  0.04066600  0.37032800  0.61317100  1
  H  356  1  0.97865800  0.40616800  0.64903500  1
  H  357  1  0.95446400  0.41159500  0.67908500  1
  H  358  1  0.97968400  0.35484900  0.71025700  1
  H  359  1  0.03962400  0.30905800  0.66443200  1
  H  360  1  0.98106900  0.32699200  0.64386400  1
  H  361  1  0.96263600  0.26573900  0.67106800  1
  H  362  1  0.98415900  0.27316800  0.70282300  1
  H  363  1  0.03825900  0.37545200  0.69233500  1
  H  364  1  0.03517400  0.31648000  0.74614300  1
  H  365  1  0.05669100  0.34823600  0.75358200  1
  H  368  1  0.01924200  0.39179500  0.64323800  1
  H  369  1  0.00008400  0.37611500  0.62754600  1
  H  371  1  0.99860600  0.30610500  0.72679400  1
  H  372  1  0.02072400  0.29251400  0.71320500  1
  H  401  1  0.41160500  0.95447900  0.34022600  1
  H  402  1  0.40617000  0.97866500  0.37028100  1
  H  403  1  0.37029300  0.04063800  0.40617100  1
  H  404  1  0.34024300  0.06483400  0.41161200  1
  H  405  1  0.30906800  0.03964500  0.35485400  1
  H  406  1  0.35485400  0.97968700  0.30905600  1
  H  407  1  0.37544400  0.03826500  0.32698900  1
  H  408  1  0.34822800  0.05670200  0.26574300  1
  H  409  1  0.31648500  0.03516300  0.27316600  1
  H  410  1  0.32699100  0.98106000  0.37544700  1
  H  411  1  0.27316800  0.98415300  0.31648800  1
  H  412  1  0.26573900  0.96263000  0.34824000  1
  H  415  1  0.37609300  0.00006700  0.39177600  1
  H  416  1  0.39178000  0.01923300  0.37610000  1
  H  418  1  0.29251400  0.02071800  0.30611300  1
  H  419  1  0.30610500  0.99860600  0.29251600  1
  H  448  1  0.60768500  0.95451900  0.67914100  1
  H  449  1  0.61309900  0.97872100  0.64909600  1
  H  450  1  0.64897200  0.04068700  0.61319400  1
  H  451  1  0.67902700  0.06486600  0.60772900  1
  H  452  1  0.71026600  0.03961700  0.66442400  1
  H  453  1  0.66449700  0.97966700  0.71025200  1
  H  454  1  0.64388000  0.03826900  0.69233200  1
  H  455  1  0.67109100  0.05668800  0.75358400  1
  H  456  1  0.70283100  0.03514500  0.74616000  1
  H  457  1  0.69233400  0.98107100  0.64386200  1
  H  458  1  0.74615000  0.98414300  0.70283100  1
  H  459  1  0.75358200  0.96263000  0.67107200  1
  H  462  1  0.64314900  0.00011800  0.62757300  1
  H  463  1  0.62751200  0.01928700  0.64329600  1
  H  465  1  0.72680700  0.02070300  0.71321800  1
  H  466  1  0.71320300  0.99858900  0.72680200  1
  H  495  1  0.41159200  0.06485900  0.67903100  1
  H  496  1  0.40612300  0.04068700  0.64897500  1
  H  497  1  0.37023200  0.97871100  0.61310900  1
  H  498  1  0.34018800  0.95450200  0.60769600  1
  H  499  1  0.30907100  0.97966200  0.66450200  1
  H  500  1  0.35489900  0.03960900  0.71027500  1
  H  501  1  0.37544700  0.98105300  0.69232900  1
  H  502  1  0.34824500  0.96262500  0.75358400  1
  H  503  1  0.31650500  0.98416800  0.74616800  1
  H  504  1  0.32698200  0.03824600  0.64387200  1
  H  505  1  0.27317800  0.03517600  0.70284800  1
  H  506  1  0.26573900  0.05669000  0.67109100  1
  H  509  1  0.37603000  0.01927800  0.62751200  1
  H  510  1  0.39174800  0.00011700  0.64316200  1
  H  512  1  0.29252600  0.99861400  0.71323800  1
  H  513  1  0.30612800  0.02073400  0.72681200  1
  H  542  1  0.60772400  0.06486300  0.34028400  1
  H  543  1  0.61318600  0.04068700  0.37034100  1
  H  544  1  0.64906100  0.97869000  0.40619300  1
  H  545  1  0.67910800  0.95449600  0.41161700  1
  H  546  1  0.71025800  0.97969000  0.35484400  1
  H  547  1  0.66442200  0.03961400  0.30905000  1
  H  548  1  0.64386700  0.98106100  0.32699200  1
  H  549  1  0.67108300  0.96261300  0.26574900  1
  H  550  1  0.70282800  0.98415000  0.27317100  1
  H  551  1  0.69232700  0.03826800  0.37544400  1
  H  552  1  0.74616100  0.03514000  0.31649800  1
  H  553  1  0.75358500  0.05668200  0.34823800  1
  H  556  1  0.64326100  0.01926300  0.39180300  1
  H  557  1  0.62755600  0.00010400  0.37613600  1
  H  559  1  0.72679900  0.99859400  0.30611500  1
  H  560  1  0.71321300  0.02071200  0.29251900  1
  H  589  1  0.83985900  0.91224600  0.45504600  1
  H  590  1  0.87007300  0.90678200  0.47914400  1
  H  591  1  0.90679900  0.87005500  0.54015900  1
  H  592  1  0.91225700  0.83984500  0.56426400  1
  H  593  1  0.85483600  0.80935000  0.53978400  1
  H  594  1  0.80935300  0.85483600  0.47953400  1
  H  595  1  0.82711400  0.87565000  0.53823200  1
  H  596  1  0.76606100  0.84820500  0.55697900  1
  H  597  1  0.77348300  0.81650600  0.53538300  1
  H  598  1  0.87565200  0.82711300  0.48109800  1
  H  599  1  0.81650300  0.77348800  0.48393200  1
  H  600  1  0.84820500  0.76606400  0.46233900  1
  H  603  1  0.89189300  0.87635900  0.49993400  1
  H  604  1  0.87638700  0.89188200  0.51936800  1
  H  606  1  0.80632600  0.79265900  0.52067100  1
  H  607  1  0.79265800  0.80632900  0.49864900  1
  H  636  1  0.17944400  0.10709400  0.45501600  1
  H  637  1  0.14924100  0.11254000  0.47912900  1
  H  638  1  0.11255500  0.14921000  0.54020500  1
  H  639  1  0.10709200  0.17941400  0.56431200  1
  H  640  1  0.16445900  0.20996400  0.53977800  1
  H  641  1  0.20996100  0.16448400  0.47953900  1
  H  642  1  0.19219900  0.14366400  0.53823300  1
  H  643  1  0.25325700  0.17110200  0.55697200  1
  H  644  1  0.24583600  0.20280000  0.53537600  1
  H  645  1  0.14366000  0.19219900  0.48110300  1
  H  646  1  0.20280700  0.24582600  0.48393300  1
  H  647  1  0.17110000  0.25325200  0.46235200  1
  H  650  1  0.12742700  0.14293000  0.49995900  1
  H  651  1  0.14295900  0.12741300  0.51937600  1
  H  653  1  0.21299700  0.22665000  0.52066900  1
  H  654  1  0.22665300  0.21298000  0.49864100  1
  H  683  1  0.17947300  0.91224400  0.56428300  1
  H  684  1  0.14927100  0.90680200  0.54016600  1
  H  685  1  0.11257100  0.87011600  0.47910800  1
  H  686  1  0.10710800  0.83991400  0.45500100  1
  H  687  1  0.16446600  0.80935500  0.47954200  1
  H  688  1  0.20995600  0.85481600  0.53980400  1
  H  689  1  0.19220200  0.87564700  0.48109100  1
  H  690  1  0.25325700  0.84820500  0.46234400  1
  H  691  1  0.24583100  0.81650300  0.48393500  1
  H  692  1  0.14366500  0.82711900  0.53822700  1
  H  693  1  0.20281600  0.77349500  0.53540400  1
  H  694  1  0.17110700  0.76606600  0.55698200  1
  H  697  1  0.12744500  0.87640500  0.51935600  1
  H  698  1  0.14298000  0.89191000  0.49993000  1
  H  700  1  0.21299200  0.79266100  0.49865400  1
  H  701  1  0.22666000  0.80632800  0.52067900  1
  H  730  1  0.83989200  0.10709700  0.56430700  1
  H  731  1  0.87009800  0.11255600  0.54020000  1
  H  732  1  0.90678700  0.14924600  0.47914200  1
  H  733  1  0.91223600  0.17944900  0.45502600  1
  H  734  1  0.85482700  0.20995500  0.47951700  1
  H  735  1  0.80935000  0.16446700  0.53977300  1
  H  736  1  0.82711900  0.14366100  0.48110300  1
  H  737  1  0.76606800  0.17110200  0.46234100  1
  H  738  1  0.77349500  0.20281200  0.48391900  1
  H  739  1  0.87565400  0.19220700  0.53822500  1
  H  740  1  0.81650000  0.24583000  0.53539100  1
  H  741  1  0.84820800  0.25326000  0.55697000  1
  H  744  1  0.89190200  0.14296000  0.51937900  1
  H  745  1  0.87638400  0.12743100  0.49995900  1
  H  747  1  0.80632900  0.22665700  0.49864400  1
  H  748  1  0.79265800  0.21299000  0.52066600  1
  H  777  1  0.45504800  0.83986400  0.91224700  1
  H  778  1  0.47914900  0.87007500  0.90678400  1
  H  779  1  0.54016700  0.90679100  0.87006000  1
  H  780  1  0.56427800  0.91224200  0.83985300  1
  H  781  1  0.53980400  0.85482100  0.80936200  1
  H  782  1  0.47953700  0.80935000  0.85484200  1
  H  783  1  0.53823200  0.82711400  0.87564900  1
  H  784  1  0.55698700  0.76606400  0.84820300  1
  H  785  1  0.53539100  0.77348300  0.81650500  1
  H  786  1  0.48110100  0.87565000  0.82711400  1
  H  787  1  0.48391700  0.81649500  0.77349500  1
  H  788  1  0.46234100  0.84820500  0.76606600  1
  H  791  1  0.49994400  0.89189200  0.87636200  1
  H  792  1  0.51937300  0.87637900  0.89188500  1
  H  794  1  0.52066700  0.80632300  0.79265800  1
  H  795  1  0.49864900  0.79265100  0.80633100  1
  H  824  1  0.45501500  0.17943500  0.10709000  1
  H  825  1  0.47912700  0.14923700  0.11253900  1
  H  826  1  0.54020400  0.11255800  0.14921100  1
  H  827  1  0.56431500  0.10709900  0.17941200  1
  H  828  1  0.53977600  0.16446500  0.20996100  1
  H  829  1  0.47953700  0.20996300  0.16447500  1
  H  830  1  0.53822500  0.19219700  0.14366400  1
  H  831  1  0.55697200  0.25325200  0.17110300  1
  H  832  1  0.53537600  0.24583300  0.20280200  1
  H  833  1  0.48109900  0.14365800  0.19220400  1
  H  834  1  0.48391200  0.20282000  0.24581600  1
  H  835  1  0.46233800  0.17111000  0.25324900  1
  H  838  1  0.49996000  0.12742400  0.14292700  1
  H  839  1  0.51937400  0.14296700  0.12741400  1
  H  841  1  0.52065600  0.21299700  0.22665300  1
  H  842  1  0.49863700  0.22666000  0.21297200  1
  H  871  1  0.56427000  0.17946800  0.91225600  1
  H  872  1  0.54015900  0.14926500  0.90680500  1
  H  873  1  0.47911100  0.11256700  0.87010900  1
  H  874  1  0.45500600  0.10710200  0.83990600  1
  H  875  1  0.47955200  0.16446400  0.80934800  1
  H  876  1  0.53979700  0.20996100  0.85483100  1
  H  877  1  0.48109300  0.19220200  0.87564900  1
  H  878  1  0.46235100  0.25325800  0.84820800  1
  H  879  1  0.48395200  0.24584000  0.81651300  1
  H  880  1  0.53821200  0.14365600  0.82711300  1
  H  881  1  0.53541400  0.20281800  0.77349800  1
  H  882  1  0.55698200  0.17110300  0.76606600  1
  H  885  1  0.51935100  0.12743700  0.87639900  1
  H  886  1  0.49993400  0.14297800  0.89190700  1
  H  888  1  0.49867200  0.21300800  0.79266300  1
  H  889  1  0.52069900  0.22665800  0.80634400  1
  H  918  1  0.56431800  0.83990600  0.10710700  1
  H  919  1  0.54021900  0.87011400  0.11257300  1
  H  920  1  0.47916900  0.90681200  0.14926900  1
  H  921  1  0.45505400  0.91226000  0.17947200  1
  H  922  1  0.47952200  0.85482900  0.20995800  1
  H  923  1  0.53977300  0.80935200  0.16446700  1
  H  924  1  0.48109100  0.82712100  0.14366600  1
  H  925  1  0.46231600  0.76607900  0.17112100  1
  H  926  1  0.48390500  0.77350300  0.20282300  1
  H  927  1  0.53823000  0.87565000  0.19219900  1
  H  928  1  0.53536300  0.81652000  0.24584300  1
  H  929  1  0.55696400  0.84821600  0.25326000  1
  H  932  1  0.51939600  0.89191200  0.14298300  1
  H  933  1  0.49997500  0.87640800  0.12744000  1
  H  935  1  0.49863100  0.80634600  0.22666300  1
  H  936  1  0.52065100  0.79266600  0.21300300  1
  H  965  1  0.91224900  0.45503800  0.83986600  1
  H  966  1  0.90679700  0.47915100  0.87006800  1
  H  967  1  0.87009300  0.54020000  0.90676400  1
  H  968  1  0.83988400  0.56430000  0.91222600  1
  H  969  1  0.80934500  0.53976100  0.85485400  1
  H  970  1  0.85483600  0.47952000  0.80936200  1
  H  971  1  0.87565500  0.53822500  0.82711400  1
  H  972  1  0.84821100  0.55696900  0.76605900  1
  H  973  1  0.81651100  0.53537300  0.77348300  1
  H  974  1  0.82712100  0.48109300  0.87565700  1
  H  975  1  0.77349100  0.48392700  0.81651100  1
  H  976  1  0.76607100  0.46233400  0.84821100  1
  H  979  1  0.87638700  0.49995900  0.89188700  1
  H  980  1  0.89190000  0.51938200  0.87636100  1
  H  982  1  0.79266400  0.52066400  0.80632800  1
  H  983  1  0.80633400  0.49863900  0.79266300  1
  H  1012  1  0.10709100  0.45503900  0.17946500  1
  H  1013  1  0.11254100  0.47914400  0.14925500  1
  H  1014  1  0.14925300  0.54016900  0.11252800  1
  H  1015  1  0.17946300  0.56427400  0.10706700  1
  H  1016  1  0.20996900  0.53979600  0.16448000  1
  H  1017  1  0.16450000  0.47953900  0.20996400  1
  H  1018  1  0.14367700  0.53823700  0.19220200  1
  H  1019  1  0.17111500  0.55697700  0.25326000  1
  H  1020  1  0.20281300  0.53538100  0.24584000  1
  H  1021  1  0.19221200  0.48110100  0.14366800  1
  H  1022  1  0.24583800  0.48393300  0.20281500  1
  H  1023  1  0.25326300  0.46235100  0.17111000  1
  H  1026  1  0.14294900  0.49994400  0.12743200  1
  H  1027  1  0.12743500  0.51937600  0.14294900  1
  H  1029  1  0.22666300  0.52067200  0.21300000  1
  H  1030  1  0.21299300  0.49864600  0.22666000  1
  H  1059  1  0.91223600  0.56428700  0.17947000  1
  H  1060  1  0.90678900  0.54017900  0.14926200  1
  H  1061  1  0.87007500  0.47915500  0.11253400  1
  H  1062  1  0.83987100  0.45504300  0.10707700  1
  H  1063  1  0.80936300  0.47951900  0.16449000  1
  H  1064  1  0.85481800  0.53979700  0.20996100  1
  H  1065  1  0.87564400  0.48108900  0.19220000  1
  H  1066  1  0.84821000  0.46234800  0.25326200  1
  H  1067  1  0.81650800  0.48394000  0.24584000  1
  H  1068  1  0.82711100  0.53822500  0.14366900  1
  H  1069  1  0.77349100  0.53540400  0.20282500  1
  H  1070  1  0.76606100  0.55698000  0.17111300  1
  H  1073  1  0.87637500  0.51938400  0.12743700  1
  H  1074  1  0.89189200  0.49995000  0.14295100  1
  H  1076  1  0.79266100  0.49865700  0.21300700  1
  H  1077  1  0.80633400  0.52068600  0.22666300  1
  H  1106  1  0.10709400  0.56430800  0.83989200  1
  H  1107  1  0.11254500  0.54019200  0.87009100  1
  H  1108  1  0.14920900  0.47910100  0.90675700  1
  H  1109  1  0.17940900  0.45498800  0.91220900  1
  H  1110  1  0.20995900  0.47953400  0.85484700  1
  H  1111  1  0.16447300  0.53977900  0.80935800  1
  H  1112  1  0.14366000  0.48110300  0.82711900  1
  H  1113  1  0.17110300  0.46234600  0.76606900  1
  H  1114  1  0.20281300  0.48392500  0.77349800  1
  H  1115  1  0.19220200  0.53822000  0.87566200  1
  H  1116  1  0.24582500  0.53539800  0.81651000  1
  H  1117  1  0.25325500  0.55697400  0.84822000  1
  H  1120  1  0.14293600  0.51935400  0.89189700  1
  H  1121  1  0.12741400  0.49994400  0.87636100  1
  H  1123  1  0.22665500  0.49864600  0.80633600  1
  H  1124  1  0.21299200  0.52067100  0.79266600  1
  H  1135  1  0.43270000  0.29726800  0.91681500  1
  H  1140  1  0.44963700  0.21155300  0.90670100  1
  H  1142  1  0.40609000  0.30768900  0.94827300  1
  H  1149  1  0.58662400  0.72205200  0.91681700  1
  H  1154  1  0.56971700  0.80777800  0.90668200  1
  H  1156  1  0.61325200  0.71162400  0.94824600  1
  H  1163  1  0.58662600  0.29726100  0.10250200  1
  H  1168  1  0.56970900  0.21153500  0.11262900  1
  H  1170  1  0.61324100  0.30768400  0.07105300  1
  H  1177  1  0.43268900  0.72205700  0.10251200  1
  H  1182  1  0.44963700  0.80777100  0.11261000  1
  H  1184  1  0.40606200  0.71162400  0.07108500  1
  H  1191  1  0.91681900  0.43269400  0.29726600  1
  H  1196  1  0.90670000  0.44962900  0.21155200  1
  H  1198  1  0.94826400  0.40607700  0.30768700  1
  H  1205  1  0.91682500  0.58661100  0.72204900  1
  H  1210  1  0.90669600  0.56969600  0.80777000  1
  H  1212  1  0.94827400  0.61322700  0.71162700  1
  H  1219  1  0.10251300  0.58663700  0.29726600  1
  H  1224  1  0.11264700  0.56972900  0.21153800  1
  H  1226  1  0.07106200  0.61325100  0.30768900  1
  H  1233  1  0.10251500  0.43268400  0.72205900  1
  H  1238  1  0.11262100  0.44962200  0.80778000  1
  H  1240  1  0.07107900  0.40606200  0.71162900  1
  H  1247  1  0.29726600  0.91681400  0.43269500  1
  H  1252  1  0.21155200  0.90670000  0.44963100  1
  H  1254  1  0.30768700  0.94827100  0.40608600  1
  H  1261  1  0.72205200  0.91681700  0.58662100  1
  H  1266  1  0.80777100  0.90669100  0.56969900  1
  H  1268  1  0.71162200  0.94824600  0.61324900  1
  H  1275  1  0.29726300  0.10249800  0.58663100  1
  H  1280  1  0.21153500  0.11263500  0.56972500  1
  H  1282  1  0.30768600  0.07105100  0.61324900  1
  H  1289  1  0.72205900  0.10250700  0.43268900  1
  H  1294  1  0.80777800  0.11261700  0.44962400  1
  H  1296  1  0.71162600  0.07108300  0.40605900  1
  H  1303  1  0.29727200  0.43270400  0.10249600  1
  H  1308  1  0.21155700  0.44963700  0.11261900  1
  H  1310  1  0.30769500  0.40607700  0.07105800  1
  H  1317  1  0.72205200  0.58662100  0.10249800  1
  H  1322  1  0.80777600  0.56971500  0.11263800  1
  H  1324  1  0.71162700  0.61324600  0.07106200  1
  H  1331  1  0.29726100  0.58662900  0.91682000  1
  H  1336  1  0.21153700  0.56971500  0.90669100  1
  H  1338  1  0.30768600  0.61325200  0.94826100  1
  H  1345  1  0.72205700  0.43268700  0.91681100  1
  H  1350  1  0.80777300  0.44963200  0.90671000  1
  H  1352  1  0.71162400  0.40606100  0.94824000  1
  H  1359  1  0.43270500  0.91681700  0.72205400  1
  H  1364  1  0.44962700  0.90669300  0.80777300  1
  H  1366  1  0.40608900  0.94826800  0.71163200  1
  H  1373  1  0.58660800  0.91682900  0.29726800  1
  H  1378  1  0.56970100  0.90669500  0.21154500  1
  H  1380  1  0.61322600  0.94827800  0.30768900  1
  H  1387  1  0.58662600  0.10249300  0.72205500  1
  H  1392  1  0.56971200  0.11262600  0.80778000  1
  H  1394  1  0.61325200  0.07105700  0.71163200  1
  H  1401  1  0.43268700  0.10250700  0.29726400  1
  H  1406  1  0.44963900  0.11260800  0.21155200  1
  H  1408  1  0.40606100  0.07107700  0.30769400  1
  H  1415  1  0.91681400  0.29727100  0.58662100  1
  H  1420  1  0.90669100  0.21155200  0.56969700  1
  H  1422  1  0.94825800  0.30769700  0.61323900  1
  H  1429  1  0.91681400  0.72205200  0.43270400  1
  H  1434  1  0.90669300  0.80777300  0.44962100  1
  H  1436  1  0.94826300  0.71162700  0.40608900  1
  H  1443  1  0.10248900  0.29725600  0.43270200  1
  H  1448  1  0.11262100  0.21153700  0.44962400  1
  H  1450  1  0.07103900  0.30767600  0.40608600  1
  H  1457  1  0.10251300  0.72205900  0.58663900  1
  H  1462  1  0.11262100  0.80777600  0.56970100  1
  H  1464  1  0.07108800  0.71162600  0.61326700  1
  H  1471  1  0.58383500  0.72357100  0.10667900  1
  H  1476  1  0.56299700  0.80212500  0.09746900  1
  H  1478  1  0.59743400  0.71570500  0.06567600  1
  H  1485  1  0.43548700  0.29576100  0.10666300  1
  H  1490  1  0.45634900  0.21722100  0.09747600  1
  H  1492  1  0.42188100  0.30359500  0.06564800  1
  H  1499  1  0.43549800  0.72360800  0.91271100  1
  H  1504  1  0.45648100  0.80202100  0.92183600  1
  H  1506  1  0.42187600  0.71574000  0.95361100  1
  H  1513  1  0.58389400  0.29572500  0.91264200  1
  H  1518  1  0.56282800  0.21732400  0.92182000  1
  H  1520  1  0.59746200  0.30352000  0.95367800  1
  H  1527  1  0.10666900  0.58381800  0.72356000  1
  H  1532  1  0.09747700  0.56297500  0.80210600  1
  H  1534  1  0.06566300  0.59742200  0.71570700  1
  H  1541  1  0.10666500  0.43536400  0.29576300  1
  H  1546  1  0.09751000  0.45648600  0.21731400  1
  H  1548  1  0.06552500  0.42184300  0.30346300  1
  H  1555  1  0.91269000  0.43546500  0.72360800  1
  H  1560  1  0.92183000  0.45647300  0.80201200  1
  H  1562  1  0.95360100  0.42185000  0.71575100  1
  H  1569  1  0.91264000  0.58393500  0.29572300  1
  H  1574  1  0.92180300  0.56282000  0.21733900  1
  H  1576  1  0.95371500  0.59748800  0.30346300  1
  H  1583  1  0.72355800  0.10668100  0.58381000  1
  H  1588  1  0.80211800  0.09746900  0.56298900  1
  H  1590  1  0.71567000  0.06569700  0.59741500  1
  H  1597  1  0.29576500  0.10669900  0.43543200  1
  H  1602  1  0.21725600  0.09749000  0.45639400  1
  H  1604  1  0.30353900  0.06559400  0.42186900  1
  H  1611  1  0.72360400  0.91272300  0.43546800  1
  H  1616  1  0.80200100  0.92183100  0.45649900  1
  H  1618  1  0.71578400  0.95365400  0.42185500  1
  H  1625  1  0.29572700  0.91264700  0.58393500  1
  H  1630  1  0.21734500  0.92180300  0.56281400  1
  H  1632  1  0.30346700  0.95371800  0.59749000  1
  H  1639  1  0.72355700  0.58383100  0.91266700  1
  H  1644  1  0.80209600  0.56295400  0.92184600  1
  H  1646  1  0.71573300  0.59743700  0.95369300  1
  H  1653  1  0.29574800  0.43549600  0.91265700  1
  H  1658  1  0.21719300  0.45631900  0.92184400  1
  H  1660  1  0.30359800  0.42188400  0.95366200  1
  H  1667  1  0.72362100  0.43543400  0.10666100  1
  H  1672  1  0.80201600  0.45648400  0.09749600  1
  H  1674  1  0.71577800  0.42185300  0.06569100  1
  H  1681  1  0.29571800  0.58389600  0.10666200  1
  H  1686  1  0.21732000  0.56283200  0.09749100  1
  H  1688  1  0.30349600  0.59746700  0.06561800  1
  H  1695  1  0.58380200  0.10666900  0.29575100  1
  H  1700  1  0.56300300  0.09746500  0.21718800  1
  H  1702  1  0.59741700  0.06568300  0.30363400  1
  H  1709  1  0.43552100  0.10667100  0.72356500  1
  H  1714  1  0.45631800  0.09746200  0.80213900  1
  H  1716  1  0.42190400  0.06569500  0.71567000  1
  H  1723  1  0.43548000  0.91271300  0.29572200  1
  H  1728  1  0.45650600  0.92182600  0.21733000  1
  H  1730  1  0.42186100  0.95363400  0.30355500  1
  H  1737  1  0.58392400  0.91266000  0.72360100  1
  H  1742  1  0.56281900  0.92181100  0.80198600  1
  H  1744  1  0.59748300  0.95373300  0.71586000  1
  H  1751  1  0.10668900  0.72357500  0.43551100  1
  H  1756  1  0.09746400  0.80214800  0.45629000  1
  H  1758  1  0.06572000  0.71566200  0.42189900  1
  H  1765  1  0.10667400  0.29575000  0.58381500  1
  H  1770  1  0.09746000  0.21719200  0.56300500  1
  H  1772  1  0.06568600  0.30363100  0.59742500  1
  H  1779  1  0.91271600  0.72359800  0.58385800  1
  H  1784  1  0.92182500  0.80198600  0.56280400  1
  H  1786  1  0.95365000  0.71578300  0.59746500  1
  H  1793  1  0.91263700  0.29571200  0.43543000  1
  H  1798  1  0.92181500  0.21730400  0.45647300  1
  H  1800  1  0.95366800  0.30351400  0.42186500  1
  C  1  1  0.34369600  0.32087800  0.99510300  1
  C  2  1  0.32681100  0.30461200  0.99585100  1
  C  3  1  0.30460700  0.32681400  0.02345900  1
  C  4  1  0.32087700  0.34369600  0.02421300  1
  C  5  1  0.31597600  0.36267900  0.03773100  1
  C  6  1  0.29574100  0.36493500  0.04968700  1
  C  7  1  0.28052400  0.34743700  0.04846600  1
  C  8  1  0.28490900  0.32865700  0.03579400  1
  C  9  1  0.32866000  0.28490700  0.98352500  1
  C  10  1  0.34744500  0.28051900  0.97086100  1
  C  11  1  0.36495200  0.29572700  0.96966000  1
  C  12  1  0.36268100  0.31597800  0.98158600  1
  C  13  1  0.34056300  0.36129500  0.99389000  1
  C  14  1  0.35784700  0.37713500  0.99392300  1
  C  15  1  0.37713500  0.35784700  0.02538900  1
  C  16  1  0.36129400  0.34056600  0.02542500  1
  C  17  1  0.39499900  0.35760100  0.04032300  1
  C  18  1  0.39834300  0.33965000  0.05441400  1
  C  19  1  0.38451300  0.32085300  0.05361800  1
  C  20  1  0.36548400  0.32219300  0.03983100  1
  C  21  1  0.32219600  0.36547500  0.97947400  1
  C  22  1  0.32085000  0.38451300  0.96570000  1
  C  23  1  0.33965300  0.39833600  0.96489200  1
  C  24  1  0.35760700  0.39498900  0.97897700  1
  C  37  1  0.34157600  0.34157700  0.00965800  1
  C  38  1  0.37645200  0.37645000  0.00965500  1
  C  41  1  0.30681200  0.30681500  0.00965500  1
  C  48  1  0.67562300  0.69844500  0.99510400  1
  C  49  1  0.69251400  0.71470800  0.99584800  1
  C  50  1  0.71471600  0.69250700  0.02345700  1
  C  51  1  0.69844100  0.67562800  0.02421800  1
  C  52  1  0.70334500  0.65664400  0.03773300  1
  C  53  1  0.72358100  0.65438800  0.04968700  1
  C  54  1  0.73879900  0.67188400  0.04846500  1
  C  55  1  0.73441700  0.69066100  0.03578600  1
  C  56  1  0.69066600  0.73440900  0.98351900  1
  C  57  1  0.67187800  0.73880000  0.97085900  1
  C  58  1  0.65436800  0.72359600  0.96966400  1
  C  59  1  0.65663900  0.70334600  0.98159100  1
  C  60  1  0.67875600  0.65802900  0.99389200  1
  C  61  1  0.66147800  0.64218400  0.99392800  1
  C  62  1  0.64218400  0.66147300  0.02539100  1
  C  63  1  0.65802600  0.67875500  0.02542700  1
  C  64  1  0.62432600  0.66171400  0.04033200  1
  C  65  1  0.62098000  0.67966500  0.05442100  1
  C  66  1  0.63480800  0.69846400  0.05362300  1
  C  67  1  0.65383600  0.69712700  0.03983600  1
  C  68  1  0.69713000  0.65383800  0.97948700  1
  C  69  1  0.69846900  0.63481000  0.96570000  1
  C  70  1  0.67966500  0.62099100  0.96488600  1
  C  71  1  0.66172100  0.62432600  0.97898700  1
  C  84  1  0.67774400  0.67774600  0.00966000  1
  C  85  1  0.64287800  0.64286300  0.00966600  1
  C  88  1  0.71251600  0.71250100  0.00964600  1
  C  95  1  0.67562700  0.32086800  0.02421100  1
  C  96  1  0.69250900  0.30459900  0.02345800  1
  C  97  1  0.71471600  0.32680600  0.99585600  1
  C  98  1  0.69844800  0.34369000  0.99510400  1
  C  99  1  0.70335000  0.36267400  0.98158800  1
  C  100  1  0.72358500  0.36493200  0.96963200  1
  C  101  1  0.73880200  0.34743400  0.97085500  1
  C  102  1  0.73442500  0.32866000  0.98354000  1
  C  103  1  0.69065900  0.28489400  0.03578200  1
  C  104  1  0.67188100  0.28051200  0.04845700  1
  C  105  1  0.65437100  0.29571700  0.04965400  1
  C  106  1  0.65664400  0.31597000  0.03773100  1
  C  107  1  0.67876000  0.36128500  0.02542500  1
  C  108  1  0.66148300  0.37713200  0.02538800  1
  C  109  1  0.64217400  0.35782700  0.99394200  1
  C  110  1  0.65802900  0.34055800  0.99389200  1
  C  111  1  0.62429900  0.35756800  0.97902300  1
  C  112  1  0.62096700  0.33962300  0.96491900  1
  C  113  1  0.63481800  0.32084200  0.96569800  1
  C  114  1  0.65385200  0.32219100  0.97947400  1
  C  115  1  0.69712700  0.36545900  0.03984400  1
  C  116  1  0.69848100  0.38449800  0.05361400  1
  C  117  1  0.67969900  0.39835000  0.05439400  1
  C  118  1  0.66174000  0.39500200  0.04031400  1
  C  131  1  0.67774700  0.34156900  0.00965800  1
  C  132  1  0.64287000  0.37643800  0.00966600  1
  C  135  1  0.71251300  0.30680900  0.00966200  1
  C  142  1  0.34369000  0.69844500  0.02422200  1
  C  143  1  0.32681600  0.71472200  0.02345600  1
  C  144  1  0.30461000  0.69252200  0.99584800  1
  C  145  1  0.32087300  0.67563300  0.99510100  1
  C  146  1  0.31597000  0.65665000  0.98158600  1
  C  147  1  0.29573700  0.65439800  0.96962600  1
  C  148  1  0.28052200  0.67189900  0.97084500  1
  C  149  1  0.28490400  0.69067400  0.98352700  1
  C  150  1  0.32866500  0.73442700  0.03578100  1
  C  151  1  0.34744400  0.73880700  0.04845800  1
  C  152  1  0.36493700  0.72358600  0.04968400  1
  C  153  1  0.36267800  0.70334800  0.03773300  1
  C  154  1  0.34055300  0.65802800  0.02542000  1
  C  155  1  0.35782500  0.64217400  0.02537600  1
  C  156  1  0.37713400  0.66148100  0.99393300  1
  C  157  1  0.36129000  0.67876100  0.99389500  1
  C  158  1  0.39499900  0.66173200  0.97900000  1
  C  159  1  0.39834500  0.67968600  0.96491400  1
  C  160  1  0.38451300  0.69848100  0.96571300  1
  C  161  1  0.36547900  0.69713500  0.97949100  1
  C  162  1  0.32218500  0.65385100  0.03983300  1
  C  163  1  0.32083000  0.63481500  0.05360700  1
  C  164  1  0.33960900  0.62096000  0.05438600  1
  C  165  1  0.35755800  0.62429500  0.04028900  1
  C  178  1  0.34157100  0.67775100  0.00966000  1
  C  179  1  0.37643700  0.64286600  0.00965100  1
  C  182  1  0.30681900  0.71252200  0.00964800  1
  C  189  1  0.99509100  0.34368100  0.32088000  1
  C  190  1  0.99585300  0.32680200  0.30460500  1
  C  191  1  0.02345200  0.30459200  0.32681200  1
  C  192  1  0.02421500  0.32086700  0.34369100  1
  C  193  1  0.03772600  0.31596000  0.36267800  1
  C  194  1  0.04968000  0.29572300  0.36493400  1
  C  195  1  0.04845600  0.28050600  0.34743700  1
  C  196  1  0.03576900  0.28488400  0.32866500  1
  C  197  1  0.98354000  0.32865900  0.28489400  1
  C  198  1  0.97085100  0.34742900  0.28051900  1
  C  199  1  0.96962900  0.36492700  0.29573700  1
  C  200  1  0.98157800  0.36266600  0.31597600  1
  C  201  1  0.99389400  0.34054800  0.36129700  1
  C  202  1  0.99393300  0.35782500  0.37714400  1
  C  203  1  0.02536600  0.37714000  0.35782400  1
  C  204  1  0.02541700  0.36128000  0.34055800  1
  C  205  1  0.04027900  0.39502200  0.35755400  1
  C  206  1  0.05438700  0.39834500  0.33961200  1
  C  207  1  0.05360000  0.38449100  0.32083200  1
  C  208  1  0.03983600  0.36545100  0.32219100  1
  C  209  1  0.97948400  0.32217800  0.36547900  1
  C  210  1  0.96570300  0.32083000  0.38451100  1
  C  211  1  0.96492900  0.33961000  0.39836400  1
  C  212  1  0.97902300  0.35756100  0.39502500  1
  C  225  1  0.00965300  0.34156200  0.34157400  1
  C  226  1  0.00964600  0.37644700  0.37644000  1
  C  229  1  0.00965100  0.30680000  0.30681400  1
  C  236  1  0.99510600  0.67562300  0.69844300  1
  C  237  1  0.99585900  0.69250400  0.71471400  1
  C  238  1  0.02346000  0.71471400  0.69251100  1
  C  239  1  0.02422800  0.69843800  0.67563300  1
  C  240  1  0.03774300  0.70334500  0.65664900  1
  C  241  1  0.04969000  0.72358500  0.65439100  1
  C  242  1  0.04846700  0.73880000  0.67189100  1
  C  243  1  0.03578000  0.73442100  0.69066100  1
  C  244  1  0.98353400  0.69065300  0.73441700  1
  C  245  1  0.97086400  0.67186900  0.73880200  1
  C  246  1  0.96965500  0.65436800  0.72359000  1
  C  247  1  0.98159100  0.65663900  0.70334300  1
  C  248  1  0.99390400  0.67876500  0.65802600  1
  C  249  1  0.99394300  0.66149400  0.64217300  1
  C  250  1  0.02539500  0.64218600  0.66146600  1
  C  251  1  0.02542700  0.65802300  0.67875500  1
  C  252  1  0.04032500  0.62432100  0.66171200  1
  C  253  1  0.05441300  0.62097000  0.67966500  1
  C  254  1  0.05361300  0.63479500  0.69846400  1
  C  255  1  0.03983900  0.65383300  0.69712300  1
  C  256  1  0.97949400  0.69713700  0.65384800  1
  C  257  1  0.96570800  0.69848800  0.63482000  1
  C  258  1  0.96492400  0.67970600  0.62096800  1
  C  259  1  0.97902300  0.66175900  0.62429800  1
  C  272  1  0.00966500  0.67774400  0.67774700  1
  C  273  1  0.00967500  0.64288800  0.64285300  1
  C  276  1  0.00965600  0.71250600  0.71250900  1
  C  283  1  0.02421800  0.67563200  0.32087700  1
  C  284  1  0.02346600  0.69251700  0.30460900  1
  C  285  1  0.99586900  0.71472600  0.32682200  1
  C  286  1  0.99510400  0.69844600  0.34369600  1
  C  287  1  0.98158600  0.70334300  0.36267900  1
  C  288  1  0.96965200  0.72359100  0.36495200  1
  C  289  1  0.97086900  0.73880900  0.34745300  1
  C  290  1  0.98354800  0.73443000  0.32867700  1
  C  291  1  0.03578700  0.69066700  0.28490400  1
  C  292  1  0.04846100  0.67188900  0.28051700  1
  C  293  1  0.04966200  0.65437900  0.29572300  1
  C  294  1  0.03773500  0.65664900  0.31597500  1
  C  295  1  0.02542300  0.67875300  0.36129700  1
  C  296  1  0.02539700  0.66146000  0.37712500  1
  C  297  1  0.99395300  0.64215900  0.35781000  1
  C  298  1  0.99389900  0.65802600  0.34055200  1
  C  299  1  0.97903800  0.62428000  0.35753800  1
  C  300  1  0.96493500  0.62095700  0.33959200  1
  C  301  1  0.96569800  0.63483000  0.32082700  1
  C  302  1  0.97947700  0.65386200  0.32218600  1
  C  303  1  0.03983000  0.69712300  0.36549300  1
  C  304  1  0.05361900  0.69845600  0.38452100  1
  C  305  1  0.05442500  0.67964800  0.39833600  1
  C  306  1  0.04033400  0.66169700  0.39498500  1
  C  319  1  0.00966100  0.67774900  0.34157400  1
  C  320  1  0.00968600  0.64283700  0.37641400  1
  C  323  1  0.00967200  0.71252200  0.30682300  1
  C  330  1  0.02421800  0.34369500  0.69844500  1
  C  331  1  0.02346800  0.32680600  0.71470900  1
  C  332  1  0.99586600  0.30460200  0.69250100  1
  C  333  1  0.99511100  0.32087500  0.67562200  1
  C  334  1  0.98158800  0.31598100  0.65664000  1
  C  335  1  0.96966700  0.29572700  0.65436400  1
  C  336  1  0.97086800  0.28051700  0.67186900  1
  C  337  1  0.98354000  0.28489900  0.69065100  1
  C  338  1  0.03578400  0.32866000  0.73441900  1
  C  339  1  0.04845600  0.34744000  0.73880500  1
  C  340  1  0.04965800  0.36494800  0.72360000  1
  C  341  1  0.03773400  0.36267800  0.70334600  1
  C  342  1  0.02543100  0.34057100  0.65802600  1
  C  343  1  0.02539200  0.35785300  0.64218600  1
  C  344  1  0.99393200  0.37714200  0.66148600  1
  C  345  1  0.99389700  0.36129400  0.67876100  1
  C  346  1  0.97900300  0.39501000  0.66174500  1
  C  347  1  0.96490700  0.39834300  0.67969400  1
  C  348  1  0.96569300  0.38449500  0.69847800  1
  C  349  1  0.97948600  0.36547000  0.69713200  1
  C  350  1  0.03984500  0.32220400  0.65383800  1
  C  351  1  0.05362300  0.32086500  0.63480200  1
  C  352  1  0.05442400  0.33966600  0.62098000  1
  C  353  1  0.04032700  0.35761400  0.62432400  1
  C  366  1  0.00966400  0.34157600  0.67774400  1
  C  367  1  0.00966200  0.37646100  0.64288000  1
  C  370  1  0.00966600  0.30680700  0.71250300  1
  C  377  1  0.32087300  0.99510600  0.34369300  1
  C  378  1  0.30460500  0.99585400  0.32680700  1
  C  379  1  0.32680600  0.02346600  0.30460500  1
  C  380  1  0.34369000  0.02421800  0.32087300  1
  C  381  1  0.36267300  0.03773500  0.31597100  1
  C  382  1  0.36492900  0.04969000  0.29573700  1
  C  383  1  0.34742900  0.04847100  0.28052100  1
  C  384  1  0.32864700  0.03580100  0.28490700  1
  C  385  1  0.28490200  0.98352900  0.32865700  1
  C  386  1  0.28051600  0.97086300  0.34744200  1
  C  387  1  0.29572300  0.96966000  0.36494700  1
  C  388  1  0.31597500  0.98158600  0.36267600  1
  C  389  1  0.36129000  0.99389500  0.34055700  1
  C  390  1  0.37713700  0.99393000  0.35783400  1
  C  391  1  0.35783800  0.02538100  0.37713900  1
  C  392  1  0.34056200  0.02542500  0.36129000  1
  C  393  1  0.35758400  0.04030400  0.39501000  1
  C  394  1  0.33963500  0.05439600  0.39835300  1
  C  395  1  0.32084900  0.05361400  0.38451000  1
  C  396  1  0.32219300  0.03983500  0.36547700  1
  C  397  1  0.36547400  0.97948900  0.32218300  1
  C  398  1  0.38450500  0.96570800  0.32083400  1
  C  399  1  0.39834300  0.96491100  0.33962500  1
  C  400  1  0.39499900  0.97899300  0.35758200  1
  C  413  1  0.34157200  0.00966000  0.34157100  1
  C  414  1  0.37644700  0.00965300  0.37644700  1
  C  417  1  0.30680700  0.00966100  0.30681000  1
  C  424  1  0.69845000  0.99510800  0.67562200  1
  C  425  1  0.71471400  0.99585100  0.69250900  1
  C  426  1  0.69251700  0.02346200  0.71471400  1
  C  427  1  0.67563700  0.02422200  0.69844100  1
  C  428  1  0.65665200  0.03773500  0.70334800  1
  C  429  1  0.65439600  0.04968900  0.72358500  1
  C  430  1  0.67189400  0.04846700  0.73880000  1
  C  431  1  0.69067200  0.03579000  0.73441700  1
  C  432  1  0.73441700  0.98352400  0.69065900  1
  C  433  1  0.73880500  0.97086400  0.67187100  1
  C  434  1  0.72360000  0.96966700  0.65436300  1
  C  435  1  0.70334800  0.98159300  0.65663700  1
  C  436  1  0.65803300  0.99389500  0.67876600  1
  C  437  1  0.64216400  0.99395000  0.66151100  1
  C  438  1  0.66145800  0.02539900  0.64219700  1
  C  439  1  0.67875300  0.02542800  0.65802600  1
  C  440  1  0.66169600  0.04033700  0.62433700  1
  C  441  1  0.67965000  0.05442000  0.62097800  1
  C  442  1  0.69845500  0.05362000  0.63479700  1
  C  443  1  0.69712500  0.03983200  0.65382400  1
  C  444  1  0.65386400  0.97948100  0.69713700  1
  C  445  1  0.63483000  0.96570500  0.69849700  1
  C  446  1  0.62097200  0.96492000  0.67972100  1
  C  447  1  0.62429100  0.97902800  0.66177700  1
  C  460  1  0.67775100  0.00966200  0.67774600  1
  C  461  1  0.64283500  0.00969100  0.64291300  1
  C  464  1  0.71251100  0.00965100  0.71251100  1
  C  471  1  0.32087300  0.02421300  0.67563300  1
  C  472  1  0.30460700  0.02346300  0.69251900  1
  C  473  1  0.32681700  0.99586200  0.71472400  1
  C  474  1  0.34369800  0.99510800  0.69845300  1
  C  475  1  0.36268100  0.98158800  0.70335000  1
  C  476  1  0.36493900  0.96963100  0.72358500  1
  C  477  1  0.34744400  0.97085600  0.73880500  1
  C  478  1  0.32867400  0.98354500  0.73443400  1
  C  479  1  0.28490200  0.03578700  0.69067100  1
  C  480  1  0.28051700  0.04846000  0.67189100  1
  C  481  1  0.29572000  0.04965500  0.65437900  1
  C  482  1  0.31597300  0.03773200  0.65665000  1
  C  483  1  0.36129200  0.02542600  0.67875500  1
  C  484  1  0.37711400  0.02540700  0.66145500  1
  C  485  1  0.35780900  0.99394800  0.64216600  1
  C  486  1  0.34055300  0.99389000  0.65803600  1
  C  487  1  0.35754100  0.97903000  0.62429000  1
  C  488  1  0.33960200  0.96491700  0.62097300  1
  C  489  1  0.32083000  0.96569200  0.63483800  1
  C  490  1  0.32218800  0.97946700  0.65387200  1
  C  491  1  0.36548700  0.03983600  0.69712300  1
  C  492  1  0.38451900  0.05361700  0.69845800  1
  C  493  1  0.39833500  0.05442300  0.67964800  1
  C  494  1  0.39496900  0.04034900  0.66168700  1
  C  507  1  0.34157400  0.00966000  0.67775200  1
  C  508  1  0.37640900  0.00968800  0.64283800  1
  C  511  1  0.30682000  0.00966900  0.71252400  1
  C  518  1  0.69843800  0.02422500  0.34368800  1
  C  519  1  0.71471400  0.02345800  0.32681100  1
  C  520  1  0.69250700  0.99585400  0.30460700  1
  C  521  1  0.67562000  0.99510800  0.32087300  1
  C  522  1  0.65663700  0.98159300  0.31597300  1
  C  523  1  0.65438100  0.96963200  0.29574000  1
  C  524  1  0.67187900  0.97085100  0.28052400  1
  C  525  1  0.69065400  0.98353400  0.28490100  1
  C  526  1  0.73441900  0.03578300  0.32865900  1
  C  527  1  0.73880200  0.04845900  0.34743700  1
  C  528  1  0.72358500  0.04968400  0.36493400  1
  C  529  1  0.70334600  0.03773400  0.36267600  1
  C  530  1  0.65802300  0.02542800  0.34056600  1
  C  531  1  0.64219400  0.02540200  0.35786000  1
  C  532  1  0.66149600  0.99394300  0.37714900  1
  C  533  1  0.67876100  0.99389700  0.36128900  1
  C  534  1  0.66175000  0.97900800  0.39501000  1
  C  535  1  0.67970100  0.96491400  0.39834300  1
  C  536  1  0.69848900  0.96570800  0.38450000  1
  C  537  1  0.69713300  0.97948600  0.36546500  1
  C  538  1  0.65383100  0.03983900  0.32219800  1
  C  539  1  0.63479500  0.05361500  0.32085800  1
  C  540  1  0.62097800  0.05442300  0.33966600  1
  C  541  1  0.62432900  0.04033400  0.35761700  1
  C  554  1  0.67774200  0.00966400  0.34157200  1
  C  555  1  0.64289300  0.00967800  0.37647100  1
  C  558  1  0.71250800  0.00965500  0.30681400  1
  C  565  1  0.84385900  0.82106500  0.49508300  1
  C  566  1  0.82694100  0.80483000  0.49578800  1
  C  567  1  0.80482700  0.82694300  0.52353300  1
  C  568  1  0.82106300  0.84385900  0.52424000  1
  C  569  1  0.81613100  0.86284700  0.53774000  1
  C  570  1  0.79593300  0.86504200  0.54977600  1
  C  571  1  0.78080500  0.84746200  0.54868100  1
  C  572  1  0.78518100  0.82871500  0.53596100  1
  C  573  1  0.82871600  0.78518100  0.48336500  1
  C  574  1  0.84746200  0.78080600  0.47064200  1
  C  575  1  0.86504200  0.79593600  0.46954700  1
  C  576  1  0.86284600  0.81613600  0.48158000  1
  C  577  1  0.84072600  0.86149500  0.49393500  1
  C  578  1  0.85790900  0.87745200  0.49407900  1
  C  579  1  0.87745900  0.85789900  0.52523600  1
  C  580  1  0.86149200  0.84072600  0.52539100  1
  C  581  1  0.89551700  0.85745300  0.53994100  1
  C  582  1  0.89883300  0.83947600  0.55401100  1
  C  583  1  0.88471900  0.82089800  0.55343800  1
  C  584  1  0.86557600  0.82237900  0.53984700  1
  C  585  1  0.82237300  0.86558900  0.47948900  1
  C  586  1  0.82089800  0.88472600  0.46588700  1
  C  587  1  0.83947600  0.89883800  0.46531700  1
  C  588  1  0.85746300  0.89550900  0.47937200  1
  C  601  1  0.84175400  0.84175500  0.50966100  1
  C  602  1  0.87664600  0.87663100  0.50965300  1
  C  605  1  0.80698800  0.80699000  0.50966000  1
  C  612  1  0.17545000  0.19825200  0.49509300  1
  C  613  1  0.19236900  0.21448800  0.49579500  1
  C  614  1  0.21449100  0.19236500  0.52352800  1
  C  615  1  0.19825000  0.17545200  0.52424300  1
  C  616  1  0.20318000  0.15646600  0.53774600  1
  C  617  1  0.22338300  0.15426700  0.54977500  1
  C  618  1  0.23851700  0.17184300  0.54866800  1
  C  619  1  0.23413800  0.19059300  0.53595400  1
  C  620  1  0.19059800  0.23413000  0.48336200  1
  C  621  1  0.17184000  0.23851500  0.47066100  1
  C  622  1  0.15425700  0.22338800  0.46957300  1
  C  623  1  0.15646400  0.20318000  0.48158800  1
  C  624  1  0.17858800  0.15782200  0.49393500  1
  C  625  1  0.16140700  0.14186300  0.49407600  1
  C  626  1  0.14186800  0.16139400  0.52525200  1
  C  627  1  0.15782100  0.17858000  0.52539600  1
  C  628  1  0.12382200  0.16182500  0.53997200  1
  C  629  1  0.12049000  0.17981000  0.55402900  1
  C  630  1  0.13459100  0.19840000  0.55345100  1
  C  631  1  0.15372800  0.19692900  0.53985000  1
  C  632  1  0.19694000  0.15373300  0.47948600  1
  C  633  1  0.19841000  0.13460900  0.46586700  1
  C  634  1  0.17983200  0.12049600  0.46529600  1
  C  635  1  0.16184900  0.12381500  0.47935900  1
  C  648  1  0.17755900  0.17755800  0.50966600  1
  C  649  1  0.14268200  0.14266600  0.50966600  1
  C  652  1  0.21232600  0.21232000  0.50965800  1
  C  659  1  0.17545300  0.82106100  0.52423300  1
  C  660  1  0.19237500  0.80483000  0.52353600  1
  C  661  1  0.21449500  0.82694400  0.49579700  1
  C  662  1  0.19825700  0.84386100  0.49508800  1
  C  663  1  0.20318500  0.86284600  0.48158200  1
  C  664  1  0.22339300  0.86504900  0.46956300  1
  C  665  1  0.23851800  0.84746600  0.47065300  1
  C  666  1  0.23413700  0.82871300  0.48336400  1
  C  667  1  0.19060000  0.78518300  0.53596300  1
  C  668  1  0.17184500  0.78080300  0.54867000  1
  C  669  1  0.15425900  0.79592600  0.54975100  1
  C  670  1  0.15646900  0.81613800  0.53774000  1
  C  671  1  0.17859500  0.86149500  0.52539100  1
  C  672  1  0.16142500  0.87746500  0.52523600  1
  C  673  1  0.14187900  0.85792700  0.49406700  1
  C  674  1  0.15782400  0.84073500  0.49393400  1
  C  675  1  0.12383500  0.85749800  0.47934500  1
  C  676  1  0.12050100  0.83951300  0.46528900  1
  C  677  1  0.13460000  0.82092100  0.46586500  1
  C  678  1  0.15372400  0.82238100  0.47948600  1
  C  679  1  0.19694000  0.86557300  0.53985200  1
  C  680  1  0.19842000  0.88470600  0.55345700  1
  C  681  1  0.17985200  0.89883500  0.55401200  1
  C  682  1  0.16187100  0.89551900  0.53994600  1
  C  695  1  0.17756400  0.84175500  0.50966100  1
  C  696  1  0.14269900  0.87666100  0.50964700  1
  C  699  1  0.21232900  0.80699200  0.50966600  1
  C  706  1  0.84386400  0.19826000  0.52422800  1
  C  707  1  0.82694300  0.21449100  0.52353000  1
  C  708  1  0.80482800  0.19237200  0.49578800  1
  C  709  1  0.82106300  0.17545200  0.49509000  1
  C  710  1  0.81614300  0.15646900  0.48157800  1
  C  711  1  0.79592800  0.15425600  0.46957100  1
  C  712  1  0.78080600  0.17184300  0.47064800  1
  C  713  1  0.78518800  0.19060000  0.48335200  1
  C  714  1  0.82871000  0.23413300  0.53596300  1
  C  715  1  0.84746800  0.23852200  0.54866100  1
  C  716  1  0.86505600  0.22340000  0.54974500  1
  C  717  1  0.86284900  0.20318600  0.53773600  1
  C  718  1  0.84073600  0.15782900  0.52539400  1
  C  719  1  0.85791900  0.14187400  0.52525200  1
  C  720  1  0.87745600  0.16141000  0.49407700  1
  C  721  1  0.86149600  0.17859000  0.49393000  1
  C  722  1  0.89551000  0.16185200  0.47936700  1
  C  723  1  0.89883300  0.17983500  0.46530400  1
  C  724  1  0.88470900  0.19840700  0.46586000  1
  C  725  1  0.86558200  0.19693700  0.47947400  1
  C  726  1  0.82238600  0.15373700  0.53984700  1
  C  727  1  0.82091600  0.13460300  0.55345400  1
  C  728  1  0.83950400  0.12050200  0.55403400  1
  C  729  1  0.85748800  0.12383000  0.53997600  1
  C  742  1  0.84175900  0.17756200  0.50966000  1
  C  743  1  0.87665000  0.14268500  0.50966600  1
  C  746  1  0.80699000  0.21232600  0.50965600  1
  C  753  1  0.49509100  0.84385900  0.82106100  1
  C  754  1  0.49578300  0.82693400  0.80483100  1
  C  755  1  0.52353300  0.80482300  0.82694300  1
  C  756  1  0.52423300  0.82105600  0.84386300  1
  C  757  1  0.53774100  0.81613100  0.86284700  1
  C  758  1  0.54977800  0.79593300  0.86504100  1
  C  759  1  0.54868100  0.78080300  0.84746200  1
  C  760  1  0.53597600  0.78518600  0.82870600  1
  C  761  1  0.48334900  0.82870500  0.78518900  1
  C  762  1  0.47065200  0.84746500  0.78080300  1
  C  763  1  0.46957300  0.86505400  0.79592500  1
  C  764  1  0.48158500  0.86284400  0.81613600  1
  C  765  1  0.49393200  0.84072800  0.86149300  1
  C  766  1  0.49407900  0.85790900  0.87745100  1
  C  767  1  0.52524200  0.87745200  0.85790300  1
  C  768  1  0.52539400  0.86148800  0.84072800  1
  C  769  1  0.53995100  0.89550900  0.85745800  1
  C  770  1  0.55400400  0.89883700  0.83947100  1
  C  771  1  0.55344600  0.88471400  0.82089800  1
  C  772  1  0.53984400  0.86557700  0.82237600  1
  C  773  1  0.47947400  0.82238100  0.86557900  1
  C  774  1  0.46588500  0.82090300  0.88472600  1
  C  775  1  0.46531200  0.83948600  0.89883300  1
  C  776  1  0.47935900  0.85747700  0.89549500  1
  C  789  1  0.50966300  0.84175200  0.84175500  1
  C  790  1  0.50966000  0.87664100  0.87663300  1
  C  793  1  0.50965800  0.80698300  0.80699200  1
  C  800  1  0.49508800  0.17544800  0.19825500  1
  C  801  1  0.49578000  0.19237500  0.21448100  1
  C  802  1  0.52353000  0.21448600  0.19237000  1
  C  803  1  0.52423300  0.19825000  0.17545300  1
  C  804  1  0.53773500  0.20318000  0.15646500  1
  C  805  1  0.54977100  0.22337800  0.15426900  1
  C  806  1  0.54867600  0.23850700  0.17185000  1
  C  807  1  0.53596700  0.23412700  0.19060300  1
  C  808  1  0.48334500  0.19060800  0.23412300  1
  C  809  1  0.47064800  0.17184600  0.23851200  1
  C  810  1  0.46957100  0.15425700  0.22339300  1
  C  811  1  0.48158300  0.15646400  0.20318100  1
  C  812  1  0.49392400  0.17858200  0.15782600  1
  C  813  1  0.49406600  0.16140200  0.14186800  1
  C  814  1  0.52524700  0.14186800  0.16139600  1
  C  815  1  0.52539100  0.15782200  0.17858200  1
  C  816  1  0.53997600  0.12382800  0.16182300  1
  C  817  1  0.55403100  0.12049500  0.17980900  1
  C  818  1  0.55345400  0.13459700  0.19839700  1
  C  819  1  0.53984000  0.15372600  0.19693200  1
  C  820  1  0.47947900  0.19693700  0.15373100  1
  C  821  1  0.46586400  0.19840700  0.13460300  1
  C  822  1  0.46527100  0.17981400  0.12050800  1
  C  823  1  0.47933500  0.16183300  0.12382900  1
  C  836  1  0.50965800  0.17755800  0.17755900  1
  C  837  1  0.50966300  0.14268200  0.14266700  1
  C  840  1  0.50965000  0.21232900  0.21231800  1
  C  847  1  0.52423300  0.17545000  0.82106000  1
  C  848  1  0.52353800  0.19237400  0.80483000  1
  C  849  1  0.49580200  0.21449500  0.82694600  1
  C  850  1  0.49509300  0.19825800  0.84386300  1
  C  851  1  0.48158800  0.20318800  0.86284900  1
  C  852  1  0.46955200  0.22338500  0.86504400  1
  C  853  1  0.47065500  0.23851800  0.84746600  1
  C  854  1  0.48338000  0.23414300  0.82872100  1
  C  855  1  0.53597100  0.19060200  0.78518600  1
  C  856  1  0.54867600  0.17184500  0.78080500  1
  C  857  1  0.54974600  0.15425400  0.79592300  1
  C  858  1  0.53774000  0.15646400  0.81613600  1
  C  859  1  0.52539700  0.17858800  0.86149200  1
  C  860  1  0.52524400  0.16141500  0.87745700  1
  C  861  1  0.49406600  0.14187900  0.85792600  1
  C  862  1  0.49392900  0.15782800  0.84073600  1
  C  863  1  0.47933900  0.12383800  0.85749600  1
  C  864  1  0.46527600  0.12051000  0.83951600  1
  C  865  1  0.46586200  0.13460400  0.82092100  1
  C  866  1  0.47948200  0.15372900  0.82238300  1
  C  867  1  0.53985700  0.19693400  0.86557300  1
  C  868  1  0.55345100  0.19841700  0.88471600  1
  C  869  1  0.55400700  0.17984500  0.89884000  1
  C  870  1  0.53995800  0.16185500  0.89550900  1
  C  883  1  0.50966300  0.17756200  0.84175700  1
  C  884  1  0.50964800  0.14269400  0.87665600  1
  C  887  1  0.50967800  0.21233400  0.80699700  1
  C  894  1  0.52423300  0.84386400  0.19825500  1
  C  895  1  0.52352100  0.82695100  0.21449500  1
  C  896  1  0.49577500  0.80483800  0.19238000  1
  C  897  1  0.49508500  0.82106500  0.17545500  1
  C  898  1  0.48158000  0.81613800  0.15646800  1
  C  899  1  0.46953700  0.79594400  0.15427600  1
  C  900  1  0.47063200  0.78081400  0.17185600  1
  C  901  1  0.48334500  0.78519300  0.19060800  1
  C  902  1  0.53595400  0.82872000  0.23413700  1
  C  903  1  0.54866500  0.84747100  0.23851700  1
  C  904  1  0.54976800  0.86504900  0.22338500  1
  C  905  1  0.53773500  0.86285200  0.20318600  1
  C  906  1  0.52538800  0.84073500  0.15782500  1
  C  907  1  0.52525700  0.85792900  0.14188100  1
  C  908  1  0.49408400  0.87746500  0.16141900  1
  C  909  1  0.49392700  0.86149600  0.17859000  1
  C  910  1  0.47936700  0.89551400  0.16185800  1
  C  911  1  0.46530700  0.89883800  0.17984200  1
  C  912  1  0.46587500  0.88472100  0.19841800  1
  C  913  1  0.47947100  0.86558100  0.19693900  1
  C  914  1  0.53983000  0.82237900  0.15372500  1
  C  915  1  0.55344600  0.82091400  0.13459800  1
  C  916  1  0.55403400  0.83950900  0.12050400  1
  C  917  1  0.53997900  0.85749600  0.12383600  1
  C  930  1  0.50965600  0.84175900  0.17756200  1
  C  931  1  0.50968000  0.87666300  0.14269800  1
  C  934  1  0.50964500  0.80700200  0.21233400  1
  C  941  1  0.82107000  0.49507800  0.84386400  1
  C  942  1  0.80483300  0.49578500  0.82694800  1
  C  943  1  0.82694800  0.52352600  0.80482800  1
  C  944  1  0.84386600  0.52423300  0.82106500  1
  C  945  1  0.86285400  0.53773300  0.81613100  1
  C  946  1  0.86504700  0.54976800  0.79593300  1
  C  947  1  0.84746600  0.54867100  0.78080300  1
  C  948  1  0.82872000  0.53595100  0.78518100  1
  C  949  1  0.78518500  0.48336200  0.82872300  1
  C  950  1  0.78081300  0.47063700  0.84746800  1
  C  951  1  0.79594300  0.46954200  0.86504700  1
  C  952  1  0.81614100  0.48157500  0.86285100  1
  C  953  1  0.86150100  0.49393000  0.84072800  1
  C  954  1  0.87746200  0.49407900  0.85790800  1
  C  955  1  0.85791900  0.52524900  0.87744700  1
  C  956  1  0.84073500  0.52538900  0.86149200  1
  C  957  1  0.85748200  0.53996900  0.89549200  1
  C  958  1  0.83950300  0.55403600  0.89881300  1
  C  959  1  0.82090900  0.55344300  0.88471700  1
  C  960  1  0.82238300  0.53983900  0.86558200  1
  C  961  1  0.86559100  0.47947800  0.82237900  1
  C  962  1  0.88472100  0.46586700  0.82090800  1
  C  963  1  0.89884200  0.46530900  0.83948100  1
  C  964  1  0.89551900  0.47937300  0.85746300  1
  C  977  1  0.84176000  0.50965600  0.84175500  1
  C  978  1  0.87665100  0.50966800  0.87663500  1
  C  981  1  0.80699500  0.50965300  0.80699200  1
  C  988  1  0.19826500  0.49509300  0.17545700  1
  C  989  1  0.21449800  0.49579500  0.19237700  1
  C  990  1  0.19237900  0.52353100  0.21449600  1
  C  991  1  0.17546500  0.52424600  0.19825500  1
  C  992  1  0.15648000  0.53774900  0.20318500  1
  C  993  1  0.15428000  0.54977800  0.22338700  1
  C  994  1  0.17185600  0.54867300  0.23852200  1
  C  995  1  0.19060700  0.53595900  0.23414200  1
  C  996  1  0.23414200  0.48336200  0.19060700  1
  C  997  1  0.23852700  0.47066000  0.17185000  1
  C  998  1  0.22340000  0.46957100  0.15426600  1
  C  999  1  0.20319100  0.48158800  0.15647200  1
  C  1000  1  0.15783400  0.49393900  0.17859300  1
  C  1001  1  0.14187400  0.49408100  0.16141400  1
  C  1002  1  0.16141800  0.52524100  0.14186200  1
  C  1003  1  0.17859500  0.52539400  0.15782400  1
  C  1004  1  0.16186000  0.53994600  0.12380400  1
  C  1005  1  0.17984700  0.55400200  0.12047400  1
  C  1006  1  0.19842200  0.55344300  0.13459400  1
  C  1007  1  0.19694200  0.53985400  0.15373800  1
  C  1008  1  0.15374600  0.47949100  0.19694700  1
  C  1009  1  0.13461800  0.46587700  0.19842000  1
  C  1010  1  0.12049700  0.46531200  0.17984700  1
  C  1011  1  0.12381900  0.47937200  0.16186100  1
  C  1024  1  0.17757100  0.50966800  0.17756400  1
  C  1025  1  0.14268500  0.50966100  0.14268100  1
  C  1028  1  0.21233300  0.50966100  0.21233300  1
  C  1035  1  0.82105600  0.52423100  0.17545700  1
  C  1036  1  0.80482300  0.52353100  0.19237900  1
  C  1037  1  0.82694600  0.49579800  0.21450000  1
  C  1038  1  0.84385900  0.49508800  0.19826000  1
  C  1039  1  0.86284400  0.48158000  0.20318600  1
  C  1040  1  0.86505100  0.46956300  0.22339500  1
  C  1041  1  0.84747000  0.47065700  0.23852300  1
  C  1042  1  0.82871600  0.48336700  0.23414300  1
  C  1043  1  0.78518000  0.53596100  0.19060700  1
  C  1044  1  0.78079600  0.54866800  0.17185100  1
  C  1045  1  0.79591800  0.54974800  0.15426400  1
  C  1046  1  0.81613100  0.53773800  0.15647300  1
  C  1047  1  0.86149000  0.52539100  0.17859500  1
  C  1048  1  0.87745600  0.52524200  0.16142100  1
  C  1049  1  0.85790900  0.49408600  0.14186700  1
  C  1050  1  0.84072800  0.49393500  0.15782500  1
  C  1051  1  0.85746700  0.47937800  0.12381000  1
  C  1052  1  0.83948400  0.46531900  0.12048100  1
  C  1053  1  0.82091100  0.46587200  0.13460300  1
  C  1054  1  0.82238100  0.47947900  0.15373500  1
  C  1055  1  0.86557100  0.53985000  0.19694400  1
  C  1056  1  0.88470400  0.55345600  0.19842000  1
  C  1057  1  0.89882800  0.55401600  0.17985000  1
  C  1058  1  0.89550900  0.53995300  0.16186600  1
  C  1071  1  0.84175200  0.50966100  0.17756600  1
  C  1072  1  0.87664100  0.50966500  0.14268500  1
  C  1075  1  0.80699200  0.50966800  0.21233800  1
  C  1082  1  0.19825800  0.52422800  0.84387300  1
  C  1083  1  0.21448800  0.52353100  0.82695100  1
  C  1084  1  0.19237000  0.49579200  0.80483300  1
  C  1085  1  0.17545200  0.49509100  0.82106600  1
  C  1086  1  0.15646800  0.48158000  0.81614500  1
  C  1087  1  0.15425700  0.46957500  0.79593000  1
  C  1088  1  0.17184500  0.47065300  0.78080800  1
  C  1089  1  0.19060200  0.48335900  0.78519100  1
  C  1090  1  0.23413700  0.53595400  0.82872600  1
  C  1091  1  0.23851800  0.54866100  0.84748100  1
  C  1092  1  0.22339500  0.54974300  0.86506700  1
  C  1093  1  0.20318300  0.53773500  0.86285900  1
  C  1094  1  0.15782700  0.52539600  0.84074000  1
  C  1095  1  0.14186600  0.52524700  0.85791900  1
  C  1096  1  0.16139300  0.49406100  0.87744700  1
  C  1097  1  0.17858200  0.49392700  0.86149800  1
  C  1098  1  0.16182400  0.47933700  0.89548900  1
  C  1099  1  0.17980700  0.46527600  0.89881700  1
  C  1100  1  0.19839400  0.46585000  0.88471100  1
  C  1101  1  0.19693400  0.47947600  0.86559100  1
  C  1102  1  0.15374000  0.53985200  0.82239300  1
  C  1103  1  0.13460600  0.55345900  0.82091900  1
  C  1104  1  0.12050000  0.55403600  0.83950600  1
  C  1105  1  0.12382300  0.53997200  0.85748600  1
  C  1118  1  0.17756100  0.50966000  0.84176400  1
  C  1119  1  0.14266800  0.50965200  0.87664000  1
  C  1122  1  0.21232600  0.50966000  0.80699700  1
  C  1129  1  0.43582200  0.24267200  0.91243600  1
  C  1131  1  0.42867200  0.28123700  0.92023100  1
  C  1132  1  0.41209400  0.27607600  0.93588100  1
  C  1134  1  0.41919100  0.23731300  0.92813700  1
  C  1139  1  0.44823700  0.22675900  0.90074600  1
  C  1141  1  0.40040400  0.29231600  0.94778900  1
  C  1143  1  0.58350300  0.77664800  0.91243600  1
  C  1145  1  0.59065200  0.73808400  0.92023100  1
  C  1146  1  0.60723100  0.74324600  0.93588300  1
  C  1148  1  0.60013400  0.78200900  0.92813900  1
  C  1153  1  0.57108500  0.79256000  0.90074700  1
  C  1155  1  0.61891400  0.72700700  0.94779700  1
  C  1157  1  0.58349600  0.24266400  0.10687500  1
  C  1159  1  0.59065200  0.28122900  0.09908500  1
  C  1160  1  0.60723200  0.27606600  0.08343600  1
  C  1162  1  0.60012700  0.23730400  0.09117200  1
  C  1167  1  0.57107800  0.22675300  0.11856300  1
  C  1169  1  0.61891700  0.29230600  0.07152400  1
  C  1171  1  0.43582000  0.77665300  0.10687700  1
  C  1173  1  0.42866400  0.73808700  0.09909100  1
  C  1174  1  0.41208900  0.74324800  0.08343700  1
  C  1176  1  0.41919200  0.78201200  0.09117000  1
  C  1181  1  0.44823300  0.79256700  0.11856800  1
  C  1183  1  0.40040400  0.72700800  0.07152600  1
  C  1185  1  0.91243600  0.43581500  0.24267000  1
  C  1187  1  0.92023300  0.42866600  0.28123400  1
  C  1188  1  0.93588100  0.41208600  0.27607300  1
  C  1190  1  0.92813500  0.41918100  0.23731100  1
  C  1195  1  0.90074600  0.44823200  0.22675700  1
  C  1197  1  0.94778600  0.40039300  0.29231300  1
  C  1199  1  0.91244200  0.58349300  0.77664400  1
  C  1201  1  0.92023900  0.59064100  0.73808000  1
  C  1202  1  0.93588600  0.60722200  0.74324200  1
  C  1204  1  0.92814000  0.60012700  0.78200400  1
  C  1209  1  0.90075200  0.57107600  0.79255700  1
  C  1211  1  0.94779400  0.61891000  0.72700200  1
  C  1213  1  0.10688800  0.58350900  0.24267000  1
  C  1215  1  0.09909700  0.59066400  0.28123400  1
  C  1216  1  0.08344600  0.60724200  0.27607100  1
  C  1218  1  0.09118500  0.60014000  0.23730900  1
  C  1223  1  0.11857800  0.57109100  0.22675700  1
  C  1225  1  0.07153400  0.61892900  0.29231100  1
  C  1227  1  0.10688100  0.43581500  0.77665600  1
  C  1229  1  0.09909600  0.42865900  0.73809000  1
  C  1230  1  0.08344300  0.41208200  0.74325100  1
  C  1232  1  0.09117600  0.41918700  0.78201400  1
  C  1237  1  0.11856700  0.44823500  0.79256900  1
  C  1239  1  0.07152900  0.40039900  0.72701200  1
  C  1241  1  0.24267000  0.91243200  0.43581500  1
  C  1243  1  0.28123600  0.92022800  0.42866600  1
  C  1244  1  0.27607300  0.93587800  0.41208700  1
  C  1246  1  0.23731100  0.92813400  0.41918200  1
  C  1251  1  0.22675900  0.90074400  0.44823200  1
  C  1253  1  0.29231500  0.94778700  0.40039900  1
  C  1255  1  0.77664800  0.91243700  0.58349900  1
  C  1257  1  0.73808200  0.92023300  0.59064900  1
  C  1258  1  0.74324500  0.93588400  0.60722600  1
  C  1260  1  0.78200700  0.92814000  0.60012900  1
  C  1265  1  0.79255900  0.90074700  0.57108300  1
  C  1267  1  0.72700700  0.94779900  0.61891000  1
  C  1269  1  0.24266700  0.10687600  0.58350600  1
  C  1271  1  0.28123100  0.09908200  0.59065900  1
  C  1272  1  0.27606800  0.08343300  0.60723900  1
  C  1274  1  0.23730600  0.09117400  0.60013700  1
  C  1279  1  0.22675400  0.11856500  0.57108800  1
  C  1281  1  0.29230800  0.07152200  0.61892500  1
  C  1283  1  0.77665400  0.10687600  0.43581900  1
  C  1285  1  0.73809000  0.09908800  0.42866400  1
  C  1286  1  0.74325100  0.08343600  0.41208600  1
  C  1288  1  0.78201400  0.09117100  0.41918900  1
  C  1293  1  0.79256700  0.11856300  0.44823700  1
  C  1295  1  0.72701000  0.07152500  0.40039900  1
  C  1297  1  0.24267700  0.43582300  0.10688200  1
  C  1299  1  0.28124100  0.42867400  0.09908300  1
  C  1300  1  0.27607800  0.41209400  0.08343500  1
  C  1302  1  0.23731600  0.41918900  0.09118300  1
  C  1307  1  0.22676600  0.44824000  0.11857100  1
  C  1309  1  0.29231800  0.40040200  0.07152900  1
  C  1311  1  0.77664800  0.58350600  0.10688600  1
  C  1313  1  0.73808400  0.59065100  0.09908600  1
  C  1314  1  0.74324500  0.60723200  0.08343800  1
  C  1316  1  0.78200700  0.60014000  0.09118700  1
  C  1321  1  0.79255900  0.57108600  0.11857300  1
  C  1323  1  0.72700500  0.61892200  0.07153100  1
  C  1325  1  0.24266500  0.58350600  0.91244200  1
  C  1327  1  0.28123100  0.59065700  0.92023400  1
  C  1328  1  0.27607000  0.60724100  0.93588100  1
  C  1330  1  0.23730600  0.60014000  0.92814200  1
  C  1335  1  0.22675400  0.57108500  0.90075700  1
  C  1337  1  0.29231000  0.61892900  0.94778900  1
  C  1339  1  0.77665300  0.43581900  0.91244400  1
  C  1341  1  0.73808700  0.42866200  0.92023100  1
  C  1342  1  0.74324800  0.41208600  0.93588300  1
  C  1344  1  0.78201200  0.41919100  0.92815000  1
  C  1349  1  0.79256500  0.44823300  0.90075400  1
  C  1351  1  0.72700800  0.40039900  0.94779400  1
  C  1353  1  0.43582000  0.91243400  0.77664900  1
  C  1355  1  0.42867600  0.92023100  0.73808500  1
  C  1356  1  0.41209200  0.93587800  0.74324600  1
  C  1358  1  0.41918600  0.92813200  0.78200900  1
  C  1363  1  0.44823800  0.90074600  0.79256200  1
  C  1365  1  0.40040200  0.94778200  0.72700500  1
  C  1367  1  0.58349400  0.91244200  0.24267200  1
  C  1369  1  0.59063900  0.92024100  0.28123600  1
  C  1370  1  0.60722200  0.93588600  0.27607500  1
  C  1372  1  0.60013100  0.92813900  0.23731300  1
  C  1377  1  0.57108000  0.90075200  0.22675900  1
  C  1379  1  0.61891400  0.94779000  0.29231600  1
  C  1381  1  0.58350100  0.10687400  0.77665100  1
  C  1383  1  0.59065400  0.09907900  0.73808700  1
  C  1384  1  0.60723700  0.08343300  0.74325000  1
  C  1386  1  0.60013600  0.09117600  0.78201200  1
  C  1391  1  0.57108000  0.11856000  0.79256200  1
  C  1393  1  0.61892700  0.07152700  0.72701000  1
  C  1395  1  0.43581900  0.10687600  0.24266900  1
  C  1397  1  0.42866200  0.09908800  0.28123400  1
  C  1398  1  0.41208400  0.08343700  0.27607100  1
  C  1400  1  0.41918900  0.09117300  0.23730900  1
  C  1405  1  0.44823700  0.11856400  0.22675700  1
  C  1407  1  0.40039800  0.07152700  0.29231100  1
  C  1409  1  0.91243400  0.24267500  0.58350300  1
  C  1411  1  0.92022900  0.28124100  0.59065100  1
  C  1412  1  0.93587900  0.27608000  0.60722900  1
  C  1414  1  0.92813500  0.23731600  0.60013400  1
  C  1419  1  0.90074600  0.22676200  0.57108500  1
  C  1421  1  0.94779000  0.29231900  0.61891400  1
  C  1423  1  0.91243700  0.77664800  0.43582300  1
  C  1425  1  0.92022900  0.73808200  0.42867600  1
  C  1426  1  0.93587800  0.74324300  0.41209400  1
  C  1428  1  0.92813700  0.78200500  0.41918900  1
  C  1433  1  0.90074700  0.79256000  0.44824000  1
  C  1435  1  0.94778400  0.72700200  0.40040600  1
  C  1437  1  0.10687200  0.24266000  0.43582500  1
  C  1439  1  0.09907500  0.28122400  0.42867400  1
  C  1440  1  0.08343000  0.27606200  0.41209100  1
  C  1442  1  0.09117500  0.23729900  0.41919100  1
  C  1447  1  0.11856200  0.22675100  0.44824300  1
  C  1449  1  0.07152400  0.29230100  0.40039900  1
  C  1451  1  0.10688100  0.77665400  0.58350800  1
  C  1453  1  0.09909400  0.73808900  0.59066400  1
  C  1454  1  0.08344100  0.74325000  0.60724100  1
  C  1456  1  0.09117500  0.78201400  0.60013600  1
  C  1461  1  0.11856800  0.79256500  0.57109000  1
  C  1463  1  0.07153000  0.72701000  0.61892500  1
  C  1465  1  0.58472500  0.77804000  0.10513100  1
  C  1467  1  0.58949900  0.73884800  0.10222600  1
  C  1468  1  0.60542700  0.74133100  0.08529500  1
  C  1470  1  0.60117900  0.78084100  0.08852500  1
  C  1475  1  0.57023100  0.79506400  0.11043600  1
  C  1477  1  0.61055000  0.72367900  0.07153800  1
  C  1479  1  0.43460500  0.24129100  0.10513900  1
  C  1481  1  0.42982300  0.28048300  0.10221900  1
  C  1482  1  0.41388900  0.27799100  0.08529400  1
  C  1484  1  0.41814500  0.23848400  0.08854000  1
  C  1489  1  0.44911000  0.22427500  0.11044300  1
  C  1491  1  0.40876600  0.29563600  0.07153000  1
  C  1493  1  0.43460600  0.77805600  0.91420900  1
  C  1495  1  0.42977900  0.73888000  0.91711300  1
  C  1496  1  0.41381600  0.74137900  0.93402300  1
  C  1498  1  0.41813200  0.78089400  0.93077600  1
  C  1503  1  0.44917100  0.79501500  0.90888100  1
  C  1505  1  0.40874600  0.72370400  0.94776400  1
  C  1507  1  0.58472000  0.24127300  0.91419800  1
  C  1509  1  0.58960800  0.28045000  0.91702900  1
  C  1510  1  0.60552100  0.27797200  0.93398500  1
  C  1512  1  0.60115600  0.23844200  0.93080100  1
  C  1517  1  0.57015000  0.22432000  0.90886800  1
  C  1519  1  0.61059300  0.29559500  0.94778400  1
  C  1521  1  0.10513800  0.58470800  0.77802800  1
  C  1523  1  0.10222100  0.58948300  0.73883700  1
  C  1524  1  0.08529400  0.60541400  0.74132400  1
  C  1526  1  0.08853500  0.60116600  0.78083300  1
  C  1531  1  0.11044400  0.57021100  0.79504900  1
  C  1533  1  0.07153400  0.61053700  0.72367500  1
  C  1535  1  0.10514800  0.43463600  0.24129800  1
  C  1537  1  0.10221700  0.42973700  0.28047100  1
  C  1538  1  0.08529100  0.41380200  0.27796600  1
  C  1540  1  0.08852100  0.41821600  0.23844600  1
  C  1545  1  0.11046700  0.44918500  0.22432500  1
  C  1547  1  0.07146900  0.40871600  0.29556500  1
  C  1549  1  0.91419600  0.43459100  0.77805600  1
  C  1551  1  0.91709300  0.42975100  0.73888000  1
  C  1552  1  0.93400300  0.41378800  0.74138200  1
  C  1554  1  0.93076500  0.41811900  0.78089700  1
  C  1559  1  0.90887300  0.44916600  0.79500800  1
  C  1561  1  0.94774600  0.40872000  0.72370900  1
  C  1563  1  0.91418100  0.58473000  0.24127100  1
  C  1565  1  0.91702000  0.58964300  0.28044500  1
  C  1566  1  0.93397700  0.60555300  0.27795300  1
  C  1568  1  0.93078400  0.60116300  0.23842600  1
  C  1573  1  0.90885000  0.57014300  0.22433300  1
  C  1575  1  0.94779000  0.61062100  0.29556500  1
  C  1577  1  0.77802500  0.10513200  0.58470700  1
  C  1579  1  0.73883300  0.10222700  0.58947600  1
  C  1580  1  0.74131200  0.08529700  0.60540600  1
  C  1582  1  0.78082400  0.08852800  0.60116400  1
  C  1587  1  0.79505100  0.11043800  0.57021300  1
  C  1589  1  0.72365900  0.07154400  0.61053000  1
  C  1591  1  0.24129800  0.10514700  0.43461600  1
  C  1593  1  0.28048300  0.10224400  0.42978500  1
  C  1594  1  0.27799700  0.08531000  0.41385900  1
  C  1596  1  0.23848200  0.08852600  0.41818000  1
  C  1601  1  0.22429500  0.11045500  0.44913500  1
  C  1603  1  0.29561100  0.07151100  0.40874900  1
  C  1605  1  0.77805500  0.91420400  0.43460500  1
  C  1607  1  0.73888000  0.91711900  0.42975600  1
  C  1608  1  0.74139300  0.93402800  0.41379500  1
  C  1610  1  0.78090700  0.93077000  0.41813200  1
  C  1615  1  0.79500000  0.90887600  0.44918500  1
  C  1617  1  0.72372800  0.94778100  0.40872500  1
  C  1619  1  0.24127300  0.91418100  0.58473000  1
  C  1621  1  0.28044600  0.91702500  0.58964300  1
  C  1622  1  0.27795300  0.93398300  0.60555300  1
  C  1624  1  0.23842700  0.93078600  0.60116300  1
  C  1629  1  0.22433500  0.90885000  0.57014200  1
  C  1631  1  0.29556300  0.94779700  0.61062300  1
  C  1633  1  0.77802700  0.58470000  0.91418900  1
  C  1635  1  0.73883800  0.58949100  0.91711300  1
  C  1636  1  0.74133400  0.60542200  0.93403800  1
  C  1638  1  0.78084300  0.60115800  0.93079100  1
  C  1643  1  0.79504100  0.57019400  0.90888100  1
  C  1645  1  0.72369200  0.61055000  0.94780400  1
  C  1647  1  0.24128000  0.43459300  0.91418100  1
  C  1649  1  0.28047100  0.42982700  0.91710100  1
  C  1650  1  0.27798600  0.41389100  0.93402500  1
  C  1652  1  0.23847700  0.41813000  0.93077900  1
  C  1657  1  0.22425700  0.44909000  0.90887600  1
  C  1659  1  0.29563400  0.40876900  0.94778600  1
  C  1661  1  0.77806500  0.43459300  0.10511900  1
  C  1663  1  0.73889100  0.42972900  0.10224300  1
  C  1664  1  0.74137400  0.41377500  0.08532300  1
  C  1666  1  0.78090000  0.41814200  0.08853100  1
  C  1671  1  0.79501800  0.44916500  0.11044900  1
  C  1673  1  0.72371800  0.40871800  0.07155700  1
  C  1675  1  0.24126600  0.58472800  0.10511700  1
  C  1677  1  0.28044300  0.58961300  0.10228100  1
  C  1678  1  0.27796200  0.60553100  0.08532800  1
  C  1680  1  0.23843400  0.60116800  0.08851800  1
  C  1685  1  0.22431500  0.57015600  0.11044400  1
  C  1687  1  0.29558000  0.61060000  0.07152200  1
  C  1689  1  0.58471800  0.10512900  0.24128300  1
  C  1691  1  0.58947300  0.10221800  0.28047800  1
  C  1692  1  0.60540900  0.08529300  0.27800000  1
  C  1694  1  0.60117900  0.08852900  0.23848900  1
  C  1699  1  0.57023200  0.11043300  0.22425200  1
  C  1701  1  0.61053200  0.07154100  0.29565400  1
  C  1703  1  0.43461300  0.10512400  0.77803300  1
  C  1705  1  0.42985100  0.10221700  0.73884000  1
  C  1706  1  0.41391700  0.08529100  0.74131600  1
  C  1708  1  0.41815000  0.08852300  0.78082600  1
  C  1713  1  0.44910400  0.11043000  0.79506200  1
  C  1715  1  0.40879100  0.07154400  0.72365700  1
  C  1717  1  0.43461000  0.91419800  0.24127300  1
  C  1719  1  0.42976600  0.91710900  0.28044800  1
  C  1720  1  0.41380300  0.93401800  0.27793600  1
  C  1722  1  0.41813500  0.93076100  0.23842400  1
  C  1727  1  0.44918800  0.90887100  0.22432600  1
  C  1729  1  0.40873100  0.94776700  0.29560400  1
  C  1731  1  0.58473100  0.91419100  0.77805500  1
  C  1733  1  0.58963500  0.91703800  0.73888000  1
  C  1734  1  0.60554800  0.93399300  0.74137200  1
  C  1736  1  0.60116600  0.93079400  0.78089900  1
  C  1741  1  0.57015000  0.90886000  0.79499800  1
  C  1743  1  0.61061600  0.94780700  0.72376100  1
  C  1745  1  0.10513100  0.77804200  0.43458800  1
  C  1747  1  0.10223200  0.73884700  0.42983800  1
  C  1748  1  0.08530300  0.74131400  0.41390600  1
  C  1750  1  0.08852700  0.78082800  0.41812900  1
  C  1755  1  0.11043400  0.79507900  0.44906900  1
  C  1757  1  0.07155700  0.72365400  0.40878400  1
  C  1759  1  0.10512800  0.24128100  0.58472500  1
  C  1761  1  0.10222200  0.28047400  0.58948600  1
  C  1762  1  0.08529500  0.27799900  0.60542100  1
  C  1764  1  0.08852700  0.23848900  0.60118800  1
  C  1769  1  0.11042900  0.22425200  0.57023600  1
  C  1771  1  0.07154200  0.29565200  0.61054000  1
  C  1773  1  0.91419900  0.77804600  0.58470700  1
  C  1775  1  0.91711300  0.73887300  0.58956600  1
  C  1776  1  0.93402300  0.74139000  0.60552500  1
  C  1778  1  0.93076600  0.78090200  0.60117600  1
  C  1783  1  0.90887100  0.79498800  0.57012200  1
  C  1785  1  0.94777700  0.72372700  0.61059600  1
  C  1787  1  0.91419300  0.24126100  0.43459000  1
  C  1789  1  0.91702200  0.28043800  0.42971100  1
  C  1790  1  0.93398000  0.27796400  0.41379800  1
  C  1792  1  0.93079600  0.23843400  0.41815300  1
  C  1797  1  0.90886200  0.22430500  0.44915700  1
  C  1799  1  0.94778100  0.29558600  0.40873100  1
  N  44  1  0.38931700  0.30280700  0.06606600  1
  N  45  1  0.38195000  0.28813300  0.95751500  1
  N  46  1  0.28813600  0.38194100  0.06181400  1
  N  47  1  0.30280200  0.38932100  0.95325500  1
  N  91  1  0.62999900  0.71651600  0.06606300  1
  N  92  1  0.63736700  0.73119500  0.95752800  1
  N  93  1  0.73118700  0.63738100  0.06181500  1
  N  94  1  0.71651800  0.63000100  0.95325700  1
  N  138  1  0.63003200  0.30280200  0.95323600  1
  N  139  1  0.63737200  0.28812300  0.06179600  1
  N  140  1  0.73119200  0.38194000  0.95751200  1
  N  141  1  0.71652900  0.38928400  0.06606600  1
  N  185  1  0.38930900  0.71653400  0.95327200  1
  N  186  1  0.38194600  0.73119200  0.06180600  1
  N  187  1  0.28812900  0.63739100  0.95750000  1
  N  188  1  0.30279500  0.63003700  0.06607800  1
  N  232  1  0.06607000  0.38927400  0.30279900  1
  N  233  1  0.95750000  0.38193100  0.28813300  1
  N  234  1  0.06181100  0.28812000  0.38193800  1
  N  235  1  0.95323900  0.30279200  0.38929400  1
  N  279  1  0.06605900  0.62998600  0.71651300  1
  N  280  1  0.95751700  0.63736700  0.73118500  1
  N  281  1  0.06181100  0.73119500  0.63738500  1
  N  282  1  0.95325900  0.71653700  0.63003400  1
  N  326  1  0.95322200  0.63005800  0.30279200  1
  N  327  1  0.06180600  0.63738100  0.28812600  1
  N  328  1  0.95751200  0.73118500  0.38195100  1
  N  329  1  0.06605500  0.71650900  0.38933500  1
  N  373  1  0.95324900  0.38928300  0.71653100  1
  N  374  1  0.06179700  0.38194800  0.73119700  1
  N  375  1  0.95752300  0.28813400  0.63736500  1
  N  376  1  0.06606100  0.30281200  0.62998900  1
  N  420  1  0.30281200  0.06607900  0.38930200  1
  N  421  1  0.28813100  0.95751500  0.38194500  1
  N  422  1  0.38193800  0.06181100  0.28812800  1
  N  423  1  0.38929400  0.95325900  0.30278500  1
  N  467  1  0.71650800  0.06605600  0.62997900  1
  N  468  1  0.73119500  0.95753000  0.63736200  1
  N  469  1  0.63739000  0.06181400  0.73119200  1
  N  470  1  0.63005400  0.95323400  0.71653200  1
  N  514  1  0.30279200  0.95322200  0.63006000  1
  N  515  1  0.28812300  0.06179500  0.63738000  1
  N  516  1  0.38194100  0.95749800  0.73118500  1
  N  517  1  0.38934000  0.06605100  0.71651100  1
  N  561  1  0.71653900  0.95326200  0.38928700  1
  N  562  1  0.73119500  0.06180600  0.38194100  1
  N  563  1  0.63737700  0.95750200  0.28813800  1
  N  564  1  0.62998200  0.06605600  0.30280900  1
  N  608  1  0.88942600  0.80306400  0.56616300  1
  N  609  1  0.88201900  0.78831100  0.45738600  1
  N  610  1  0.78830800  0.88201700  0.56193800  1
  N  611  1  0.80306800  0.88942900  0.45315700  1
  N  655  1  0.12988100  0.21625000  0.56615500  1
  N  656  1  0.13728500  0.23100500  0.45740100  1
  N  657  1  0.23101000  0.13729100  0.56193500  1
  N  658  1  0.21626000  0.12990300  0.45316300  1
  N  702  1  0.12988700  0.80306900  0.45316500  1
  N  703  1  0.13729000  0.78831300  0.56193000  1
  N  704  1  0.23101000  0.88201900  0.45738600  1
  N  705  1  0.21625200  0.88940800  0.56618600  1
  N  749  1  0.88941600  0.21624000  0.45313700  1
  N  750  1  0.88202400  0.23101700  0.56192300  1
  N  751  1  0.78831400  0.13728600  0.45739600  1
  N  752  1  0.80305900  0.12988900  0.56614600  1
  N  796  1  0.56617900  0.88941400  0.80307100  1
  N  797  1  0.45739800  0.88202400  0.78830800  1
  N  798  1  0.56193700  0.78830600  0.88201900  1
  N  799  1  0.45316000  0.80306900  0.88943400  1
  N  843  1  0.56615300  0.12988500  0.21625200  1
  N  844  1  0.45739300  0.13728900  0.23100900  1
  N  845  1  0.56193000  0.23100500  0.13729100  1
  N  846  1  0.45316300  0.21625900  0.12989400  1
  N  890  1  0.45317500  0.12988400  0.80306300  1
  N  891  1  0.56191800  0.13728100  0.78830600  1
  N  892  1  0.45738300  0.23100900  0.88201500  1
  N  893  1  0.56617400  0.21625000  0.88942300  1
  N  937  1  0.45315000  0.88942600  0.21625200  1
  N  938  1  0.56193000  0.88202400  0.23101000  1
  N  939  1  0.45737300  0.78831900  0.13730200  1
  N  940  1  0.56615100  0.80306600  0.12988900  1
  N  984  1  0.80305800  0.56614300  0.88942900  1
  N  985  1  0.78831900  0.45737800  0.88202200  1
  N  986  1  0.88202400  0.56193000  0.78830600  1
  N  987  1  0.88942800  0.45314300  0.80307400  1
  N  1031  1  0.21625000  0.56617400  0.12989000  1
  N  1032  1  0.23101700  0.45739500  0.13729600  1
  N  1033  1  0.13730300  0.56193800  0.23101200  1
  N  1034  1  0.12991300  0.45316500  0.21626200  1
  N  1078  1  0.80308100  0.45314300  0.12989600  1
  N  1079  1  0.78830300  0.56192200  0.13729300  1
  N  1080  1  0.88202000  0.45738800  0.23101000  1
  N  1081  1  0.88940600  0.56618300  0.21625200  1
  N  1125  1  0.21624700  0.45315300  0.88942400  1
  N  1126  1  0.23101200  0.56192000  0.88203700  1
  N  1127  1  0.13728900  0.45739600  0.78831400  1
  N  1128  1  0.12989500  0.56615500  0.80306400  1
  N  1130  1  0.43955800  0.26471200  0.90940000  1
  N  1133  1  0.40830900  0.25406600  0.93885700  1
  N  1136  1  0.41369600  0.21514000  0.93261900  1
  N  1144  1  0.57976800  0.75460800  0.90940200  1
  N  1147  1  0.61101400  0.76525700  0.93886000  1
  N  1150  1  0.60562700  0.80418100  0.93262300  1
  N  1158  1  0.57976500  0.26470500  0.10991300  1
  N  1161  1  0.61101300  0.25405600  0.08045400  1
  N  1164  1  0.60561700  0.21513200  0.08668500  1
  N  1172  1  0.43954900  0.75461200  0.10992000  1
  N  1175  1  0.40831000  0.76525800  0.08045100  1
  N  1178  1  0.41370400  0.80418400  0.08668100  1
  N  1186  1  0.90940200  0.43955100  0.26471000  1
  N  1189  1  0.93885600  0.40829900  0.25406100  1
  N  1192  1  0.93261400  0.41368800  0.21513700  1
  N  1200  1  0.90941000  0.57975500  0.75460400  1
  N  1203  1  0.93886200  0.61100900  0.76525200  1
  N  1206  1  0.93262100  0.60562400  0.80417700  1
  N  1214  1  0.10992600  0.57977800  0.26471000  1
  N  1217  1  0.08046500  0.61102300  0.25406100  1
  N  1220  1  0.08669800  0.60562900  0.21513700  1
  N  1228  1  0.10992200  0.43954600  0.75461600  1
  N  1231  1  0.08045700  0.40830400  0.76526200  1
  N  1234  1  0.08668500  0.41370100  0.80418700  1
  N  1242  1  0.26471000  0.90939800  0.43955100  1
  N  1245  1  0.25406300  0.93885400  0.40830000  1
  N  1248  1  0.21513900  0.93261600  0.41368900  1
  N  1256  1  0.75460800  0.90940200  0.57976500  1
  N  1259  1  0.76525500  0.93886200  0.61100900  1
  N  1262  1  0.80418100  0.93262300  0.60562200  1
  N  1270  1  0.26470700  0.10991100  0.57977300  1
  N  1273  1  0.25405800  0.08045400  0.61102100  1
  N  1276  1  0.21513400  0.08668900  0.60562900  1
  N  1284  1  0.75461400  0.10991600  0.43954900  1
  N  1287  1  0.76526200  0.08045200  0.40830500  1
  N  1290  1  0.80418700  0.08668300  0.41370100  1
  N  1298  1  0.26471700  0.43955900  0.10991400  1
  N  1301  1  0.25406800  0.40830700  0.08046100  1
  N  1304  1  0.21514200  0.41369400  0.08670400  1
  N  1312  1  0.75460800  0.57976700  0.10991700  1
  N  1315  1  0.76525700  0.61102100  0.08046500  1
  N  1318  1  0.80418100  0.60563500  0.08670700  1
  N  1326  1  0.26470500  0.57977200  0.90940800  1
  N  1329  1  0.25405800  0.61102400  0.93886000  1
  N  1332  1  0.21513400  0.60563200  0.93262600  1
  N  1340  1  0.75461200  0.43954900  0.90940300  1
  N  1343  1  0.76525800  0.40830700  0.93886900  1
  N  1346  1  0.80418400  0.41370200  0.93263900  1
  N  1354  1  0.43955900  0.90940200  0.75460900  1
  N  1357  1  0.40830400  0.93885200  0.76525700  1
  N  1360  1  0.41368900  0.93261100  0.80418200  1
  N  1368  1  0.57975500  0.90941200  0.26471000  1
  N  1371  1  0.61101300  0.93885900  0.25406400  1
  N  1374  1  0.60562900  0.93261800  0.21514000  1
  N  1382  1  0.57976700  0.10990700  0.75461100  1
  N  1385  1  0.61102100  0.08045700  0.76526000  1
  N  1388  1  0.60562900  0.08669300  0.80418600  1
  N  1396  1  0.43954900  0.10991600  0.26470900  1
  N  1399  1  0.40830500  0.08045400  0.25406100  1
  N  1402  1  0.41370100  0.08668600  0.21513500  1
  N  1410  1  0.90939800  0.26471500  0.57976700  1
  N  1413  1  0.93885700  0.25406900  0.61101400  1
  N  1416  1  0.93261800  0.21514400  0.60562900  1
  N  1424  1  0.90940200  0.75460800  0.43955900  1
  N  1427  1  0.93885600  0.76525300  0.40830700  1
  N  1430  1  0.93261900  0.80417700  0.41369400  1
  N  1438  1  0.10990400  0.26470200  0.43956100  1
  N  1441  1  0.08045500  0.25405100  0.40830700  1
  N  1444  1  0.08669400  0.21512700  0.41369800  1
  N  1452  1  0.10992200  0.75461400  0.57977800  1
  N  1455  1  0.08045600  0.76526000  0.61101900  1
  N  1458  1  0.08668600  0.80418600  0.60562400  1
  N  1466  1  0.57944600  0.75699100  0.11087700  1
  N  1469  1  0.61015400  0.76235700  0.07906500  1
  N  1472  1  0.60640200  0.80215300  0.08034700  1
  N  1480  1  0.43988100  0.26234400  0.11087300  1
  N  1483  1  0.40916400  0.25696100  0.07907400  1
  N  1486  1  0.41293100  0.21716400  0.08037800  1
  N  1494  1  0.43988800  0.75700400  0.90848300  1
  N  1497  1  0.40913400  0.76242100  0.94023300  1
  N  1500  1  0.41296600  0.80222000  0.93894800  1
  N  1508  1  0.57947900  0.26232200  0.90842600  1
  N  1511  1  0.61014700  0.25692700  0.94024300  1
  N  1514  1  0.60628900  0.21713100  0.93903100  1
  N  1522  1  0.11087600  0.57943000  0.75697800  1
  N  1525  1  0.07907100  0.61014200  0.76235200  1
  N  1528  1  0.08036500  0.60639000  0.80214800  1
  N  1536  1  0.11088400  0.43984300  0.26236500  1
  N  1539  1  0.07905700  0.40920200  0.25690700  1
  N  1542  1  0.08032500  0.41308800  0.21711900  1
  N  1550  1  0.90846700  0.43986500  0.75700200  1
  N  1553  1  0.94021800  0.40911400  0.76242600  1
  N  1556  1  0.93894000  0.41296100  0.80222400  1
  N  1564  1  0.90841600  0.57950300  0.26232500  1
  N  1567  1  0.94023100  0.61016400  0.25690200  1
  N  1570  1  0.93900900  0.60628100  0.21710900  1
  N  1578  1  0.75697800  0.11087700  0.57942700  1
  N  1581  1  0.76233800  0.07906800  0.61013700  1
  N  1584  1  0.80213400  0.08035100  0.60639000  1
  N  1592  1  0.26235200  0.11089800  0.43986000  1
  N  1595  1  0.25695800  0.07906800  0.40919000  1
  N  1598  1  0.21716400  0.08033600  0.41300400  1
  N  1606  1  0.75699700  0.90848500  0.43987500  1
  N  1609  1  0.76244100  0.94023100  0.40912600  1
  N  1612  1  0.80223900  0.93893600  0.41298100  1
  N  1620  1  0.26232900  0.90841700  0.57950300  1
  N  1623  1  0.25690200  0.94023500  0.61016400  1
  N  1626  1  0.21710900  0.93901100  0.60627900  1
  N  1634  1  0.75697400  0.57943000  0.90845500  1
  N  1637  1  0.76236500  0.61014100  0.94025800  1
  N  1640  1  0.80215900  0.60637200  0.93895800  1
  N  1648  1  0.26232900  0.43987800  0.90844700  1
  N  1651  1  0.25696000  0.40915600  0.94024500  1
  N  1654  1  0.21716000  0.41290800  0.93894000  1
  N  1662  1  0.75701400  0.43984800  0.11086800  1
  N  1665  1  0.76242300  0.40914100  0.07908700  1
  N  1668  1  0.80222200  0.41300600  0.08032600  1
  N  1676  1  0.26231700  0.57948400  0.11088400  1
  N  1679  1  0.25691700  0.61015900  0.07907500  1
  N  1682  1  0.21712100  0.60630200  0.08029400  1
  N  1690  1  0.57942800  0.11086900  0.26233000  1
  N  1693  1  0.61014900  0.07906900  0.25697600  1
  N  1696  1  0.60641500  0.08035600  0.21717800  1
  N  1704  1  0.43990000  0.11086700  0.75698700  1
  N  1707  1  0.40917900  0.07906400  0.76234000  1
  N  1710  1  0.41292100  0.08035600  0.80214100  1
  N  1718  1  0.43988300  0.90847700  0.26232900  1
  N  1721  1  0.40912900  0.94022300  0.25689000  1
  N  1724  1  0.41298100  0.93893000  0.21709300  1
  N  1732  1  0.57949900  0.90843100  0.75700100  1
  N  1735  1  0.61016400  0.94024500  0.76242300  1
  N  1738  1  0.60628800  0.93901600  0.80221700  1
  N  1746  1  0.11087900  0.75699700  0.43988000  1
  N  1749  1  0.07907200  0.76233700  0.40916400  1
  N  1752  1  0.08034700  0.80213400  0.41289000  1
  N  1760  1  0.11087100  0.26232700  0.57943800  1
  N  1763  1  0.07906800  0.25697400  0.61015700  1
  N  1766  1  0.08035600  0.21717500  0.60641300  1
  N  1774  1  0.90848000  0.75698900  0.57944100  1
  N  1777  1  0.94023000  0.76243800  0.61018700  1
  N  1780  1  0.93893500  0.80223500  0.60632200  1
  N  1788  1  0.90842100  0.26230900  0.43983500  1
  N  1791  1  0.94023800  0.25692000  0.40916700  1
  N  1794  1  0.93902600  0.21712200  0.41301700  1
  O  1137  1  0.41675000  0.21092600  0.95269400  1
  O  1138  1  0.39371400  0.21167700  0.92827400  1
  O  1151  1  0.60257000  0.80839600  0.95269600  1
  O  1152  1  0.62560900  0.80764600  0.92827900  1
  O  1165  1  0.60256000  0.21092200  0.06660900  1
  O  1166  1  0.62559800  0.21166200  0.09102800  1
  O  1179  1  0.41676300  0.80839400  0.06660600  1
  O  1180  1  0.39372200  0.80765200  0.09102300  1
  O  1193  1  0.95268900  0.41674000  0.21092100  1
  O  1194  1  0.92826700  0.39370500  0.21167400  1
  O  1207  1  0.95269600  0.60257200  0.80839400  1
  O  1208  1  0.92827400  0.62560400  0.80763900  1
  O  1221  1  0.06662300  0.60257200  0.21092600  1
  O  1222  1  0.09104000  0.62561100  0.21166900  1
  O  1235  1  0.06660900  0.41676000  0.80839600  1
  O  1236  1  0.09102600  0.39371900  0.80765700  1
  O  1249  1  0.21092200  0.95269100  0.41674300  1
  O  1250  1  0.21167500  0.92827100  0.39370500  1
  O  1263  1  0.80839600  0.95269700  0.60256700  1
  O  1264  1  0.80764400  0.92827900  0.62560400  1
  O  1277  1  0.21092100  0.06661400  0.60257300  1
  O  1278  1  0.21166700  0.09103300  0.62561100  1
  O  1291  1  0.80839700  0.06660800  0.41675800  1
  O  1292  1  0.80765600  0.09102500  0.39371900  1
  O  1305  1  0.21092400  0.41674500  0.06663000  1
  O  1306  1  0.21168000  0.39371200  0.09105300  1
  O  1319  1  0.80839700  0.60258100  0.06663300  1
  O  1320  1  0.80764200  0.62561700  0.09105300  1
  O  1333  1  0.21092100  0.60258000  0.95270100  1
  O  1334  1  0.21166700  0.62561400  0.92827900  1
  O  1347  1  0.80839400  0.41676000  0.95271400  1
  O  1348  1  0.80765400  0.39372000  0.92829500  1
  O  1361  1  0.41674100  0.95268600  0.80839900  1
  O  1362  1  0.39370900  0.92826400  0.80764400  1
  O  1375  1  0.60258000  0.95269200  0.21092200  1
  O  1376  1  0.62561100  0.92826700  0.21168000  1
  O  1389  1  0.60257700  0.06661800  0.80839900  1
  O  1390  1  0.62560900  0.09104100  0.80765100  1
  O  1403  1  0.41675600  0.06661000  0.21092600  1
  O  1404  1  0.39371900  0.09102900  0.21166700  1
  O  1417  1  0.95269200  0.21092900  0.60257300  1
  O  1418  1  0.92827400  0.21168000  0.62561100  1
  O  1431  1  0.95269400  0.80839200  0.41674600  1
  O  1432  1  0.92827200  0.80764100  0.39371200  1
  O  1445  1  0.06661900  0.21091100  0.41674800  1
  O  1446  1  0.09104300  0.21166200  0.39371500  1
  O  1459  1  0.06661100  0.80839600  0.60256500  1
  O  1460  1  0.09102700  0.80765600  0.62560600  1
  O  1473  1  0.61657000  0.80203500  0.06223000  1
  O  1474  1  0.61877300  0.81164700  0.09401000  1
  O  1487  1  0.40277400  0.21726800  0.06225400  1
  O  1488  1  0.40054900  0.20768200  0.09404100  1
  O  1501  1  0.40275100  0.80212600  0.95703900  1
  O  1502  1  0.40065700  0.81176300  0.92526200  1
  O  1515  1  0.61651100  0.21725300  0.95711700  1
  O  1516  1  0.61857800  0.20753000  0.92536600  1
  O  1529  1  0.06224900  0.61655900  0.80203500  1
  O  1530  1  0.09403200  0.61876200  0.81163600  1
  O  1543  1  0.06220000  0.40293400  0.21721000  1
  O  1544  1  0.09396900  0.40073800  0.20756800  1
  O  1557  1  0.95703100  0.40274600  0.80213000  1
  O  1558  1  0.92525500  0.40065500  0.81177300  1
  O  1571  1  0.95709700  0.61650100  0.21722100  1
  O  1572  1  0.92534400  0.61856500  0.20750400  1
  O  1585  1  0.80201700  0.06223600  0.61656200  1
  O  1586  1  0.81162800  0.09401600  0.61876200  1
  O  1599  1  0.21727300  0.06221100  0.40285000  1
  O  1600  1  0.20764200  0.09398300  0.40063400  1
  O  1613  1  0.80215400  0.95702600  0.40276400  1
  O  1614  1  0.81178500  0.92524700  0.40067800  1
  O  1627  1  0.21722000  0.95709900  0.61649900  1
  O  1628  1  0.20750400  0.92534600  0.61856400  1
  O  1641  1  0.80205500  0.61654400  0.95707200  1
  O  1642  1  0.81165200  0.61873700  0.92528800  1
  O  1655  1  0.21726800  0.40275600  0.95706700  1
  O  1656  1  0.20768500  0.40051800  0.92528000  1
  O  1669  1  0.80211300  0.40279700  0.06223100  1
  O  1670  1  0.81179800  0.40070100  0.09399300  1
  O  1683  1  0.21724100  0.61652600  0.06220700  1
  O  1684  1  0.20752300  0.61859300  0.09396000  1
  O  1697  1  0.61658500  0.06224000  0.21729700  1
  O  1698  1  0.61879200  0.09402200  0.20769400  1
  O  1711  1  0.40276400  0.06223400  0.80202500  1
  O  1712  1  0.40053500  0.09401800  0.81161900  1
  O  1725  1  0.40276300  0.95701900  0.21718000  1
  O  1726  1  0.40067700  0.92524000  0.20754700  1
  O  1739  1  0.61650700  0.95710400  0.80210500  1
  O  1740  1  0.61857500  0.92534900  0.81181600  1
  O  1753  1  0.06222800  0.80200900  0.40272600  1
  O  1754  1  0.09400800  0.81161900  0.40050800  1
  O  1767  1  0.06223100  0.21729100  0.61656500  1
  O  1768  1  0.09401400  0.20769500  0.61880300  1
  O  1781  1  0.95702400  0.80215100  0.61654200  1
  O  1782  1  0.92524500  0.81178600  0.61862100  1
  O  1795  1  0.95711200  0.21724800  0.40279600  1
  O  1796  1  0.92536200  0.20752500  0.40072300  1
