# generated using pymatgen
data_H24C37(N2O)2
_symmetry_space_group_name_H-M   'P 1'
_cell_length_a   25.84275000
_cell_length_b   44.76095601
_cell_length_c   74.60480000
_cell_angle_alpha   90.00000000
_cell_angle_beta   90.00000000
_cell_angle_gamma   90.00000000
_symmetry_Int_Tables_number   1
_chemical_formula_structural   H24C37(N2O)2
_chemical_formula_sum   'H576 C888 N96 O48'
_cell_volume   86298.81859272
_cell_formula_units_Z   24
loop_
 _symmetry_equiv_pos_site_id
 _symmetry_equiv_pos_as_xyz
  1  'x, y, z'
loop_
 _atom_site_type_symbol
 _atom_site_label
 _atom_site_symmetry_multiplicity
 _atom_site_fract_x
 _atom_site_fract_y
 _atom_site_fract_z
 _atom_site_occupancy
  C  1  1  0.33946400  0.14547600  0.07748400  1
  C  2  1  0.29824500  0.12722700  0.07122900  1
  C  3  1  0.34788600  0.08059100  0.07770200  1
  C  4  1  0.39217200  0.09730500  0.08295700  1
  C  5  1  0.43669500  0.08057000  0.08815900  1
  C  6  1  0.43606100  0.04885600  0.08910400  1
  C  7  1  0.39045200  0.03346300  0.08449200  1
  C  8  1  0.34716400  0.04913000  0.07859700  1
  C  9  1  0.25066800  0.13961700  0.06584000  1
  C  10  1  0.24149700  0.17009900  0.06758800  1
  C  11  1  0.27954000  0.18969400  0.07446900  1
  C  12  1  0.32864400  0.17683800  0.07878400  1
  C  13  1  0.39868100  0.14072200  0.10295600  1
  C  14  1  0.43423800  0.16391300  0.10722000  1
  C  15  1  0.46699300  0.16589000  0.07562800  1
  C  16  1  0.43308700  0.14264000  0.07005400  1
  C  17  1  0.50463000  0.17780900  0.06401500  1
  C  18  1  0.51271300  0.16544800  0.04715300  1
  C  19  1  0.48296800  0.14114500  0.04082500  1
  C  20  1  0.44151400  0.13124800  0.05219200  1
  C  21  1  0.36999600  0.12840100  0.11774200  1
  C  22  1  0.37673700  0.13828600  0.13578600  1
  C  23  1  0.41301400  0.16125900  0.13895000  1
  C  24  1  0.44051800  0.17422700  0.12493300  1
  C  37  1  0.39111600  0.13146700  0.08321900  1
  C  38  1  0.46677600  0.17882100  0.09376000  1
  C  41  1  0.30049700  0.09446100  0.07079300  1
  C  44  1  0.63508000  0.09887100  0.74335600  1
  C  45  1  0.68274200  0.08912500  0.73581200  1
  C  46  1  0.72651300  0.13662200  0.74438700  1
  C  47  1  0.67870200  0.14972500  0.74963600  1
  C  48  1  0.68062600  0.18030100  0.75503500  1
  C  49  1  0.72812300  0.19623000  0.75624000  1
  C  50  1  0.77463500  0.18150000  0.75193400  1
  C  51  1  0.77374100  0.15217000  0.74583000  1
  C  52  1  0.68880400  0.06028300  0.72857900  1
  C  53  1  0.64976900  0.03916400  0.73033300  1
  C  54  1  0.60355500  0.04599800  0.73951200  1
  C  55  1  0.59608500  0.07623800  0.74517300  1
  C  56  1  0.61051000  0.13016900  0.76933300  1
  C  57  1  0.55791800  0.13639300  0.77357600  1
  C  58  1  0.53868000  0.15210100  0.74208200  1
  C  59  1  0.59053300  0.14683800  0.73649600  1
  C  60  1  0.50197400  0.16530300  0.73060300  1
  C  61  1  0.51639000  0.17584100  0.71381200  1
  C  62  1  0.56762700  0.17308600  0.70741400  1
  C  63  1  0.60324600  0.15708700  0.71867800  1
  C  64  1  0.64320800  0.12218700  0.78419600  1
  C  65  1  0.62491800  0.12095900  0.80225300  1
  C  66  1  0.57230600  0.12762300  0.80535900  1
  C  67  1  0.53919100  0.13464100  0.79128700  1
  C  80  1  0.62857700  0.13144200  0.74961700  1
  C  81  1  0.51931000  0.14521100  0.76013600  1
  C  84  1  0.73035500  0.10687000  0.73635400  1
  C  87  1  0.55499300  0.26849500  0.41075400  1
  C  88  1  0.54823000  0.29823300  0.40450900  1
  C  89  1  0.45345200  0.29672700  0.41097800  1
  C  90  1  0.45638500  0.26623000  0.41623700  1
  C  91  1  0.40902700  0.25233800  0.42144800  1
  C  92  1  0.36177800  0.26851300  0.42240200  1
  C  93  1  0.36149300  0.29901700  0.41779500  1
  C  94  1  0.40661600  0.31281300  0.41186800  1
  C  95  1  0.59060100  0.31581800  0.39910700  1
  C  96  1  0.64090400  0.30514100  0.40081700  1
  C  97  1  0.65128300  0.27633900  0.40772600  1
  C  98  1  0.60744400  0.25822100  0.41204900  1
  C  99  1  0.51826400  0.24125300  0.43622500  1
  C  100  1  0.53530500  0.21188200  0.44048100  1
  C  101  1  0.52184500  0.19452800  0.40888900  1
  C  102  1  0.50391400  0.22311000  0.40332300  1
  C  103  1  0.52089300  0.16975800  0.39726900  1
  C  104  1  0.49828000  0.17190600  0.38041100  1
  C  105  1  0.47670700  0.19893600  0.37409400  1
  C  106  1  0.48259300  0.22460400  0.38546500  1
  C  107  1  0.51414800  0.26175300  0.45101400  1
  C  108  1  0.52563900  0.25343800  0.46905400  1
  C  109  1  0.54198600  0.22381300  0.47221100  1
  C  110  1  0.54767500  0.20358400  0.45819000  1
  C  123  1  0.50815400  0.24967500  0.41649200  1
  C  124  1  0.54138600  0.18816500  0.42701600  1
  C  127  1  0.49794400  0.31347900  0.40405500  1
  C  130  1  0.17246400  0.35985400  0.07956100  1
  C  131  1  0.21769700  0.37480000  0.07344200  1
  C  132  1  0.17665500  0.42467400  0.07826900  1
  C  133  1  0.12881100  0.41133000  0.08321500  1
  C  134  1  0.08716400  0.43117500  0.08725100  1
  C  135  1  0.09305000  0.46280800  0.08707500  1
  C  136  1  0.14247100  0.47455000  0.08315400  1
  C  137  1  0.18332700  0.45588900  0.07848700  1
  C  138  1  0.26289900  0.35897400  0.06875500  1
  C  139  1  0.26541500  0.32810800  0.07089300  1
  C  140  1  0.22286600  0.31203800  0.07771300  1
  C  141  1  0.17660500  0.32812300  0.08153300  1
  C  142  1  0.11324200  0.37025100  0.10437900  1
  C  143  1  0.07294500  0.35005500  0.10906300  1
  C  144  1  0.04247500  0.34676000  0.07725700  1
  C  145  1  0.08040500  0.36755900  0.07130800  1
  C  146  1  0.00411100  0.33565700  0.06564300  1
  C  147  1  0.99914700  0.34686500  0.04835800  1
  C  148  1  0.03267300  0.36917900  0.04168100  1
  C  149  1  0.07487100  0.37784100  0.05307600  1
  C  150  1  0.14415500  0.38136600  0.11896600  1
  C  151  1  0.13483800  0.37333900  0.13720300  1
  C  152  1  0.09349200  0.35363900  0.14080200  1
  C  153  1  0.06367600  0.34180700  0.12700300  1
  C  166  1  0.12343400  0.37736900  0.08446700  1
  C  167  1  0.03874700  0.33591800  0.09581600  1
  C  170  1  0.22199800  0.40744900  0.07247600  1
  C  173  1  0.89398000  0.40874000  0.74619200  1
  C  174  1  0.84890100  0.42386700  0.74009500  1
  C  175  1  0.79457900  0.37843300  0.74497900  1
  C  176  1  0.83854400  0.36116500  0.74987700  1
  C  177  1  0.82960000  0.33041500  0.75389800  1
  C  178  1  0.77918200  0.31758000  0.75378500  1
  C  179  1  0.73683000  0.33644300  0.74995100  1
  C  180  1  0.74440000  0.36619200  0.74526300  1
  C  181  1  0.85001800  0.45437400  0.73539300  1
  C  182  1  0.89507600  0.47107600  0.73747800  1
  C  183  1  0.94052700  0.45790600  0.74429700  1
  C  184  1  0.93949900  0.42672000  0.74814000  1
  C  185  1  0.90800000  0.37391100  0.77101600  1
  C  186  1  0.95849000  0.36391300  0.77567800  1
  C  187  1  0.97856400  0.35028300  0.74387500  1
  C  188  1  0.92836100  0.35879900  0.73794200  1
  C  189  1  0.01436600  0.33662200  0.73226300  1
  C  190  1  0.99994400  0.32840900  0.71500900  1
  C  191  1  0.94964100  0.33390300  0.70836500  1
  C  192  1  0.91562300  0.35078600  0.71973000  1
  C  193  1  0.87584400  0.38368700  0.78562700  1
  C  194  1  0.89262200  0.38309100  0.80385700  1
  C  195  1  0.94287300  0.37228400  0.80743000  1
  C  196  1  0.97554400  0.36338600  0.79361400  1
  C  209  1  0.89219200  0.37545500  0.75110600  1
  C  210  1  0.99678000  0.35392200  0.76241800  1
  C  213  1  0.79775700  0.40969900  0.73915900  1
  C  216  1  0.96010300  0.24482500  0.41283800  1
  C  217  1  0.95992600  0.21473800  0.40671400  1
  C  218  1  0.05523200  0.21030700  0.41159700  1
  C  219  1  0.05912900  0.24090200  0.41654200  1
  C  220  1  0.10971200  0.25180400  0.42058600  1
  C  221  1  0.15420400  0.23303100  0.42045700  1
  C  222  1  0.14711100  0.20244800  0.41654300  1
  C  223  1  0.09871100  0.19135800  0.41184200  1
  C  224  1  0.91359800  0.20005300  0.40200900  1
  C  225  1  0.86603400  0.21422800  0.40413200  1
  C  226  1  0.86318200  0.24352900  0.41096300  1
  C  227  1  0.91043000  0.25861800  0.41479800  1
  C  228  1  0.00521000  0.26923300  0.43767600  1
  C  229  1  0.99499800  0.29947800  0.44235100  1
  C  230  1  0.00561300  0.31637000  0.41055900  1
  C  231  1  0.01775700  0.28699100  0.40461200  1
  C  232  1  0.00827400  0.34110300  0.39894800  1
  C  233  1  0.02765600  0.33796700  0.38167700  1
  C  234  1  0.04424200  0.31002500  0.37500000  1
  C  235  1  0.03597800  0.28459900  0.38638400  1
  C  236  1  0.00636300  0.24822300  0.45226500  1
  C  237  1  0.99873700  0.25688000  0.47049100  1
  C  238  1  0.98976000  0.28739600  0.47408100  1
  C  239  1  0.98703600  0.30822400  0.46028200  1
  C  252  1  0.01087900  0.26057800  0.41776800  1
  C  253  1  0.99104800  0.32365300  0.42910300  1
  C  256  1  0.00674700  0.19626000  0.40576900  1
  C  259  1  0.05511600  0.23976500  0.59759300  1
  C  260  1  0.04865800  0.20993500  0.60371300  1
  C  261  1  0.95366500  0.21130800  0.59751500  1
  C  262  1  0.95636900  0.24183800  0.59233100  1
  C  263  1  0.90886300  0.25578300  0.58735100  1
  C  264  1  0.86158300  0.23964000  0.58656600  1
  C  265  1  0.86145200  0.20909000  0.59105600  1
  C  266  1  0.90680300  0.19522200  0.59673800  1
  C  267  1  0.09129600  0.19238300  0.60888700  1
  C  268  1  0.14148800  0.20319300  0.60705500  1
  C  269  1  0.15157300  0.23212400  0.60027700  1
  C  270  1  0.10746400  0.25019600  0.59617500  1
  C  271  1  0.01733300  0.26786800  0.57260800  1
  C  272  1  0.03164300  0.29782700  0.56862600  1
  C  273  1  0.02060800  0.31348300  0.60069500  1
  C  274  1  0.00348800  0.28450500  0.60574400  1
  C  275  1  0.02012000  0.33743000  0.61294600  1
  C  276  1  0.99897300  0.33396500  0.62999000  1
  C  277  1  0.97759000  0.30651700  0.63572100  1
  C  278  1  0.98242300  0.28186400  0.62354600  1
  C  279  1  0.01443200  0.24762900  0.55768000  1
  C  280  1  0.02373400  0.25686200  0.53967300  1
  C  281  1  0.03605400  0.28715700  0.53666000  1
  C  282  1  0.04122400  0.30709600  0.55087600  1
  C  295  1  0.00794300  0.25856900  0.59219400  1
  C  296  1  0.03801400  0.32101000  0.58245200  1
  C  299  1  0.99841300  0.19461600  0.60430800  1
  C  302  1  0.83884000  0.36343700  0.93095400  1
  C  303  1  0.79740100  0.38158700  0.93713200  1
  C  304  1  0.84691800  0.42839400  0.93087300  1
  C  305  1  0.89131000  0.41177000  0.92564600  1
  C  306  1  0.93595000  0.42854100  0.92062200  1
  C  307  1  0.93537900  0.46025000  0.91980600  1
  C  308  1  0.88968500  0.47559800  0.92437100  1
  C  309  1  0.84625000  0.45986800  0.93010500  1
  C  310  1  0.74981700  0.36904700  0.94237500  1
  C  311  1  0.74087800  0.33855400  0.94052200  1
  C  312  1  0.77912700  0.31905100  0.93366800  1
  C  313  1  0.82826400  0.33205700  0.92952000  1
  C  314  1  0.89968500  0.36828500  0.90590800  1
  C  315  1  0.93745100  0.34616300  0.90188300  1
  C  316  1  0.96675100  0.34386900  0.93392300  1
  C  317  1  0.93180400  0.36686900  0.93901800  1
  C  318  1  0.00300900  0.33214200  0.94614200  1
  C  319  1  0.00847000  0.34443400  0.96318900  1
  C  320  1  0.97793200  0.36879700  0.96896200  1
  C  321  1  0.93840300  0.37866900  0.95682900  1
  C  322  1  0.87062400  0.37984900  0.89101500  1
  C  323  1  0.87962500  0.37056900  0.87300000  1
  C  324  1  0.91881200  0.34921700  0.86994300  1
  C  325  1  0.94633200  0.33670400  0.88412600  1
  C  338  1  0.89059100  0.37761900  0.92550400  1
  C  339  1  0.96922500  0.33142500  0.91567300  1
  C  342  1  0.79957200  0.41437000  0.93772700  1
  C  345  1  0.13232600  0.40981900  0.26421800  1
  C  346  1  0.18026200  0.42149700  0.27037900  1
  C  347  1  0.22574800  0.37333200  0.26416700  1
  C  348  1  0.17862500  0.35942100  0.25895500  1
  C  349  1  0.18149300  0.32870200  0.25396500  1
  C  350  1  0.22935800  0.31314400  0.25315900  1
  C  351  1  0.27521700  0.32835100  0.25769900  1
  C  352  1  0.27331300  0.35795100  0.26339900  1
  C  353  1  0.18523100  0.45158100  0.27557800  1
  C  354  1  0.14394200  0.47127900  0.27371000  1
  C  355  1  0.09553500  0.46186300  0.26690100  1
  C  356  1  0.09050800  0.43077700  0.26278500  1
  C  357  1  0.10920100  0.37690900  0.23920200  1
  C  358  1  0.05714800  0.36905200  0.23517900  1
  C  359  1  0.03901500  0.35568300  0.26723400  1
  C  360  1  0.09100000  0.36163200  0.27232300  1
  C  361  1  0.00327500  0.34345600  0.27945800  1
  C  362  1  0.01895500  0.33462400  0.29651600  1
  C  363  1  0.07076900  0.33768300  0.30228900  1
  C  364  1  0.10539200  0.35243700  0.29013700  1
  C  365  1  0.14107100  0.38562900  0.22429900  1
  C  366  1  0.12265600  0.38571400  0.20628300  1
  C  367  1  0.07111600  0.37664500  0.20322800  1
  C  368  1  0.03855200  0.36922600  0.21741800  1
  C  381  1  0.12774000  0.37684000  0.25880000  1
  C  382  1  0.01913300  0.36060000  0.24897600  1
  C  385  1  0.22837200  0.40404200  0.27097900  1
  C  388  1  0.46054000  0.26456100  0.59571500  1
  C  389  1  0.46016600  0.29460300  0.60190800  1
  C  390  1  0.55549900  0.29931000  0.59705000  1
  C  391  1  0.55955200  0.26876100  0.59205100  1
  C  392  1  0.61016600  0.25790300  0.58804300  1
  C  393  1  0.65458700  0.27671200  0.58813700  1
  C  394  1  0.64740900  0.30726600  0.59213200  1
  C  395  1  0.59894600  0.31829300  0.59684900  1
  C  396  1  0.41369700  0.30912000  0.60661500  1
  C  397  1  0.36624300  0.29486600  0.60437000  1
  C  398  1  0.36351700  0.26563100  0.59740400  1
  C  399  1  0.41097200  0.25068500  0.59360900  1
  C  400  1  0.50644500  0.23960200  0.57118200  1
  C  401  1  0.49878400  0.20900700  0.56675700  1
  C  402  1  0.50770800  0.19329900  0.59888000  1
  C  403  1  0.51873500  0.22301200  0.60441800  1
  C  404  1  0.51034000  0.16918700  0.61097700  1
  C  405  1  0.52808800  0.17341300  0.62841100  1
  C  406  1  0.54379900  0.20179000  0.63467100  1
  C  407  1  0.53641800  0.22640100  0.62261200  1
  C  408  1  0.50644800  0.26034100  0.55646400  1
  C  409  1  0.50069200  0.25106300  0.53828500  1
  C  410  1  0.49527700  0.22022400  0.53485700  1
  C  411  1  0.49314100  0.19964600  0.54882700  1
  C  424  1  0.51153400  0.24890700  0.59096500  1
  C  425  1  0.49499400  0.18518100  0.58028200  1
  C  428  1  0.50692900  0.31314800  0.60299400  1
  C  431  1  0.67310300  0.14838000  0.92903300  1
  C  432  1  0.71837800  0.13356700  0.93522200  1
  C  433  1  0.67775100  0.08352800  0.93043900  1
  C  434  1  0.62990900  0.09676400  0.92541800  1
  C  435  1  0.58831300  0.07688000  0.92142500  1
  C  436  1  0.59430400  0.04526700  0.92155500  1
  C  437  1  0.64370200  0.03358100  0.92558000  1
  C  438  1  0.68447100  0.05231000  0.93029200  1
  C  439  1  0.76341100  0.14956200  0.93988500  1
  C  440  1  0.76572100  0.18041600  0.93762500  1
  C  441  1  0.72318400  0.19636900  0.93067600  1
  C  442  1  0.67702800  0.18010100  0.92691600  1
  C  443  1  0.61260700  0.13786400  0.90453500  1
  C  444  1  0.57045500  0.15694000  0.90013300  1
  C  445  1  0.54265000  0.16040700  0.93228100  1
  C  446  1  0.58173600  0.14003900  0.93779500  1
  C  447  1  0.50524900  0.17116800  0.94440300  1
  C  448  1  0.50278400  0.16017900  0.96184100  1
  C  449  1  0.53750300  0.13812000  0.96807300  1
  C  450  1  0.57803100  0.12949000  0.95598800  1
  C  451  1  0.64364900  0.12750000  0.88979800  1
  C  452  1  0.63250500  0.13498400  0.87161700  1
  C  453  1  0.58875900  0.15296800  0.86821600  1
  C  454  1  0.55905200  0.16435300  0.88220200  1
  C  467  1  0.62411800  0.13069500  0.92431700  1
  C  468  1  0.53670300  0.17077800  0.91367700  1
  C  471  1  0.72280200  0.10091500  0.93635700  1
  C  474  1  0.39239800  0.10014300  0.26236700  1
  C  475  1  0.34752600  0.08493700  0.26856300  1
  C  476  1  0.29280300  0.13026000  0.26372000  1
  C  477  1  0.33660700  0.14756100  0.25872900  1
  C  478  1  0.32759800  0.17830100  0.25472800  1
  C  479  1  0.27718600  0.19112100  0.25484300  1
  C  480  1  0.23493400  0.17225400  0.25881900  1
  C  481  1  0.24261200  0.14250000  0.26352500  1
  C  482  1  0.34896300  0.05442900  0.27323700  1
  C  483  1  0.39406300  0.03782400  0.27097500  1
  C  484  1  0.43928600  0.05108700  0.26402300  1
  C  485  1  0.43798900  0.08229600  0.26024900  1
  C  486  1  0.40688900  0.13561800  0.23785600  1
  C  487  1  0.45660900  0.14710000  0.23343800  1
  C  488  1  0.47574400  0.15931700  0.26557400  1
  C  489  1  0.42563500  0.15000000  0.27109900  1
  C  490  1  0.51061000  0.17264700  0.27768500  1
  C  491  1  0.49538800  0.17939300  0.29512300  1
  C  492  1  0.44493400  0.17309500  0.30136500  1
  C  493  1  0.41168400  0.15716100  0.28928800  1
  C  494  1  0.37579400  0.12525300  0.22313700  1
  C  495  1  0.39253600  0.12709100  0.20495300  1
  C  496  1  0.44148200  0.13983700  0.20153100  1
  C  497  1  0.47343500  0.14902000  0.21550500  1
  C  510  1  0.39039100  0.13347400  0.25763800  1
  C  511  1  0.49426000  0.15707100  0.24697100  1
  C  514  1  0.29632100  0.09904500  0.26964500  1
  C  517  1  0.36382500  0.11878100  0.18928500  1
  C  519  1  0.32806600  0.14470200  0.16376200  1
  C  520  1  0.35417100  0.12557400  0.15159800  1
  C  522  1  0.38383100  0.09693900  0.17722500  1
  C  524  1  0.41611000  0.07142500  0.18316100  1
  C  529  1  0.65904000  0.12467700  0.85591800  1
  C  531  1  0.63926800  0.09356100  0.83039900  1
  C  532  1  0.65487800  0.11603900  0.81814900  1
  C  534  1  0.68172000  0.14562900  0.84383200  1
  C  536  1  0.70340000  0.17469100  0.84968700  1
  C  541  1  0.50266200  0.26952300  0.52261900  1
  C  543  1  0.55952300  0.27453600  0.49705000  1
  C  544  1  0.51783800  0.27107100  0.48487000  1
  C  546  1  0.46004100  0.27054200  0.51048200  1
  C  548  1  0.40558700  0.26718800  0.51638000  1
  C  553  1  0.15215700  0.39183500  0.19042600  1
  C  555  1  0.18316500  0.36394000  0.16493800  1
  C  556  1  0.16082800  0.38456500  0.15278200  1
  C  558  1  0.13619600  0.41479700  0.17837500  1
  C  560  1  0.10870500  0.44215600  0.18424700  1
  C  565  1  0.85550500  0.38215900  0.85716400  1
  C  567  1  0.88243000  0.41157300  0.83166300  1
  C  568  1  0.86266400  0.39012400  0.81946000  1
  C  570  1  0.82900700  0.36288100  0.84503400  1
  C  572  1  0.80136600  0.33557600  0.85090500  1
  C  577  1  0.01819000  0.23912400  0.52380800  1
  C  579  1  0.96068100  0.23737400  0.49830300  1
  C  580  1  0.00259400  0.23831500  0.48607500  1
  C  582  1  0.06042000  0.23563900  0.51166400  1
  C  584  1  0.11527100  0.23576400  0.51746100  1
  C  589  1  0.05228100  0.48396400  0.08941700  1
  C  591  1  0.51970200  0.03117500  0.07854500  1
  C  592  1  0.48050400  0.03097500  0.09158700  1
  C  594  1  0.01327100  0.48389700  0.10283200  1
  C  596  1  0.00643700  0.46063200  0.11678600  1
  C  601  1  0.76773900  0.28664300  0.75614200  1
  C  603  1  0.71286600  0.24680700  0.74540500  1
  C  604  1  0.73214800  0.22743500  0.75862600  1
  C  606  1  0.78700700  0.26729300  0.76967200  1
  C  608  1  0.82585100  0.27537000  0.78347700  1
  C  613  1  0.20632700  0.24285900  0.42276100  1
  C  615  1  0.29340800  0.23552200  0.41187200  1
  C  616  1  0.31273600  0.25523800  0.42490000  1
  C  618  1  0.22576400  0.26240100  0.43616800  1
  C  620  1  0.19430900  0.27746700  0.45012300  1
  C  625  1  0.70665000  0.26677500  0.58580600  1
  C  627  1  0.79382500  0.27365400  0.59670600  1
  C  628  1  0.81263900  0.25304400  0.58409700  1
  C  630  1  0.72560200  0.24634700  0.57279000  1
  C  632  1  0.69407400  0.23108300  0.55892900  1
  C  637  1  0.55338500  0.02420800  0.91918100  1
  C  639  1  0.02004900  0.47716200  0.93003300  1
  C  640  1  0.97993100  0.47805100  0.91734100  1
  C  642  1  0.51351700  0.02488800  0.90607100  1
  C  644  1  0.50661300  0.04825800  0.89218000  1
  C  649  1  0.26606400  0.22211500  0.25247700  1
  C  651  1  0.21217100  0.26229300  0.26335700  1
  C  652  1  0.23378900  0.28195100  0.25074700  1
  C  654  1  0.28727400  0.24178000  0.23945400  1
  C  656  1  0.32590400  0.23360300  0.22559300  1
  C  661  1  0.22974100  0.28053000  0.07952700  1
  C  663  1  0.29256500  0.24219100  0.08677700  1
  C  664  1  0.26528400  0.22065300  0.07671200  1
  C  666  1  0.20106500  0.25906100  0.06973900  1
  C  668  1  0.15310500  0.26512600  0.05940500  1
  C  673  1  0.98429900  0.47724700  0.74607000  1
  C  675  1  0.54139700  0.01749800  0.75905600  1
  C  676  1  0.56946800  0.02139900  0.74302700  1
  C  678  1  0.03113700  0.47356500  0.73645100  1
  C  680  1  0.04605100  0.44647900  0.72618100  1
  C  685  1  0.81247100  0.25582400  0.41278900  1
  C  687  1  0.72351900  0.24355600  0.42001200  1
  C  688  1  0.70485300  0.26798800  0.40996700  1
  C  690  1  0.79458300  0.28092100  0.40302800  1
  C  692  1  0.82765500  0.30192000  0.39272700  1
  C  697  1  0.31270500  0.25336600  0.59544200  1
  C  699  1  0.22353500  0.26578300  0.58855700  1
  C  700  1  0.20512000  0.24064500  0.59801700  1
  C  702  1  0.29514100  0.22743700  0.60447300  1
  C  704  1  0.32833300  0.20575200  0.61419700  1
  C  709  1  0.73006900  0.22790600  0.92869900  1
  C  711  1  0.79333400  0.26629200  0.92181400  1
  C  712  1  0.76505200  0.28803200  0.93137700  1
  C  714  1  0.70030500  0.24962600  0.93789200  1
  C  716  1  0.65129800  0.24383500  0.94767900  1
  C  721  1  0.48308000  0.03181300  0.26204900  1
  C  723  1  0.00908700  0.48101800  0.25516100  1
  C  724  1  0.05598400  0.48437500  0.26462900  1
  C  726  1  0.53074300  0.03598000  0.27109500  1
  C  728  1  0.54666300  0.06340800  0.28083300  1
  C  733  1  0.52896200  0.12835100  0.98637500  1
  C  735  1  0.46134500  0.12456200  0.00927300  1
  C  736  1  0.49690700  0.13047000  0.02312900  1
  C  738  1  0.56569300  0.13108800  0.00043600  1
  C  740  1  0.62184300  0.13652400  0.99781400  1
  C  745  1  0.56274000  0.20229900  0.65297700  1
  C  747  1  0.60266400  0.17050000  0.67579000  1
  C  748  1  0.57639500  0.18541000  0.68969600  1
  C  750  1  0.54061900  0.21945000  0.66703600  1
  C  752  1  0.50420600  0.24473300  0.66445500  1
  C  757  1  0.43457100  0.18226200  0.31967000  1
  C  759  1  0.46274700  0.21798800  0.34252900  1
  C  760  1  0.45361800  0.19733500  0.35641600  1
  C  762  1  0.42016500  0.16258200  0.33373500  1
  C  764  1  0.40019200  0.13179700  0.33113200  1
  C  769  1  0.98888900  0.37944900  0.98694200  1
  C  771  1  0.05726400  0.38092100  0.00965500  1
  C  772  1  0.02101300  0.37934000  0.02370300  1
  C  774  1  0.95211200  0.38106000  0.00106600  1
  C  776  1  0.89515700  0.37921900  0.99874200  1
  C  781  1  0.95599000  0.30660400  0.65368500  1
  C  783  1  0.91958500  0.34014700  0.67635600  1
  C  784  1  0.94030200  0.32288900  0.69040200  1
  C  786  1  0.97197000  0.28746300  0.66782500  1
  C  788  1  0.00292400  0.25980200  0.66548600  1
  C  793  1  0.08122400  0.32683200  0.32026600  1
  C  795  1  0.04926900  0.29192400  0.34297300  1
  C  796  1  0.06532900  0.31074600  0.35702800  1
  C  798  1  0.10240600  0.34430700  0.33437000  1
  C  800  1  0.12834400  0.37364100  0.33204600  1
  C  805  1  0.83946300  0.64547600  0.07748400  1
  C  806  1  0.79824700  0.62722800  0.07122900  1
  C  807  1  0.84788700  0.58059100  0.07770200  1
  C  808  1  0.89217000  0.59730700  0.08295700  1
  C  809  1  0.93669300  0.58057100  0.08815900  1
  C  810  1  0.93606200  0.54885600  0.08910400  1
  C  811  1  0.89045200  0.53346300  0.08449200  1
  C  812  1  0.84716300  0.54913100  0.07859700  1
  C  813  1  0.75066800  0.63961800  0.06584000  1
  C  814  1  0.74149800  0.67010000  0.06758800  1
  C  815  1  0.77954000  0.68969500  0.07446900  1
  C  816  1  0.82864400  0.67683800  0.07878400  1
  C  817  1  0.89868200  0.64072200  0.10295700  1
  C  818  1  0.93424000  0.66391400  0.10722100  1
  C  819  1  0.96699200  0.66589100  0.07562900  1
  C  820  1  0.93308600  0.64264100  0.07005500  1
  C  821  1  0.00463100  0.67781000  0.06401600  1
  C  822  1  0.01271400  0.66544900  0.04715400  1
  C  823  1  0.98296900  0.64114600  0.04082700  1
  C  824  1  0.94151400  0.63124900  0.05219300  1
  C  825  1  0.86999600  0.62840100  0.11774200  1
  C  826  1  0.87673800  0.63828600  0.13578600  1
  C  827  1  0.91301500  0.66126000  0.13895000  1
  C  828  1  0.94051700  0.67422900  0.12493300  1
  C  841  1  0.89111700  0.63146800  0.08322000  1
  C  842  1  0.96677600  0.67882200  0.09376100  1
  C  845  1  0.80049700  0.59446300  0.07079300  1
  C  848  1  0.13219100  0.59997200  0.74425000  1
  C  849  1  0.18031000  0.58854200  0.73812300  1
  C  850  1  0.22516000  0.63704000  0.74455000  1
  C  851  1  0.17785200  0.65091400  0.74959000  1
  C  852  1  0.18052500  0.68188500  0.75429200  1
  C  853  1  0.22822500  0.69785000  0.75493800  1
  C  854  1  0.27416400  0.68237000  0.75078800  1
  C  855  1  0.27256300  0.65258500  0.74538400  1
  C  856  1  0.18556800  0.55855600  0.73269800  1
  C  857  1  0.14439900  0.53866400  0.73430800  1
  C  858  1  0.09587100  0.54775700  0.74115800  1
  C  859  1  0.09060400  0.57876400  0.74549500  1
  C  860  1  0.10974000  0.63194800  0.76963300  1
  C  861  1  0.05705600  0.63782600  0.77387800  1
  C  862  1  0.03761100  0.65319200  0.74228800  1
  C  863  1  0.08946800  0.64797600  0.73672100  1
  C  864  1  0.00081333  0.66588400  0.73064000  1
  C  865  1  0.01529200  0.67599100  0.71374200  1
  C  866  1  0.06662900  0.67328800  0.70742100  1
  C  867  1  0.10227900  0.65766300  0.71881700  1
  C  868  1  0.14253700  0.62357100  0.78438300  1
  C  869  1  0.12418400  0.62156000  0.80239400  1
  C  870  1  0.07148500  0.62795200  0.80555300  1
  C  871  1  0.03834700  0.63544700  0.79156100  1
  C  884  1  0.12739600  0.63289300  0.74991600  1
  C  885  1  0.01837300  0.64659500  0.76042300  1
  C  888  1  0.22824500  0.60621800  0.73782700  1
  C  891  1  0.05499400  0.76849600  0.41075500  1
  C  892  1  0.04822900  0.79823400  0.40450900  1
  C  893  1  0.95345300  0.79672800  0.41097900  1
  C  894  1  0.95638500  0.76623100  0.41623700  1
  C  895  1  0.90902700  0.75233900  0.42144900  1
  C  896  1  0.86177700  0.76851400  0.42240200  1
  C  897  1  0.86149200  0.79901800  0.41779500  1
  C  898  1  0.90661800  0.81281400  0.41186800  1
  C  899  1  0.09060100  0.81581900  0.39910700  1
  C  900  1  0.14090600  0.80514200  0.40081700  1
  C  901  1  0.15128300  0.77634000  0.40772600  1
  C  902  1  0.10744600  0.75822100  0.41204900  1
  C  903  1  0.01826400  0.74125600  0.43622700  1
  C  904  1  0.03530600  0.71188200  0.44048300  1
  C  905  1  0.02184300  0.69453000  0.40888900  1
  C  906  1  0.00391500  0.72311000  0.40332400  1
  C  907  1  0.02089500  0.66975800  0.39726900  1
  C  908  1  0.99828100  0.67190700  0.38041100  1
  C  909  1  0.97670700  0.69893800  0.37409400  1
  C  910  1  0.98259400  0.72460500  0.38546500  1
  C  911  1  0.01414600  0.76175400  0.45101500  1
  C  912  1  0.02564300  0.75343800  0.46905600  1
  C  913  1  0.04198700  0.72381400  0.47221200  1
  C  914  1  0.04767600  0.70358400  0.45819000  1
  C  927  1  0.00815300  0.74967600  0.41649200  1
  C  928  1  0.04138700  0.68816700  0.42701700  1
  C  931  1  0.99794500  0.81347900  0.40405500  1
  C  934  1  0.67246500  0.85985500  0.07956200  1
  C  935  1  0.71769800  0.87480100  0.07344200  1
  C  936  1  0.67665500  0.92467500  0.07826900  1
  C  937  1  0.62881200  0.91133000  0.08321600  1
  C  938  1  0.58716300  0.93117600  0.08725100  1
  C  939  1  0.59305100  0.96280800  0.08707500  1
  C  940  1  0.64247100  0.97455100  0.08315400  1
  C  941  1  0.68333000  0.95588900  0.07848700  1
  C  942  1  0.76290000  0.85897400  0.06875500  1
  C  943  1  0.76541600  0.82810800  0.07089300  1
  C  944  1  0.72286600  0.81203800  0.07771300  1
  C  945  1  0.67660600  0.82812400  0.08153300  1
  C  946  1  0.61324200  0.87025200  0.10438000  1
  C  947  1  0.57294700  0.85005600  0.10906300  1
  C  948  1  0.54247800  0.84676100  0.07725800  1
  C  949  1  0.58040700  0.86756000  0.07131000  1
  C  950  1  0.50411600  0.83565700  0.06564400  1
  C  951  1  0.49914900  0.84686600  0.04836000  1
  C  952  1  0.53267500  0.86918000  0.04168400  1
  C  953  1  0.57487400  0.87784100  0.05307800  1
  C  954  1  0.64415500  0.88136500  0.11896600  1
  C  955  1  0.63484000  0.87334000  0.13720300  1
  C  956  1  0.59349400  0.85363900  0.14080200  1
  C  957  1  0.56367500  0.84180800  0.12700400  1
  C  970  1  0.62343400  0.87736800  0.08446800  1
  C  971  1  0.53874800  0.83591900  0.09581700  1
  C  974  1  0.72199800  0.90745000  0.07247600  1
  C  977  1  0.40680300  0.90755000  0.74797100  1
  C  978  1  0.36394300  0.92541000  0.74275100  1
  C  979  1  0.30354300  0.88134700  0.74503900  1
  C  980  1  0.34479000  0.86220000  0.75009300  1
  C  981  1  0.33254100  0.83167600  0.75370100  1
  C  982  1  0.28117000  0.82023100  0.75299300  1
  C  983  1  0.24155700  0.84050500  0.74821900  1
  C  984  1  0.25247400  0.87035000  0.74415700  1
  C  985  1  0.36983300  0.95636500  0.73973400  1
  C  986  1  0.41749900  0.97038000  0.74241000  1
  C  987  1  0.46103200  0.95385900  0.74796100  1
  C  988  1  0.45542100  0.92254800  0.75021700  1
  C  989  1  0.41346200  0.87161900  0.77190400  1
  C  990  1  0.46291900  0.86043800  0.77680100  1
  C  991  1  0.48331400  0.84702700  0.74479700  1
  C  992  1  0.43419900  0.85711800  0.73874000  1
  C  993  1  0.51847500  0.83348600  0.73291400  1
  C  994  1  0.50395000  0.82679500  0.71539500  1
  C  995  1  0.45401900  0.83347200  0.70876200  1
  C  996  1  0.42108500  0.85051200  0.72036400  1
  C  997  1  0.38101700  0.88235600  0.78616800  1
  C  998  1  0.39672600  0.88181100  0.80445800  1
  C  999  1  0.44632300  0.87034200  0.80840100  1
  C  1000  1  0.47903300  0.86017600  0.79484700  1
  C  1013  1  0.39960200  0.87433400  0.75197300  1
  C  1014  1  0.50071500  0.84927600  0.76359700  1
  C  1017  1  0.31120200  0.91322000  0.74065200  1
  C  1020  1  0.46010500  0.74482600  0.41284100  1
  C  1021  1  0.45992600  0.71473900  0.40671500  1
  C  1022  1  0.55523200  0.71030700  0.41159800  1
  C  1023  1  0.55912800  0.74090100  0.41654400  1
  C  1024  1  0.60971100  0.75180300  0.42058700  1
  C  1025  1  0.65420400  0.73303200  0.42045800  1
  C  1026  1  0.64711400  0.70244700  0.41654300  1
  C  1027  1  0.59870900  0.69136000  0.41184200  1
  C  1028  1  0.41359800  0.70005500  0.40200900  1
  C  1029  1  0.36603300  0.71423000  0.40413200  1
  C  1030  1  0.36318100  0.74353000  0.41096300  1
  C  1031  1  0.41043000  0.75861700  0.41479900  1
  C  1032  1  0.50521000  0.76923100  0.43768100  1
  C  1033  1  0.49499900  0.79947400  0.44235400  1
  C  1034  1  0.50561300  0.81636800  0.41056100  1
  C  1035  1  0.51775900  0.78699000  0.40461300  1
  C  1036  1  0.50827500  0.84110200  0.39895000  1
  C  1037  1  0.52765800  0.83796500  0.38167800  1
  C  1038  1  0.54424200  0.81002300  0.37500100  1
  C  1039  1  0.53598000  0.78459700  0.38638700  1
  C  1040  1  0.50636300  0.74822400  0.45227100  1
  C  1041  1  0.49873800  0.75688100  0.47049900  1
  C  1042  1  0.48975800  0.78739900  0.47408500  1
  C  1043  1  0.48703400  0.80822500  0.46028400  1
  C  1056  1  0.51087900  0.76057600  0.41777200  1
  C  1057  1  0.49104800  0.82364900  0.42910500  1
  C  1060  1  0.50675000  0.69625900  0.40577000  1
  C  1063  1  0.55508000  0.73979700  0.59763700  1
  C  1064  1  0.54863700  0.70995400  0.60373700  1
  C  1065  1  0.45364600  0.71131700  0.59753700  1
  C  1066  1  0.45633300  0.74185400  0.59237000  1
  C  1067  1  0.40883400  0.75579100  0.58737700  1
  C  1068  1  0.36156900  0.73963800  0.58657200  1
  C  1069  1  0.36144700  0.70908500  0.59105300  1
  C  1070  1  0.40679500  0.69522000  0.59674100  1
  C  1071  1  0.59128100  0.69239200  0.60889000  1
  C  1072  1  0.64147300  0.70320000  0.60705200  1
  C  1073  1  0.65154900  0.73214100  0.60028700  1
  C  1074  1  0.60743200  0.75022300  0.59621000  1
  C  1075  1  0.51728700  0.76788600  0.57265500  1
  C  1076  1  0.53160400  0.79784300  0.56867700  1
  C  1077  1  0.52044100  0.81351700  0.60074700  1
  C  1078  1  0.50333800  0.78454300  0.60580400  1
  C  1079  1  0.51985200  0.83748500  0.61298400  1
  C  1080  1  0.49865000  0.83404900  0.63002400  1
  C  1081  1  0.47735000  0.80660300  0.63579400  1
  C  1082  1  0.48222800  0.78194100  0.62361000  1
  C  1083  1  0.51440300  0.74765000  0.55771900  1
  C  1084  1  0.52373000  0.75688100  0.53971100  1
  C  1085  1  0.53606600  0.78717500  0.53670800  1
  C  1086  1  0.54121900  0.80711000  0.55092700  1
  C  1099  1  0.50788600  0.75860100  0.59224800  1
  C  1100  1  0.53794300  0.82102200  0.58251000  1
  C  1103  1  0.49839900  0.69462400  0.60432300  1
  C  1106  1  0.33884900  0.86343600  0.93098500  1
  C  1107  1  0.29739800  0.88159000  0.93714800  1
  C  1108  1  0.34692500  0.92839400  0.93089100  1
  C  1109  1  0.39132500  0.91177000  0.92567700  1
  C  1110  1  0.43595700  0.92854000  0.92064200  1
  C  1111  1  0.43538100  0.96024800  0.91981100  1
  C  1112  1  0.38968100  0.97559600  0.92437000  1
  C  1113  1  0.34624800  0.95986800  0.93010900  1
  C  1114  1  0.24980200  0.86904800  0.94237900  1
  C  1115  1  0.24086400  0.83855500  0.94052200  1
  C  1116  1  0.27912200  0.81905100  0.93367600  1
  C  1117  1  0.32826600  0.83205600  0.92954100  1
  C  1118  1  0.39968400  0.86827900  0.90595700  1
  C  1119  1  0.43744300  0.84616000  0.90191700  1
  C  1120  1  0.46677400  0.84386300  0.93394300  1
  C  1121  1  0.43182600  0.86685900  0.93904200  1
  C  1122  1  0.50304100  0.83213400  0.94615700  1
  C  1123  1  0.50850500  0.84442800  0.96320200  1
  C  1124  1  0.47796400  0.86878900  0.96897500  1
  C  1125  1  0.43842900  0.87866400  0.95684900  1
  C  1126  1  0.37056900  0.87985200  0.89108600  1
  C  1127  1  0.37954300  0.87057400  0.87307900  1
  C  1128  1  0.41873700  0.84923400  0.86999400  1
  C  1129  1  0.44629600  0.83670700  0.88415900  1
  C  1142  1  0.39060100  0.87761800  0.92554300  1
  C  1143  1  0.46924600  0.83141900  0.91569300  1
  C  1146  1  0.29956600  0.91437300  0.93773600  1
  C  1149  1  0.63232600  0.90982000  0.26421800  1
  C  1150  1  0.68026300  0.92149500  0.27037900  1
  C  1151  1  0.72574800  0.87333300  0.26416700  1
  C  1152  1  0.67862800  0.85942100  0.25895700  1
  C  1153  1  0.68149300  0.82870300  0.25396500  1
  C  1154  1  0.72935900  0.81314400  0.25315900  1
  C  1155  1  0.77521700  0.82835200  0.25769900  1
  C  1156  1  0.77331300  0.85795100  0.26339900  1
  C  1157  1  0.68523300  0.95158200  0.27557800  1
  C  1158  1  0.64394200  0.97128000  0.27371000  1
  C  1159  1  0.59553800  0.96186300  0.26690100  1
  C  1160  1  0.59050700  0.93077800  0.26278500  1
  C  1161  1  0.60920300  0.87691000  0.23920200  1
  C  1162  1  0.55715100  0.86905200  0.23517900  1
  C  1163  1  0.53901500  0.85568400  0.26723500  1
  C  1164  1  0.59100200  0.86163300  0.27232300  1
  C  1165  1  0.50327500  0.84345600  0.27945900  1
  C  1166  1  0.51895400  0.83462500  0.29651600  1
  C  1167  1  0.57077100  0.83768400  0.30228900  1
  C  1168  1  0.60539400  0.85243500  0.29013700  1
  C  1169  1  0.64107100  0.88562900  0.22429900  1
  C  1170  1  0.62265700  0.88571400  0.20628300  1
  C  1171  1  0.57111700  0.87664600  0.20322800  1
  C  1172  1  0.53855500  0.86922400  0.21741800  1
  C  1185  1  0.62774200  0.87684000  0.25880000  1
  C  1186  1  0.51913200  0.86060100  0.24897600  1
  C  1189  1  0.72837300  0.90404300  0.27097900  1
  C  1192  1  0.96054200  0.76455700  0.59571900  1
  C  1193  1  0.96016600  0.79460100  0.60191100  1
  C  1194  1  0.05550000  0.79931100  0.59705300  1
  C  1195  1  0.05955200  0.76876200  0.59205300  1
  C  1196  1  0.11016600  0.75790400  0.58804400  1
  C  1197  1  0.15458500  0.77671500  0.58813700  1
  C  1198  1  0.14740700  0.80726900  0.59213100  1
  C  1199  1  0.09894400  0.81829400  0.59685100  1
  C  1200  1  0.91369700  0.80911800  0.60661700  1
  C  1201  1  0.86624100  0.79486500  0.60436900  1
  C  1202  1  0.86351500  0.76563200  0.59740400  1
  C  1203  1  0.91097200  0.75068400  0.59361300  1
  C  1204  1  0.00644500  0.73960300  0.57118500  1
  C  1205  1  0.99878500  0.70900700  0.56676100  1
  C  1206  1  0.00772000  0.69329400  0.59888100  1
  C  1207  1  0.01875100  0.72300800  0.60441700  1
  C  1208  1  0.01036600  0.66917900  0.61097400  1
  C  1209  1  0.02813000  0.67340200  0.62840700  1
  C  1210  1  0.04384100  0.70178200  0.63466300  1
  C  1211  1  0.03645400  0.72639500  0.62260800  1
  C  1212  1  0.00645000  0.76033900  0.55646800  1
  C  1213  1  0.00069300  0.75106100  0.53828700  1
  C  1214  1  0.99527500  0.72022200  0.53486100  1
  C  1215  1  0.99314100  0.69964600  0.54882900  1
  C  1228  1  0.01153600  0.74890500  0.59096800  1
  C  1229  1  0.99499500  0.68517800  0.58028500  1
  C  1232  1  0.00692800  0.81314700  0.60299500  1
  C  1235  1  0.17309900  0.64838200  0.92904500  1
  C  1236  1  0.21838100  0.63356800  0.93522800  1
  C  1237  1  0.17774700  0.58352900  0.93044400  1
  C  1238  1  0.12990100  0.59676600  0.92542900  1
  C  1239  1  0.08830900  0.57688200  0.92143300  1
  C  1240  1  0.09430300  0.54526800  0.92155800  1
  C  1241  1  0.14370200  0.53358100  0.92558000  1
  C  1242  1  0.18447100  0.55231200  0.93029300  1
  C  1243  1  0.26341500  0.64956200  0.93988600  1
  C  1244  1  0.26572600  0.68041700  0.93762500  1
  C  1245  1  0.22318600  0.69637100  0.93067800  1
  C  1246  1  0.17702700  0.68010200  0.92692500  1
  C  1247  1  0.11259900  0.63786900  0.90455300  1
  C  1248  1  0.07044800  0.65694100  0.90014600  1
  C  1249  1  0.04264100  0.66041100  0.93228900  1
  C  1250  1  0.08172400  0.64004500  0.93780600  1
  C  1251  1  0.00523800  0.67117200  0.94441000  1
  C  1252  1  0.00277200  0.66018300  0.96184700  1
  C  1253  1  0.03749100  0.63812300  0.96808000  1
  C  1254  1  0.07802100  0.62949300  0.95599600  1
  C  1255  1  0.14366700  0.62750500  0.88982500  1
  C  1256  1  0.13252700  0.63498500  0.87164500  1
  C  1257  1  0.08877400  0.65295800  0.86823400  1
  C  1258  1  0.05905300  0.66434700  0.88221300  1
  C  1271  1  0.12411100  0.63069700  0.92433200  1
  C  1272  1  0.03669100  0.67078100  0.91368700  1
  C  1275  1  0.22280100  0.60091500  0.93636100  1
  C  1278  1  0.89239800  0.60014400  0.26236700  1
  C  1279  1  0.84752700  0.58493600  0.26856300  1
  C  1280  1  0.79280400  0.63025900  0.26372000  1
  C  1281  1  0.83660700  0.64756200  0.25872900  1
  C  1282  1  0.82759900  0.67830100  0.25472800  1
  C  1283  1  0.77718500  0.69112100  0.25484300  1
  C  1284  1  0.73493400  0.67225400  0.25881900  1
  C  1285  1  0.74261200  0.64250000  0.26352500  1
  C  1286  1  0.84896500  0.55443000  0.27323700  1
  C  1287  1  0.89406200  0.53782400  0.27097500  1
  C  1288  1  0.93928600  0.55108800  0.26402300  1
  C  1289  1  0.93798900  0.58229600  0.26024900  1
  C  1290  1  0.90689000  0.63561900  0.23785600  1
  C  1291  1  0.95660900  0.64710000  0.23343800  1
  C  1292  1  0.97574500  0.65931800  0.26557400  1
  C  1293  1  0.92563400  0.65000000  0.27109900  1
  C  1294  1  0.01060900  0.67264900  0.27768500  1
  C  1295  1  0.99538700  0.67939400  0.29512300  1
  C  1296  1  0.94493600  0.67309600  0.30136500  1
  C  1297  1  0.91168400  0.65716200  0.28928800  1
  C  1298  1  0.87579400  0.62525300  0.22313700  1
  C  1299  1  0.89253900  0.62709100  0.20495300  1
  C  1300  1  0.94148300  0.63983700  0.20153100  1
  C  1301  1  0.97343800  0.64902100  0.21550500  1
  C  1314  1  0.89039300  0.63347400  0.25763800  1
  C  1315  1  0.99426000  0.65707100  0.24697100  1
  C  1318  1  0.79632100  0.59904500  0.26964500  1
  C  1321  1  0.86382600  0.61878100  0.18928500  1
  C  1323  1  0.82806700  0.64470300  0.16376200  1
  C  1324  1  0.85417100  0.62557500  0.15159900  1
  C  1326  1  0.88383200  0.59694000  0.17722500  1
  C  1328  1  0.91611100  0.57142500  0.18316100  1
  C  1333  1  0.15910200  0.62468100  0.85596000  1
  C  1335  1  0.13892700  0.59375400  0.83039700  1
  C  1336  1  0.15436600  0.61634300  0.81819600  1
  C  1338  1  0.18178400  0.64567000  0.84389800  1
  C  1340  1  0.20348700  0.67471600  0.84976500  1
  C  1345  1  0.00266500  0.76951900  0.52262200  1
  C  1347  1  0.05952400  0.77453300  0.49705300  1
  C  1348  1  0.01783800  0.77107000  0.48487100  1
  C  1350  1  0.96004200  0.77053800  0.51048500  1
  C  1352  1  0.90558800  0.76718700  0.51638200  1
  C  1357  1  0.65215800  0.89183600  0.19042600  1
  C  1359  1  0.68316700  0.86394100  0.16493800  1
  C  1360  1  0.66082900  0.88456600  0.15278200  1
  C  1362  1  0.63620000  0.91479500  0.17837500  1
  C  1364  1  0.60870500  0.94215400  0.18424800  1
  C  1369  1  0.35554700  0.88228700  0.85727300  1
  C  1371  1  0.38453700  0.91116500  0.83182100  1
  C  1372  1  0.36560800  0.88945600  0.81965300  1
  C  1374  1  0.32938900  0.86297300  0.84507600  1
  C  1376  1  0.30144600  0.83572200  0.85088100  1
  C  1381  1  0.51818900  0.73915800  0.52383200  1
  C  1383  1  0.46068400  0.73739300  0.49832100  1
  C  1384  1  0.50259400  0.73832700  0.48609100  1
  C  1386  1  0.56041400  0.73567100  0.51168400  1
  C  1388  1  0.61526800  0.73578200  0.51747900  1
  C  1393  1  0.55228000  0.98396500  0.08941700  1
  C  1395  1  0.01970200  0.53117500  0.07854500  1
  C  1396  1  0.98050400  0.53097600  0.09158700  1
  C  1398  1  0.51327100  0.98389800  0.10283200  1
  C  1400  1  0.50643700  0.96063200  0.11678600  1
  C  1405  1  0.26737800  0.78940300  0.75567400  1
  C  1407  1  0.21198800  0.74952000  0.74493900  1
  C  1408  1  0.23328400  0.72928500  0.75733000  1
  C  1410  1  0.28796800  0.76926200  0.76861200  1
  C  1412  1  0.32639700  0.77685800  0.78267900  1
  C  1417  1  0.70632700  0.74286000  0.42276100  1
  C  1419  1  0.79341000  0.73552300  0.41187200  1
  C  1420  1  0.81273700  0.75523900  0.42490000  1
  C  1422  1  0.72576700  0.76240100  0.43616900  1
  C  1424  1  0.69430800  0.77746800  0.45012300  1
  C  1429  1  0.20664600  0.76677800  0.58580400  1
  C  1431  1  0.29381900  0.77365500  0.59670700  1
  C  1432  1  0.31262900  0.75304100  0.58410100  1
  C  1434  1  0.22559900  0.74634900  0.57279000  1
  C  1436  1  0.19407000  0.73108600  0.55892900  1
  C  1441  1  0.05338400  0.52420900  0.91918200  1
  C  1443  1  0.52005300  0.97716200  0.93003300  1
  C  1444  1  0.47993000  0.97804900  0.91734300  1
  C  1446  1  0.01351900  0.52489100  0.90607200  1
  C  1448  1  0.00661600  0.54826200  0.89218100  1
  C  1453  1  0.76606500  0.72211600  0.25247700  1
  C  1455  1  0.71217100  0.76229400  0.26335700  1
  C  1456  1  0.73379000  0.78195200  0.25074700  1
  C  1458  1  0.78727500  0.74178100  0.23945400  1
  C  1460  1  0.82590400  0.73360400  0.22559300  1
  C  1465  1  0.72974100  0.78052900  0.07952700  1
  C  1467  1  0.79256400  0.74219200  0.08677700  1
  C  1468  1  0.76528300  0.72065300  0.07671200  1
  C  1470  1  0.70106600  0.75906100  0.06973900  1
  C  1472  1  0.65310400  0.76512700  0.05940500  1
  C  1477  1  0.50841000  0.96999100  0.74895100  1
  C  1479  1  0.01038500  0.52787300  0.75328400  1
  C  1480  1  0.05657100  0.52500700  0.74333800  1
  C  1482  1  0.54016700  0.97231000  0.73354300  1
  C  1484  1  0.54608600  0.94805700  0.72014000  1
  C  1489  1  0.31247100  0.75582200  0.41279000  1
  C  1491  1  0.22352000  0.74355700  0.42001200  1
  C  1492  1  0.20485300  0.76798700  0.40996700  1
  C  1494  1  0.29458500  0.78092200  0.40302800  1
  C  1496  1  0.32765500  0.80191800  0.39272700  1
  C  1501  1  0.81269700  0.75336700  0.59544000  1
  C  1503  1  0.72352400  0.76578800  0.58856000  1
  C  1504  1  0.70510500  0.74065500  0.59802100  1
  C  1506  1  0.79513000  0.72744000  0.60447200  1
  C  1508  1  0.82832100  0.70575400  0.61419700  1
  C  1513  1  0.23007100  0.72790700  0.92870100  1
  C  1515  1  0.29333500  0.76629500  0.92181500  1
  C  1516  1  0.26504900  0.78803300  0.93138000  1
  C  1518  1  0.20030300  0.74962500  0.93789300  1
  C  1520  1  0.15129600  0.74383600  0.94768100  1
  C  1525  1  0.98308100  0.53181400  0.26204900  1
  C  1527  1  0.50908800  0.98101800  0.25516100  1
  C  1528  1  0.55598300  0.98437600  0.26462900  1
  C  1530  1  0.03074600  0.53598100  0.27109500  1
  C  1532  1  0.04666200  0.56340900  0.28083300  1
  C  1537  1  0.02895500  0.62835100  0.98637900  1
  C  1539  1  0.96134200  0.62456000  0.00927700  1
  C  1540  1  0.99690700  0.63046900  0.02313100  1
  C  1542  1  0.06569200  0.63108800  0.00043900  1
  C  1544  1  0.12184000  0.63652400  0.99781700  1
  C  1549  1  0.06267800  0.70230900  0.65297800  1
  C  1551  1  0.10222600  0.67050000  0.67586000  1
  C  1552  1  0.07572700  0.68544100  0.68970100  1
  C  1554  1  0.04041300  0.71948900  0.66699600  1
  C  1556  1  0.00409700  0.74480300  0.66438800  1
  C  1561  1  0.93457400  0.68226200  0.31967000  1
  C  1563  1  0.96274700  0.71798800  0.34253000  1
  C  1564  1  0.95361800  0.69733600  0.35641600  1
  C  1566  1  0.92016600  0.66258200  0.33373500  1
  C  1568  1  0.90019200  0.63179900  0.33113200  1
  C  1573  1  0.48891100  0.87945000  0.98695200  1
  C  1575  1  0.55727500  0.88092400  0.00966200  1
  C  1576  1  0.52101800  0.87934500  0.02370900  1
  C  1578  1  0.45212400  0.88106100  0.00107100  1
  C  1580  1  0.39516500  0.87921800  0.99874400  1
  C  1585  1  0.45630900  0.80668600  0.65386000  1
  C  1587  1  0.42177100  0.84032400  0.67687000  1
  C  1588  1  0.44355500  0.82304800  0.69072900  1
  C  1590  1  0.47278200  0.78742500  0.66787300  1
  C  1592  1  0.50316600  0.75960700  0.66536900  1
  C  1597  1  0.58122400  0.82683300  0.32026800  1
  C  1599  1  0.54926800  0.79192500  0.34297300  1
  C  1600  1  0.56533000  0.81074700  0.35702800  1
  C  1602  1  0.60240500  0.84430800  0.33437000  1
  C  1604  1  0.62834700  0.87364100  0.33204600  1
  H  25  1  0.42054400  0.16874900  0.15167500  1
  H  26  1  0.46649000  0.19081300  0.12790900  1
  H  27  1  0.52827700  0.19494600  0.06803100  1
  H  28  1  0.54125600  0.17492500  0.03950400  1
  H  29  1  0.41842800  0.11431100  0.04767500  1
  H  30  1  0.34388900  0.11171100  0.11536600  1
  H  31  1  0.47003400  0.09167100  0.09138700  1
  H  32  1  0.38909400  0.01057300  0.08427100  1
  H  33  1  0.31520400  0.03722600  0.07469800  1
  H  34  1  0.35717100  0.19057100  0.08337100  1
  H  35  1  0.22106100  0.12629000  0.06138700  1
  H  36  1  0.20526600  0.17739300  0.06420700  1
  H  39  1  0.45499900  0.20225800  0.09282100  1
  H  40  1  0.50668900  0.17808200  0.09874500  1
  H  42  1  0.29513300  0.08714100  0.05691200  1
  H  43  1  0.26805300  0.08604300  0.07880300  1
  H  68  1  0.55720500  0.12782000  0.81807200  1
  H  69  1  0.50130400  0.13936300  0.79422500  1
  H  70  1  0.46446500  0.16852800  0.73465700  1
  H  71  1  0.48786400  0.18553100  0.70625400  1
  H  72  1  0.64017800  0.15411100  0.71412600  1
  H  73  1  0.68133400  0.11750900  0.78187600  1
  H  74  1  0.64691000  0.19113100  0.75812200  1
  H  75  1  0.80941900  0.19252400  0.75186200  1
  H  76  1  0.80794400  0.14257100  0.74191200  1
  H  77  1  0.56183400  0.08168300  0.75122500  1
  H  78  1  0.72348800  0.05356700  0.72311200  1
  H  79  1  0.65783400  0.01790300  0.72602300  1
  H  82  1  0.49026000  0.12750500  0.75908800  1
  H  83  1  0.50019600  0.16541900  0.76519200  1
  H  85  1  0.74474700  0.10947200  0.72264000  1
  H  86  1  0.75897300  0.09411200  0.74407400  1
  H  111  1  0.54947700  0.21630000  0.48493500  1
  H  112  1  0.55958500  0.18230600  0.46116200  1
  H  113  1  0.53478200  0.14936300  0.40127900  1
  H  114  1  0.49820800  0.15290300  0.37275600  1
  H  115  1  0.46868600  0.24461500  0.38096200  1
  H  116  1  0.50214600  0.28314900  0.44864400  1
  H  117  1  0.40900900  0.23011800  0.42467800  1
  H  118  1  0.32783900  0.31114200  0.41756000  1
  H  119  1  0.40474200  0.33474700  0.40797100  1
  H  120  1  0.61378200  0.23709700  0.41664500  1
  H  121  1  0.58540300  0.33727200  0.39463200  1
  H  122  1  0.66995700  0.31961600  0.39744000  1
  H  125  1  0.58242900  0.18234200  0.42606700  1
  H  126  1  0.52033800  0.16857300  0.43200200  1
  H  128  1  0.48964500  0.31978800  0.39016800  1
  H  129  1  0.50152500  0.33393000  0.41204700  1
  H  154  1  0.08429600  0.34756000  0.15366800  1
  H  155  1  0.03439900  0.32733700  0.13026400  1
  H  156  1  0.97759700  0.32019200  0.06994500  1
  H  157  1  0.96977000  0.33825000  0.04071900  1
  H  158  1  0.10071100  0.39316000  0.04827900  1
  H  159  1  0.17403200  0.39564200  0.11628100  1
  H  160  1  0.05159200  0.42224800  0.08980500  1
  H  161  1  0.14920800  0.49711200  0.08310000  1
  H  162  1  0.21808800  0.46541000  0.07514300  1
  H  163  1  0.14597400  0.31661100  0.08665000  1
  H  164  1  0.29522400  0.36993600  0.06426400  1
  H  165  1  0.29919300  0.31756300  0.06745700  1
  H  168  1  0.04597300  0.31182100  0.09589100  1
  H  169  1  0.99885600  0.33974500  0.10028600  1
  H  171  1  0.23069800  0.41363100  0.05859700  1
  H  172  1  0.25475400  0.41409800  0.08091600  1
  H  197  1  0.95660900  0.37066500  0.82029100  1
  H  198  1  0.01191200  0.35600500  0.79685900  1
  H  199  1  0.05085900  0.33114400  0.73655100  1
  H  200  1  0.02753100  0.31798700  0.70737700  1
  H  201  1  0.87966900  0.35596000  0.71495200  1
  H  202  1  0.83941100  0.39138600  0.78296500  1
  H  203  1  0.86077500  0.31708000  0.75643300  1
  H  204  1  0.69960800  0.32854500  0.74993200  1
  H  205  1  0.71272100  0.37882600  0.74195800  1
  H  206  1  0.97207600  0.41717600  0.75326700  1
  H  207  1  0.81740900  0.46502800  0.73088100  1
  H  208  1  0.89393900  0.49322700  0.73402100  1
  H  211  1  0.02923800  0.36963500  0.76245900  1
  H  212  1  0.01111700  0.33209500  0.76689700  1
  H  214  1  0.78407800  0.41092800  0.72528600  1
  H  215  1  0.77144700  0.42277900  0.74760100  1
  H  240  1  0.98510700  0.29503200  0.48694200  1
  H  241  1  0.97994500  0.33009800  0.46353700  1
  H  242  1  0.99841500  0.36210400  0.40325300  1
  H  243  1  0.02954600  0.35696500  0.37404200  1
  H  244  1  0.04599600  0.26400700  0.38159500  1
  H  245  1  0.01291600  0.22615000  0.44958600  1
  H  246  1  0.11410300  0.27405400  0.42314300  1
  H  247  1  0.17759100  0.18780300  0.41648000  1
  H  248  1  0.09562600  0.16922100  0.40848700  1
  H  249  1  0.90846300  0.27968400  0.41992400  1
  H  250  1  0.91389300  0.17841800  0.39750400  1
  H  251  1  0.83333600  0.20261100  0.40068500  1
  H  254  1  0.95129900  0.33210400  0.42913300  1
  H  255  1  0.01671100  0.34167100  0.43360600  1
  H  257  1  0.01173600  0.18883000  0.39189000  1
  H  258  1  0.00029300  0.17655000  0.41419900  1
  H  283  1  0.04197900  0.29516400  0.52394500  1
  H  284  1  0.05110500  0.32877100  0.54806100  1
  H  285  1  0.03350400  0.35812900  0.60932200  1
  H  286  1  0.99934300  0.35232100  0.63819600  1
  H  287  1  0.96799700  0.26167000  0.62738900  1
  H  288  1  0.00490000  0.22578200  0.55992900  1
  H  289  1  0.90875500  0.27803900  0.58420500  1
  H  290  1  0.82781100  0.19696100  0.59133700  1
  H  291  1  0.90506700  0.17326000  0.60057800  1
  H  292  1  0.11345700  0.27141100  0.59166000  1
  H  293  1  0.08634400  0.17088100  0.61330900  1
  H  294  1  0.17068500  0.18876000  0.61034200  1
  H  297  1  0.07887000  0.32737300  0.58300400  1
  H  298  1  0.01565400  0.34053400  0.57810900  1
  H  300  1  0.99048700  0.18827900  0.61821600  1
  H  301  1  0.00186300  0.17418100  0.59629600  1
  H  326  1  0.92765700  0.34220900  0.85721900  1
  H  327  1  0.97386000  0.32091600  0.88128100  1
  H  328  1  0.02746100  0.31517200  0.94247800  1
  H  329  1  0.03592700  0.33509800  0.97136100  1
  H  330  1  0.91529800  0.39595500  0.96069400  1
  H  331  1  0.84263100  0.39553500  0.89329700  1
  H  332  1  0.96936000  0.41746200  0.91745100  1
  H  333  1  0.88832800  0.49848400  0.92465500  1
  H  334  1  0.81422200  0.47172400  0.93398400  1
  H  335  1  0.85703000  0.31845200  0.92495800  1
  H  336  1  0.72005500  0.38228200  0.94679900  1
  H  337  1  0.70462000  0.33118800  0.94381000  1
  H  340  1  0.95844000  0.30780000  0.91623200  1
  H  341  1  0.00964200  0.33290000  0.91128500  1
  H  343  1  0.79418100  0.42149900  0.95164100  1
  H  344  1  0.76711300  0.42287100  0.92975700  1
  H  369  1  0.05622000  0.37561300  0.19050300  1
  H  370  1  0.00114800  0.36326800  0.21457200  1
  H  371  1  0.96557100  0.33976700  0.27580100  1
  H  372  1  0.99118800  0.32561400  0.30469500  1
  H  373  1  0.14287500  0.35532500  0.29400100  1
  H  374  1  0.17858300  0.39180400  0.22657700  1
  H  375  1  0.14817600  0.31751600  0.25081200  1
  H  376  1  0.31022200  0.31758700  0.25800800  1
  H  377  1  0.30709900  0.36805100  0.26727600  1
  H  378  1  0.05571200  0.42316800  0.25824200  1
  H  379  1  0.21995500  0.45986800  0.27999800  1
  H  380  1  0.15097800  0.49309300  0.27700200  1
  H  383  1  0.98909800  0.37781400  0.24950400  1
  H  384  1  0.00112500  0.33963800  0.24461700  1
  H  386  1  0.24180000  0.40322700  0.28489100  1
  H  387  1  0.25731600  0.41600600  0.26298400  1
  H  412  1  0.49192600  0.21226500  0.52201700  1
  H  413  1  0.48794800  0.17754300  0.54571600  1
  H  414  1  0.50127700  0.14790800  0.60697300  1
  H  415  1  0.52973100  0.15491400  0.63648500  1
  H  416  1  0.54664200  0.24722500  0.62685700  1
  H  417  1  0.51083600  0.28263500  0.55901600  1
  H  418  1  0.61462500  0.23563600  0.58554200  1
  H  419  1  0.67785500  0.32192800  0.59220600  1
  H  420  1  0.59578900  0.34040000  0.60026400  1
  H  421  1  0.40932000  0.22966700  0.58839500  1
  H  422  1  0.41381100  0.33070400  0.61120900  1
  H  423  1  0.33348500  0.30641000  0.60783600  1
  H  426  1  0.45568000  0.17610100  0.57997600  1
  H  427  1  0.52184100  0.16742600  0.57627100  1
  H  429  1  0.51188500  0.32030800  0.61692300  1
  H  430  1  0.50038100  0.33301400  0.59470700  1
  H  455  1  0.57832900  0.15853800  0.85538000  1
  H  456  1  0.52838100  0.17792400  0.87910300  1
  H  457  1  0.47783300  0.18632800  0.94041000  1
  H  458  1  0.47425200  0.16860300  0.96993000  1
  H  459  1  0.60419700  0.11398000  0.96022100  1
  H  460  1  0.67494100  0.11418600  0.89233700  1
  H  461  1  0.55269800  0.08577900  0.91889000  1
  H  462  1  0.65045300  0.01102400  0.92569100  1
  H  463  1  0.71919800  0.04284100  0.93372600  1
  H  464  1  0.64629700  0.19142000  0.92171000  1
  H  465  1  0.79573500  0.13873000  0.94448600  1
  H  466  1  0.79941800  0.19104100  0.94106700  1
  H  469  1  0.54273300  0.19497400  0.91334500  1
  H  470  1  0.49661600  0.16621900  0.90970700  1
  H  472  1  0.73106800  0.09491500  0.95029400  1
  H  473  1  0.75586400  0.09421500  0.92807900  1
  H  498  1  0.45506900  0.14216800  0.18869000  1
  H  499  1  0.50917733  0.15749000  0.21239700  1
  H  500  1  0.54707400  0.17873500  0.27369000  1
  H  501  1  0.52232500  0.18942200  0.30320800  1
  H  502  1  0.37534200  0.15184200  0.29353200  1
  H  503  1  0.34018200  0.11626700  0.22568700  1
  H  504  1  0.35877600  0.19166400  0.25223200  1
  H  505  1  0.19772100  0.18015200  0.25889500  1
  H  506  1  0.21102400  0.12986800  0.26693100  1
  H  507  1  0.47033900  0.09198200  0.25503700  1
  H  508  1  0.31652800  0.04368900  0.27782300  1
  H  509  1  0.39311300  0.01566600  0.27442200  1
  H  512  1  0.52752700  0.14194800  0.24664500  1
  H  513  1  0.50747800  0.17938100  0.24298300  1
  H  515  1  0.28307900  0.09791800  0.28357200  1
  H  516  1  0.26980700  0.08585500  0.26134500  1
  H  523  1  0.31266300  0.16448900  0.15946700  1
  H  526  1  0.45171800  0.07962700  0.18934400  1
  H  527  1  0.42679700  0.05746600  0.17169700  1
  H  528  1  0.41002600  0.03730300  0.19963700  1
  H  535  1  0.61801200  0.07572300  0.82601900  1
  H  538  1  0.67303400  0.18835300  0.85574700  1
  H  539  1  0.71905700  0.18694200  0.83820400  1
  H  540  1  0.75717700  0.18910700  0.86621800  1
  H  547  1  0.59692600  0.27232500  0.49278100  1
  H  550  1  0.40000100  0.24527400  0.52254200  1
  H  551  1  0.37936200  0.26886800  0.50490100  1
  H  552  1  0.35739800  0.28729300  0.53283900  1
  H  559  1  0.19508200  0.34341800  0.16054500  1
  H  562  1  0.07166000  0.43621500  0.19034300  1
  H  563  1  0.10088600  0.45669700  0.17276600  1
  H  564  1  0.12078000  0.47569800  0.20075100  1
  H  571  1  0.90776900  0.42762700  0.82741800  1
  H  574  1  0.82856300  0.31997300  0.85708300  1
  H  575  1  0.78354700  0.32439000  0.83940900  1
  H  576  1  0.74465100  0.32509200  0.86732000  1
  H  583  1  0.92387300  0.24161700  0.49395900  1
  H  586  1  0.12489300  0.25726700  0.52354200  1
  H  587  1  0.14088400  0.23242100  0.50594700  1
  H  588  1  0.15980700  0.21300300  0.53390800  1
  H  595  1  0.52136700  0.04707000  0.06871500  1
  H  598  1  0.98943900  0.47039000  0.12888100  1
  H  599  1  0.04394100  0.45153900  0.12069700  1
  H  600  1  0.93922400  0.44424700  0.10873000  1
  H  607  1  0.68821100  0.23962600  0.73558800  1
  H  610  1  0.82000700  0.26198700  0.79559000  1
  H  611  1  0.82106200  0.29867800  0.78741500  1
  H  612  1  0.88352100  0.24976700  0.77517800  1
  H  619  1  0.31640000  0.22672700  0.40204300  1
  H  622  1  0.21747200  0.28111300  0.46220900  1
  H  623  1  0.16193100  0.26326100  0.45405100  1
  H  624  1  0.20328600  0.31925400  0.44203600  1
  H  631  1  0.81708000  0.28277600  0.60635000  1
  H  634  1  0.71683000  0.22799100  0.54669700  1
  H  635  1  0.66091000  0.24484500  0.55523900  1
  H  636  1  0.70510400  0.18928300  0.56669000  1
  H  643  1  0.02189200  0.46105400  0.93973200  1
  H  646  1  0.49067500  0.03842000  0.87993700  1
  H  647  1  0.54391600  0.05789700  0.88852600  1
  H  648  1  0.43838700  0.06375400  0.89984900  1
  H  655  1  0.18684700  0.26938900  0.27299100  1
  H  658  1  0.31912500  0.24647800  0.21334400  1
  H  659  1  0.32185200  0.21012700  0.22193400  1
  H  660  1  0.38309700  0.26005700  0.23329900  1
  H  667  1  0.32626500  0.23720900  0.09324100  1
  H  670  1  0.14415900  0.24649800  0.05041400  1
  H  671  1  0.15878900  0.28479700  0.05099400  1
  H  672  1  0.10191400  0.25163700  0.07737800  1
  H  679  1  0.54149200  0.03360300  0.76898200  1
  H  682  1  0.07860900  0.45124800  0.71723800  1
  H  683  1  0.01379400  0.43949900  0.71772100  1
  H  684  1  0.09153800  0.42759600  0.74424500  1
  H  691  1  0.69920000  0.22917100  0.42645500  1
  H  694  1  0.80418800  0.31572200  0.38374200  1
  H  695  1  0.85436000  0.28927900  0.38430800  1
  H  696  1  0.83291900  0.33420700  0.41073600  1
  H  703  1  0.19904500  0.28054600  0.58251200  1
  H  706  1  0.30502300  0.19154800  0.62300400  1
  H  707  1  0.35552200  0.21777900  0.62275000  1
  H  708  1  0.33241200  0.17446800  0.59551900  1
  H  715  1  0.82768700  0.27114700  0.91574000  1
  H  718  1  0.64171000  0.26257900  0.95650600  1
  H  719  1  0.65588700  0.22422200  0.95621900  1
  H  720  1  0.60209100  0.25741400  0.92907300  1
  H  727  1  0.99919500  0.46139300  0.24911300  1
  H  730  1  0.57960700  0.05884600  0.28964500  1
  H  731  1  0.51501300  0.07098000  0.28938400  1
  H  732  1  0.59158200  0.08110900  0.26217200  1
  H  739  1  0.42241700  0.12440800  0.01164100  1
  H  742  1  0.64029300  0.14322200  0.01040100  1
  H  743  1  0.62730000  0.15490100  0.98839100  1
  H  744  1  0.64656900  0.09489800  0.00020700  1
  H  751  1  0.62262400  0.15121300  0.67818600  1
  H  754  1  0.48502200  0.25057300  0.67706300  1
  H  755  1  0.47385300  0.23821400  0.65506800  1
  H  756  1  0.55409000  0.27801900  0.66678400  1
  H  763  1  0.48206900  0.23750200  0.34488500  1
  H  766  1  0.40096700  0.11925200  0.34372700  1
  H  767  1  0.42502700  0.11984400  0.32172300  1
  H  768  1  0.32540000  0.14029700  0.33349900  1
  H  775  1  0.09596300  0.37860700  0.01207200  1
  H  778  1  0.87592100  0.37490500  0.01156100  1
  H  779  1  0.88567500  0.36054000  0.98993700  1
  H  780  1  0.87905400  0.42237500  0.99988200  1
  H  787  1  0.90398600  0.36074100  0.67871400  1
  H  790  1  0.01889300  0.25225800  0.67830500  1
  H  791  1  0.03575300  0.26431100  0.65669500  1
  H  792  1  0.94593000  0.23036400  0.66657800  1
  H  799  1  0.02632600  0.27378300  0.34539900  1
  H  802  1  0.13165300  0.38538300  0.34487100  1
  H  803  1  0.10513800  0.38780000  0.32326500  1
  H  804  1  0.20102900  0.35991200  0.33313500  1
  H  829  1  0.92054500  0.66874800  0.15167700  1
  H  830  1  0.96649000  0.69081400  0.12790900  1
  H  831  1  0.02827700  0.69494800  0.06803200  1
  H  832  1  0.04125300  0.67492600  0.03950500  1
  H  833  1  0.91843000  0.61431200  0.04767600  1
  H  834  1  0.84388900  0.61171200  0.11536700  1
  H  835  1  0.97003400  0.59167200  0.09138700  1
  H  836  1  0.88909600  0.51057500  0.08427100  1
  H  837  1  0.81520500  0.53722700  0.07469800  1
  H  838  1  0.85717100  0.69057100  0.08337100  1
  H  839  1  0.72106200  0.62629200  0.06138700  1
  H  840  1  0.70526700  0.67739400  0.06420700  1
  H  843  1  0.95499900  0.70226000  0.09282200  1
  H  844  1  0.00669000  0.67808200  0.09874600  1
  H  846  1  0.79513300  0.58714100  0.05691200  1
  H  847  1  0.76805400  0.58604200  0.07880300  1
  H  872  1  0.05635900  0.62763700  0.81826000  1
  H  873  1  0.00038100  0.63988400  0.79452300  1
  H  874  1  0.96328400  0.66907200  0.73463900  1
  H  875  1  0.98677000  0.68541200  0.70606200  1
  H  876  1  0.13926100  0.65465100  0.71431800  1
  H  877  1  0.18066100  0.61896600  0.78200000  1
  H  878  1  0.14708500  0.69299700  0.75735400  1
  H  879  1  0.30921600  0.69308200  0.75049500  1
  H  880  1  0.30653000  0.64245500  0.74172300  1
  H  881  1  0.05567400  0.58611400  0.75004200  1
  H  882  1  0.22044400  0.55047300  0.72829100  1
  H  883  1  0.15163100  0.51692600  0.73088100  1
  H  886  1  0.98919900  0.62893500  0.75947400  1
  H  887  1  0.99942400  0.66687800  0.76541700  1
  H  889  1  0.24234200  0.60701800  0.72399400  1
  H  890  1  0.25688700  0.59434400  0.74599100  1
  H  915  1  0.04947800  0.71629900  0.48493500  1
  H  916  1  0.05958700  0.68230700  0.46116200  1
  H  917  1  0.03478200  0.64936300  0.40127900  1
  H  918  1  0.99820900  0.65290400  0.37275800  1
  H  919  1  0.96868600  0.74461600  0.38096200  1
  H  920  1  0.00214700  0.78314900  0.44864600  1
  H  921  1  0.90901100  0.73011900  0.42467800  1
  H  922  1  0.82783900  0.81114300  0.41756000  1
  H  923  1  0.90474100  0.83474600  0.40797100  1
  H  924  1  0.11378300  0.73709800  0.41664500  1
  H  925  1  0.08540500  0.83727000  0.39463200  1
  H  926  1  0.16995800  0.81961400  0.39743800  1
  H  929  1  0.08242900  0.68234300  0.42606800  1
  H  930  1  0.02033800  0.66857400  0.43200300  1
  H  932  1  0.98964700  0.81978600  0.39016800  1
  H  933  1  0.00152500  0.83393000  0.41204700  1
  H  958  1  0.58429900  0.84756000  0.15366800  1
  H  959  1  0.53440000  0.82733700  0.13026500  1
  H  960  1  0.47759600  0.82019300  0.06994600  1
  H  961  1  0.46977000  0.83825100  0.04072000  1
  H  962  1  0.60071000  0.89316300  0.04828100  1
  H  963  1  0.67403400  0.89564300  0.11628100  1
  H  964  1  0.55159300  0.92224800  0.08980500  1
  H  965  1  0.64920800  0.99711300  0.08310000  1
  H  966  1  0.71809000  0.96541100  0.07514300  1
  H  967  1  0.64597700  0.81661200  0.08665100  1
  H  968  1  0.79522400  0.86993700  0.06426400  1
  H  969  1  0.79919600  0.81756300  0.06745700  1
  H  972  1  0.54597300  0.81182200  0.09589300  1
  H  973  1  0.49885600  0.83974300  0.10028700  1
  H  975  1  0.73070200  0.91363100  0.05859700  1
  H  976  1  0.75475600  0.91409800  0.08091600  1
  H  1001  1  0.45927000  0.86890500  0.82136300  1
  H  1002  1  0.51477300  0.85216000  0.79834200  1
  H  1003  1  0.55446400  0.82699100  0.73717700  1
  H  1004  1  0.53099400  0.81626500  0.70759100  1
  H  1005  1  0.38559700  0.85678300  0.71563800  1
  H  1006  1  0.34532700  0.89087500  0.78320500  1
  H  1007  1  0.36227100  0.81743400  0.75650600  1
  H  1008  1  0.20375600  0.83372900  0.74753400  1
  H  1009  1  0.22249600  0.88413900  0.74064000  1
  H  1010  1  0.48727600  0.91069100  0.75399300  1
  H  1011  1  0.33912000  0.96914400  0.73584200  1
  H  1012  1  0.42007900  0.99279200  0.74001000  1
  H  1015  1  0.53500200  0.86363700  0.76405200  1
  H  1016  1  0.51215100  0.82683000  0.76789600  1
  H  1018  1  0.29922500  0.91669000  0.72673400  1
  H  1019  1  0.28548900  0.92621800  0.74932100  1
  H  1044  1  0.48510600  0.79504100  0.48694500  1
  H  1045  1  0.47994400  0.83009700  0.46353700  1
  H  1046  1  0.49841500  0.86210200  0.40325600  1
  H  1047  1  0.52954500  0.85696400  0.37404300  1
  H  1048  1  0.54600000  0.76400500  0.38159600  1
  H  1049  1  0.51292000  0.72615100  0.44959500  1
  H  1050  1  0.61410300  0.77405200  0.42314600  1
  H  1051  1  0.67759200  0.68780300  0.41647900  1
  H  1052  1  0.59562500  0.66922200  0.40848600  1
  H  1053  1  0.40846300  0.77968200  0.41992500  1
  H  1054  1  0.41389100  0.67842000  0.39750400  1
  H  1055  1  0.33333500  0.70261300  0.40068500  1
  H  1058  1  0.45130000  0.83210300  0.42913500  1
  H  1059  1  0.51671200  0.84166900  0.43360800  1
  H  1061  1  0.51173800  0.68883100  0.39189200  1
  H  1062  1  0.50029500  0.67655000  0.41419900  1
  H  1087  1  0.54201000  0.79518900  0.52399500  1
  H  1088  1  0.55110600  0.82878500  0.54811600  1
  H  1089  1  0.53325400  0.85817700  0.60935500  1
  H  1090  1  0.49908400  0.85241700  0.63821600  1
  H  1091  1  0.46789200  0.76173300  0.62746100  1
  H  1092  1  0.50486200  0.72580500  0.55996500  1
  H  1093  1  0.40871800  0.77804900  0.58423700  1
  H  1094  1  0.32781300  0.69694900  0.59132300  1
  H  1095  1  0.40506900  0.67325200  0.60057000  1
  H  1096  1  0.61342300  0.77144300  0.59170200  1
  H  1097  1  0.58633900  0.67088000  0.61329900  1
  H  1098  1  0.67067300  0.68875900  0.61032100  1
  H  1101  1  0.57880400  0.82737100  0.58308200  1
  H  1102  1  0.51562900  0.84055200  0.57815100  1
  H  1104  1  0.49047400  0.68826500  0.61822700  1
  H  1105  1  0.50186100  0.67420200  0.59630100  1
  H  1130  1  0.42759000  0.84225900  0.85726400  1
  H  1131  1  0.47383600  0.82093200  0.88130000  1
  H  1132  1  0.52749500  0.81516800  0.94249100  1
  H  1133  1  0.53596700  0.83509400  0.97137500  1
  H  1134  1  0.41533200  0.89595100  0.96071500  1
  H  1135  1  0.34260800  0.89555100  0.89337700  1
  H  1136  1  0.46937100  0.91745800  0.91747300  1
  H  1137  1  0.38831900  0.99848200  0.92464600  1
  H  1138  1  0.31421200  0.97172700  0.93397900  1
  H  1139  1  0.35704100  0.81845000  0.92498500  1
  H  1140  1  0.22003100  0.88228500  0.94679300  1
  H  1141  1  0.20459900  0.83118900  0.94380100  1
  H  1144  1  0.45847400  0.80779100  0.91625100  1
  H  1145  1  0.50965600  0.83290700  0.91130000  1
  H  1147  1  0.29415200  0.92150900  0.95164900  1
  H  1148  1  0.26712300  0.92286900  0.92975900  1
  H  1173  1  0.55622300  0.87561400  0.19050300  1
  H  1174  1  0.50114900  0.86326800  0.21457200  1
  H  1175  1  0.46557200  0.83976600  0.27580100  1
  H  1176  1  0.49118800  0.82561500  0.30469500  1
  H  1177  1  0.64287400  0.85532600  0.29400300  1
  H  1178  1  0.67858600  0.89180400  0.22657700  1
  H  1179  1  0.64817600  0.81751600  0.25081200  1
  H  1180  1  0.81022300  0.81758800  0.25800800  1
  H  1181  1  0.80710100  0.86805200  0.26727600  1
  H  1182  1  0.55571400  0.92316900  0.25824200  1
  H  1183  1  0.71995500  0.95986800  0.27999800  1
  H  1184  1  0.65098000  0.99309400  0.27700200  1
  H  1187  1  0.48909800  0.87781500  0.24950400  1
  H  1188  1  0.50112900  0.83963800  0.24461700  1
  H  1190  1  0.74180200  0.90322700  0.28489100  1
  H  1191  1  0.75731700  0.91600400  0.26298400  1
  H  1216  1  0.99192400  0.71226400  0.52202200  1
  H  1217  1  0.98794500  0.67754200  0.54572000  1
  H  1218  1  0.00129200  0.64790200  0.60697200  1
  H  1219  1  0.02976400  0.65490400  0.63648200  1
  H  1220  1  0.04666400  0.74721900  0.62685400  1
  H  1221  1  0.01083800  0.78263600  0.55901900  1
  H  1222  1  0.11462700  0.73563700  0.58554300  1
  H  1223  1  0.17785300  0.82193300  0.59220500  1
  H  1224  1  0.09578600  0.84040000  0.60026400  1
  H  1225  1  0.90932100  0.72966500  0.58840100  1
  H  1226  1  0.91381000  0.83070400  0.61120700  1
  H  1227  1  0.83348400  0.80641100  0.60783400  1
  H  1230  1  0.95567800  0.67610100  0.57998000  1
  H  1231  1  0.02183800  0.66742100  0.57627100  1
  H  1233  1  0.01188300  0.82031100  0.61692400  1
  H  1234  1  0.00037900  0.83301200  0.59470700  1
  H  1259  1  0.07835800  0.65852300  0.85539400  1
  H  1260  1  0.02838300  0.67791700  0.87911000  1
  H  1261  1  0.97782200  0.68633300  0.94041700  1
  H  1262  1  0.97424000  0.66860500  0.96993800  1
  H  1263  1  0.10418500  0.61398200  0.96022900  1
  H  1264  1  0.17496400  0.61419900  0.89236600  1
  H  1265  1  0.05269100  0.58578100  0.91890000  1
  H  1266  1  0.15045500  0.51102600  0.92568900  1
  H  1267  1  0.21920100  0.54284200  0.93372400  1
  H  1268  1  0.14629200  0.69142000  0.92171800  1
  H  1269  1  0.29574200  0.63873100  0.94448500  1
  H  1270  1  0.29942600  0.69104000  0.94106300  1
  H  1273  1  0.04272200  0.69497700  0.91335200  1
  H  1274  1  0.99660600  0.66622200  0.90971500  1
  H  1276  1  0.23107800  0.59491400  0.95029700  1
  H  1277  1  0.25586000  0.59421700  0.92808000  1
  H  1302  1  0.95507100  0.64216900  0.18869000  1
  H  1303  1  0.00917633  0.65749100  0.21239700  1
  H  1304  1  0.04707600  0.67873500  0.27369000  1
  H  1305  1  0.02232700  0.68942300  0.30320800  1
  H  1306  1  0.87534400  0.65184300  0.29353200  1
  H  1307  1  0.84018200  0.61626700  0.22568700  1
  H  1308  1  0.85877600  0.69166600  0.25223200  1
  H  1309  1  0.69772000  0.68015300  0.25889500  1
  H  1310  1  0.71102500  0.62986800  0.26693100  1
  H  1311  1  0.97034000  0.59198300  0.25503700  1
  H  1312  1  0.81652700  0.54369100  0.27782300  1
  H  1313  1  0.89311400  0.51566600  0.27442200  1
  H  1316  1  0.02752700  0.64194800  0.24664500  1
  H  1317  1  0.00747900  0.67938300  0.24298300  1
  H  1319  1  0.78307900  0.59791900  0.28357200  1
  H  1320  1  0.76981000  0.58585500  0.26134500  1
  H  1327  1  0.81266300  0.66449000  0.15946700  1
  H  1330  1  0.95171900  0.57962800  0.18934400  1
  H  1331  1  0.92679800  0.55746600  0.17169700  1
  H  1332  1  0.91002800  0.53730300  0.19963700  1
  H  1339  1  0.11755300  0.57597500  0.82600200  1
  H  1342  1  0.17314000  0.68837000  0.85584200  1
  H  1343  1  0.21912000  0.68698700  0.83828400  1
  H  1344  1  0.25731700  0.68910300  0.86628000  1
  H  1351  1  0.09692800  0.77232300  0.49278300  1
  H  1354  1  0.90000200  0.74527300  0.52254600  1
  H  1355  1  0.87936200  0.76886500  0.50490300  1
  H  1356  1  0.85739800  0.78729400  0.53284000  1
  H  1363  1  0.69508300  0.84341800  0.16054500  1
  H  1366  1  0.57166100  0.93621600  0.19034300  1
  H  1367  1  0.60088500  0.95669800  0.17276600  1
  H  1368  1  0.62078000  0.97569900  0.20075100  1
  H  1375  1  0.41035900  0.92703800  0.82768000  1
  H  1378  1  0.32848600  0.82002100  0.85705200  1
  H  1379  1  0.28363800  0.82464500  0.83934400  1
  H  1380  1  0.24457800  0.82523100  0.86723000  1
  H  1387  1  0.42387600  0.74163300  0.49397600  1
  H  1390  1  0.62489600  0.75727900  0.52356600  1
  H  1391  1  0.64087400  0.73245300  0.50596100  1
  H  1392  1  0.65980700  0.71299700  0.53391100  1
  H  1399  1  0.02136600  0.54707100  0.06871500  1
  H  1402  1  0.48943800  0.97039100  0.12888100  1
  H  1403  1  0.54394100  0.95153700  0.12069700  1
  H  1404  1  0.43922800  0.94424700  0.10873000  1
  H  1411  1  0.18626700  0.74275000  0.73535500  1
  H  1414  1  0.31834800  0.76417100  0.79491000  1
  H  1415  1  0.32334500  0.80039400  0.78629900  1
  H  1416  1  0.38263600  0.74943300  0.77535000  1
  H  1423  1  0.81640100  0.72672700  0.40204300  1
  H  1426  1  0.71747200  0.78111400  0.46220900  1
  H  1427  1  0.66193200  0.76326200  0.45405100  1
  H  1428  1  0.70328500  0.81925500  0.44203600  1
  H  1435  1  0.31707100  0.78277900  0.60635100  1
  H  1438  1  0.21682500  0.72799400  0.54669700  1
  H  1439  1  0.16090400  0.74484400  0.55524100  1
  H  1440  1  0.20510600  0.68928400  0.56668900  1
  H  1447  1  0.52189800  0.96105700  0.93973300  1
  H  1450  1  0.99068100  0.53842300  0.87993800  1
  H  1451  1  0.04391900  0.55790200  0.88852900  1
  H  1452  1  0.93838800  0.56375500  0.89984900  1
  H  1459  1  0.68684800  0.76939000  0.27299100  1
  H  1462  1  0.81912500  0.74647900  0.21334400  1
  H  1463  1  0.82185200  0.71012800  0.22193400  1
  H  1464  1  0.88309600  0.76005800  0.23329900  1
  H  1471  1  0.82626400  0.73721000  0.09324100  1
  H  1474  1  0.64415800  0.74649900  0.05041400  1
  H  1475  1  0.65878900  0.78479800  0.05099400  1
  H  1476  1  0.60191300  0.75163800  0.07737800  1
  H  1483  1  0.00089200  0.54723400  0.75970600  1
  H  1486  1  0.57270900  0.95465600  0.70943300  1
  H  1487  1  0.50871100  0.94339600  0.71395800  1
  H  1488  1  0.59981000  0.92477500  0.73295700  1
  H  1495  1  0.19919900  0.72917200  0.42645500  1
  H  1498  1  0.30419000  0.81572200  0.38374400  1
  H  1499  1  0.35436200  0.78928000  0.38430800  1
  H  1500  1  0.33292100  0.83420700  0.41073600  1
  H  1507  1  0.69903300  0.78055300  0.58251600  1
  H  1510  1  0.80501200  0.69154700  0.62300300  1
  H  1511  1  0.85550900  0.71778000  0.62275000  1
  H  1512  1  0.83240800  0.67447000  0.59551900  1
  H  1519  1  0.32768600  0.77115200  0.91574300  1
  H  1522  1  0.14170700  0.76258000  0.95650600  1
  H  1523  1  0.15588500  0.72422300  0.95621900  1
  H  1524  1  0.10209100  0.75741700  0.92907500  1
  H  1531  1  0.49919500  0.96139400  0.24911300  1
  H  1534  1  0.07960800  0.55884700  0.28964500  1
  H  1535  1  0.01501400  0.57098000  0.28938400  1
  H  1536  1  0.09158400  0.58110900  0.26217200  1
  H  1543  1  0.92241500  0.62440600  0.01164500  1
  H  1546  1  0.14029000  0.64322200  0.01040200  1
  H  1547  1  0.12729600  0.65490100  0.98839400  1
  H  1548  1  0.14657000  0.59489800  0.00020800  1
  H  1555  1  0.12212200  0.65120600  0.67830400  1
  H  1558  1  0.98481100  0.75065200  0.67697500  1
  H  1559  1  0.97381600  0.73832500  0.65496500  1
  H  1560  1  0.05408400  0.77802200  0.66679400  1
  H  1567  1  0.98207100  0.73750200  0.34488700  1
  H  1570  1  0.90096600  0.61925200  0.34372700  1
  H  1571  1  0.92502600  0.61984400  0.32172300  1
  H  1572  1  0.82540100  0.64029700  0.33349900  1
  H  1579  1  0.59597500  0.87861000  0.01208200  1
  H  1582  1  0.37592700  0.87490400  0.01156300  1
  H  1583  1  0.38568700  0.86053800  0.98994100  1
  H  1584  1  0.37905800  0.92237600  0.99988400  1
  H  1591  1  0.40643900  0.86093800  0.67937300  1
  H  1594  1  0.51945500  0.75191200  0.67810800  1
  H  1595  1  0.53577000  0.76398300  0.65645500  1
  H  1596  1  0.44573300  0.73047800  0.66666667  1
  H  1603  1  0.52632700  0.77378400  0.34539900  1
  H  1606  1  0.63165200  0.88538400  0.34487100  1
  H  1607  1  0.60513800  0.88779900  0.32326500  1
  H  1608  1  0.70102800  0.85991300  0.33313500  1
  N  518  1  0.33748100  0.14182400  0.18162800  1
  N  521  1  0.38059900  0.10256300  0.15925100  1
  N  530  1  0.63842000  0.09978900  0.84824700  1
  N  533  1  0.67543100  0.14096600  0.82585100  1
  N  542  1  0.55036000  0.27120300  0.51490100  1
  N  545  1  0.47010300  0.26938000  0.49250900  1
  N  554  1  0.17436900  0.36736100  0.18280500  1
  N  557  1  0.13850600  0.40901700  0.16040400  1
  N  566  1  0.88152400  0.40536000  0.84952100  1
  N  569  1  0.83674600  0.36689600  0.82707700  1
  N  578  1  0.97038100  0.24012200  0.51615300  1
  N  581  1  0.05045000  0.23733200  0.49370300  1
  N  590  1  0.05281000  0.50784000  0.07802900  1
  N  593  1  0.47872300  0.00691200  0.10276700  1
  N  602  1  0.73161800  0.27496300  0.74477100  1
  N  605  1  0.76925500  0.23863200  0.76975100  1
  N  614  1  0.24185000  0.23063400  0.41137300  1
  N  617  1  0.27755900  0.26816900  0.43608600  1
  N  626  1  0.74243600  0.27915000  0.59703400  1
  N  629  1  0.77717900  0.24001700  0.57306100  1
  N  638  1  0.55390500  0.00015100  0.93042800  1
  N  641  1  0.97824800  0.50225700  0.90628400  1
  N  650  1  0.22960600  0.23384700  0.26369900  1
  N  653  1  0.27103000  0.27074500  0.23970000  1
  N  662  1  0.27451200  0.27071800  0.08734200  1
  N  665  1  0.22086100  0.23096700  0.06895900  1
  N  674  1  0.97658800  0.50457600  0.75382700  1
  N  677  1  0.56831600  0.99772900  0.73148300  1
  N  686  1  0.77533700  0.23832600  0.42057500  1
  N  689  1  0.74254200  0.28507000  0.40224400  1
  N  698  1  0.27531700  0.27120500  0.58808400  1
  N  701  1  0.24311100  0.22313900  0.60521600  1
  N  710  1  0.77547900  0.23771000  0.92131500  1
  N  713  1  0.71991700  0.27777600  0.93865600  1
  N  722  1  0.47506000  0.00419700  0.25469000  1
  N  725  1  0.06321900  0.51211800  0.27183900  1
  N  734  1  0.47862300  0.12512600  0.99198600  1
  N  737  1  0.54722200  0.13276500  0.01755600  1
  N  746  1  0.59295900  0.17880400  0.65851500  1
  N  749  1  0.54765400  0.20940900  0.68415700  1
  N  758  1  0.45498900  0.20903800  0.32524700  1
  N  761  1  0.43187800  0.17102700  0.35084900  1
  N  770  1  0.03964200  0.37972000  0.99242800  1
  N  773  1  0.97047000  0.37997600  0.01822000  1
  N  782  1  0.93027700  0.33189400  0.65913900  1
  N  785  1  0.96446800  0.29722800  0.68497100  1
  N  794  1  0.05615800  0.30135400  0.32574600  1
  N  797  1  0.09168900  0.33564500  0.35152700  1
  N  1322  1  0.83748200  0.64182500  0.18162800  1
  N  1325  1  0.88060000  0.60256300  0.15925100  1
  N  1334  1  0.13832800  0.59985600  0.84826300  1
  N  1337  1  0.17519700  0.64115700  0.82592200  1
  N  1346  1  0.05036200  0.77120100  0.51490400  1
  N  1349  1  0.97010400  0.76937800  0.49251100  1
  N  1358  1  0.67436900  0.86736100  0.18280500  1
  N  1361  1  0.63850600  0.90901800  0.16040500  1
  N  1370  1  0.38226700  0.90528900  0.84969900  1
  N  1373  1  0.33865700  0.86654800  0.82717900  1
  N  1382  1  0.47038300  0.74015000  0.51617200  1
  N  1385  1  0.55044500  0.73734800  0.49372200  1
  N  1394  1  0.55280900  0.00784000  0.07802900  1
  N  1397  1  0.97872400  0.50691300  0.10276700  1
  N  1406  1  0.23020600  0.77794000  0.74460500  1
  N  1409  1  0.27089200  0.74040000  0.76829500  1
  N  1418  1  0.74185000  0.73063500  0.41137300  1
  N  1421  1  0.77756100  0.76817000  0.43608600  1
  N  1430  1  0.24243100  0.77915300  0.59703500  1
  N  1433  1  0.27717200  0.74001400  0.57306200  1
  N  1442  1  0.05390200  0.50015000  0.93043000  1
  N  1445  1  0.47824500  0.00225600  0.90628400  1
  N  1454  1  0.72960700  0.73384700  0.26369900  1
  N  1457  1  0.77103000  0.77074600  0.23970000  1
  N  1466  1  0.77451300  0.77071900  0.08734200  1
  N  1469  1  0.72086000  0.73096800  0.06895900  1
  N  1478  1  0.51049400  0.99308500  0.76088000  1
  N  1481  1  0.06343600  0.49754100  0.73568200  1
  N  1490  1  0.27533800  0.73832700  0.42057600  1
  N  1493  1  0.24254300  0.78507100  0.40224400  1
  N  1502  1  0.77530900  0.77120800  0.58808600  1
  N  1505  1  0.74309900  0.72314400  0.60521900  1
  N  1514  1  0.27548200  0.73771200  0.92131500  1
  N  1517  1  0.21991400  0.77777600  0.93865700  1
  N  1526  1  0.97506000  0.50419600  0.25469000  1
  N  1529  1  0.56321600  0.01211900  0.27183900  1
  N  1538  1  0.97861700  0.62512300  0.99199000  1
  N  1541  1  0.04722200  0.63276400  0.01755900  1
  N  1550  1  0.09278800  0.67879500  0.65856500  1
  N  1553  1  0.04716500  0.70946000  0.68412400  1
  N  1562  1  0.95498800  0.70903800  0.32524700  1
  N  1565  1  0.93187900  0.67102700  0.35084900  1
  N  1574  1  0.53966100  0.87972000  0.99243600  1
  N  1577  1  0.47047800  0.87997900  0.01822600  1
  N  1586  1  0.43118900  0.83205800  0.65954900  1
  N  1589  1  0.46666300  0.79723800  0.68506300  1
  N  1598  1  0.55615800  0.80135500  0.32574600  1
  N  1601  1  0.59168700  0.83564600  0.35152700  1
  O  525  1  0.38754100  0.05382200  0.19574100  1
  O  537  1  0.74393300  0.16951000  0.86237400  1
  O  549  1  0.39344700  0.29025800  0.52896900  1
  O  561  1  0.14014200  0.45788600  0.19689800  1
  O  573  1  0.76192000  0.34360800  0.86346600  1
  O  585  1  0.12336400  0.21219100  0.53010400  1
  O  597  1  0.97449800  0.43655700  0.11066200  1
  O  609  1  0.87769700  0.27126600  0.77714700  1
  O  621  1  0.17413000  0.30545800  0.44398600  1
  O  633  1  0.67533100  0.20274200  0.56503500  1
  O  645  1  0.47350700  0.07186200  0.89822300  1
  O  657  1  0.37779900  0.23843600  0.23167600  1
  O  669  1  0.10944900  0.27023600  0.07082100  1
  O  681  1  0.05994500  0.42209600  0.73763800  1
  O  693  1  0.85708500  0.32117100  0.40417200  1
  O  705  1  0.35701800  0.18702600  0.60222100  1
  O  717  1  0.60873800  0.23883300  0.93576200  1
  O  729  1  0.56043000  0.08712700  0.26887000  1
  O  741  1  0.64794500  0.11068400  0.99102000  1
  O  753  1  0.52968500  0.27075600  0.65762500  1
  O  765  1  0.34839500  0.13168300  0.32432400  1
  O  777  1  0.87418000  0.40602600  0.99120600  1
  O  789  1  0.97297700  0.23602900  0.65791800  1
  O  801  1  0.17898400  0.37059800  0.32447900  1
  O  1329  1  0.88754200  0.55382200  0.19574100  1
  O  1341  1  0.24405300  0.66951200  0.86243300  1
  O  1353  1  0.89344700  0.79025800  0.52897000  1
  O  1365  1  0.64014300  0.95788700  0.19689800  1
  O  1377  1  0.26194900  0.84374500  0.86342600  1
  O  1389  1  0.62336000  0.71219500  0.53010900  1
  O  1401  1  0.47449700  0.93655800  0.11066200  1
  O  1413  1  0.37837300  0.77113000  0.77696000  1
  O  1425  1  0.67413200  0.80545900  0.44398600  1
  O  1437  1  0.17533300  0.70274200  0.56503500  1
  O  1449  1  0.97350800  0.57186200  0.89822400  1
  O  1461  1  0.87780000  0.73843600  0.23167600  1
  O  1473  1  0.60945300  0.77023600  0.07082100  1
  O  1485  1  0.56465700  0.92112200  0.72833500  1
  O  1497  1  0.35708700  0.82117100  0.40417200  1
  O  1509  1  0.85701200  0.68702800  0.60222100  1
  O  1521  1  0.10873700  0.73883400  0.93576300  1
  O  1533  1  0.06043300  0.58712800  0.26887000  1
  O  1545  1  0.14794400  0.61068400  0.99102100  1
  O  1557  1  0.02973800  0.77080600  0.65760400  1
  O  1569  1  0.84839400  0.63168500  0.32432400  1
  O  1581  1  0.37418300  0.90602400  0.99120900  1
  O  1593  1  0.47259400  0.73602300  0.65789600  1
  O  1605  1  0.67898600  0.87059800  0.32447900  1
