# generated using pymatgen
data_H10C18NO2
_symmetry_space_group_name_H-M   'P 1'
_cell_length_a   32.91280000
_cell_length_b   56.40840000
_cell_length_c   56.40850000
_cell_angle_alpha   90.00000000
_cell_angle_beta   90.00000000
_cell_angle_gamma   90.00000000
_symmetry_Int_Tables_number   1
_chemical_formula_structural   H10C18NO2
_chemical_formula_sum   'H640 C1152 N64 O128'
_cell_volume   104725.67380242
_cell_formula_units_Z   64
loop_
 _symmetry_equiv_pos_site_id
 _symmetry_equiv_pos_as_xyz
  1  'x, y, z'
loop_
 _atom_site_type_symbol
 _atom_site_label
 _atom_site_symmetry_multiplicity
 _atom_site_fract_x
 _atom_site_fract_y
 _atom_site_fract_z
 _atom_site_occupancy
  H  7  1  0.82299700  0.16410000  0.37317600  1
  H  8  1  0.92513000  0.13111200  0.40400500  1
  H  9  1  0.87887800  0.19415900  0.43302000  1
  H  16  1  0.86161400  0.14989700  0.33931400  1
  H  17  1  0.87019700  0.07831500  0.31994800  1
  H  18  1  0.88407600  0.09801100  0.39126900  1
  H  25  1  0.32305100  0.33097400  0.60768200  1
  H  26  1  0.42511800  0.36402000  0.57684600  1
  H  27  1  0.37893800  0.30095700  0.54782400  1
  H  34  1  0.36164100  0.34518100  0.64154500  1
  H  35  1  0.37006900  0.41675900  0.66093600  1
  H  36  1  0.38404900  0.39709300  0.58961200  1
  H  43  1  0.06954600  0.86307700  0.90506200  1
  H  44  1  0.16927300  0.83128100  0.87058500  1
  H  45  1  0.12574600  0.80310900  0.93473300  1
  H  52  1  0.11278600  0.89640700  0.89094000  1
  H  53  1  0.11550000  0.91616000  0.81911800  1
  H  54  1  0.12255300  0.84423100  0.83781000  1
  H  61  1  0.56948100  0.63199500  0.07584300  1
  H  62  1  0.66924800  0.66380000  0.11027400  1
  H  63  1  0.62562700  0.69197000  0.04614500  1
  H  70  1  0.61280200  0.59867300  0.08993600  1
  H  71  1  0.61555400  0.57891400  0.16175700  1
  H  72  1  0.62251800  0.65084600  0.14307400  1
  H  79  1  0.66850700  0.33276600  0.37045100  1
  H  80  1  0.56610600  0.36149800  0.40502100  1
  H  81  1  0.62622200  0.30248700  0.43386200  1
  H  88  1  0.62633400  0.34589400  0.33785200  1
  H  89  1  0.61170500  0.41773200  0.32047700  1
  H  90  1  0.60263200  0.39600300  0.39135800  1
  H  97  1  0.16853500  0.16229900  0.61037400  1
  H  98  1  0.06614100  0.13362800  0.57574800  1
  H  99  1  0.12639700  0.19261000  0.54694400  1
  H  106  1  0.12626400  0.14919800  0.64295600  1
  H  107  1  0.11153900  0.07736000  0.66031000  1
  H  108  1  0.10261100  0.09910400  0.58942500  1
  H  115  1  0.42330700  0.62939400  0.90320400  1
  H  116  1  0.32392900  0.66573200  0.87315400  1
  H  117  1  0.38301900  0.69350800  0.93306000  1
  H  124  1  0.37612500  0.59773900  0.89058900  1
  H  125  1  0.36363700  0.57957300  0.81860700  1
  H  126  1  0.36431200  0.65112600  0.83876700  1
  H  133  1  0.92321000  0.86569600  0.07764500  1
  H  134  1  0.82380500  0.82932200  0.10762100  1
  H  135  1  0.88301900  0.80157800  0.04774600  1
  H  142  1  0.87600100  0.89734000  0.09027600  1
  H  143  1  0.86324900  0.91542400  0.16226500  1
  H  144  1  0.86414200  0.84389400  0.14203200  1
  H  151  1  0.17724900  0.83334200  0.60508600  1
  H  152  1  0.07600200  0.86725400  0.57429300  1
  H  153  1  0.12028100  0.80364800  0.54539500  1
  H  160  1  0.13727100  0.84733100  0.63885900  1
  H  161  1  0.13040400  0.91895400  0.65889700  1
  H  162  1  0.12000900  0.90027700  0.58716700  1
  H  169  1  0.67725700  0.66174200  0.37574800  1
  H  170  1  0.57602300  0.62790300  0.40663600  1
  H  171  1  0.62049800  0.69148400  0.43548400  1
  H  178  1  0.63719300  0.64776500  0.34200900  1
  H  179  1  0.63018700  0.57613600  0.32200500  1
  H  180  1  0.61993000  0.59484800  0.39373500  1
  H  187  1  0.91979800  0.12965200  0.07294000  1
  H  188  1  0.82126500  0.16167500  0.10834700  1
  H  189  1  0.86418400  0.19032500  0.04428000  1
  H  196  1  0.87591800  0.09606200  0.08766800  1
  H  197  1  0.87533800  0.07695400  0.15965600  1
  H  198  1  0.86946200  0.14891000  0.14048000  1
  H  205  1  0.41977000  0.36540300  0.90792700  1
  H  206  1  0.32123400  0.33341000  0.87249600  1
  H  207  1  0.36408100  0.30474700  0.93657500  1
  H  214  1  0.37593600  0.39900600  0.89318300  1
  H  215  1  0.37533500  0.41810400  0.82119400  1
  H  216  1  0.36947700  0.34615200  0.84037500  1
  H  223  1  0.32008600  0.65958300  0.60750100  1
  H  224  1  0.42080000  0.63027100  0.57178600  1
  H  225  1  0.35990300  0.68910700  0.54316100  1
  H  232  1  0.36512600  0.64788400  0.63940900  1
  H  233  1  0.38331000  0.57672100  0.65901200  1
  H  234  1  0.38393300  0.59561700  0.58719300  1
  H  241  1  0.82015900  0.83554900  0.37331400  1
  H  242  1  0.92082200  0.86487000  0.40906800  1
  H  243  1  0.85986400  0.80605600  0.43768800  1
  H  250  1  0.86518400  0.84723200  0.34142200  1
  H  251  1  0.88341700  0.91837800  0.32178500  1
  H  252  1  0.88405800  0.89951500  0.39361300  1
  H  259  1  0.57519000  0.36775400  0.07628500  1
  H  260  1  0.67356200  0.33061200  0.10646200  1
  H  261  1  0.61106700  0.30193200  0.04819200  1
  H  268  1  0.62692700  0.39894200  0.08693400  1
  H  269  1  0.64139900  0.41940000  0.15816000  1
  H  270  1  0.63339600  0.34718900  0.14078300  1
  H  277  1  0.07519100  0.12729900  0.90453200  1
  H  278  1  0.17353600  0.16446200  0.87435100  1
  H  279  1  0.11105300  0.19312200  0.93263400  1
  H  286  1  0.12692200  0.09612100  0.89386700  1
  H  287  1  0.14131700  0.07568600  0.82263000  1
  H  288  1  0.13335300  0.14788800  0.84002800  1
  H  295  1  0.79513500  0.19453800  0.43646800  1
  H  302  1  0.70721200  0.24891200  0.36970300  1
  H  303  1  0.65962900  0.28102000  0.36935900  1
  H  304  1  0.71230100  0.30826600  0.43207000  1
  H  305  1  0.83508300  0.21295400  0.36784700  1
  H  306  1  0.76068400  0.27657100  0.43203200  1
  H  307  1  0.78951400  0.24589400  0.36750300  1
  H  317  1  0.29518700  0.30054700  0.54440000  1
  H  324  1  0.20738100  0.24612800  0.61116000  1
  H  325  1  0.15977800  0.21403400  0.61148900  1
  H  326  1  0.21241200  0.18681300  0.54875600  1
  H  327  1  0.33523500  0.28211400  0.61299500  1
  H  328  1  0.26081700  0.21849800  0.54880900  1
  H  329  1  0.28970500  0.24915300  0.61334200  1
  H  339  1  0.04167300  0.80007200  0.93655600  1
  H  346  1  0.95806000  0.86693100  0.99312200  1
  H  347  1  0.91270100  0.86670100  0.02632100  1
  H  348  1  0.96911300  0.80449700  0.05212900  1
  H  349  1  0.08405200  0.86855700  0.95357100  1
  H  350  1  0.01519700  0.80508800  0.01930900  1
  H  351  1  0.04094200  0.86932800  0.98764400  1
  H  361  1  0.54153500  0.69499600  0.04435600  1
  H  368  1  0.45800200  0.62813700  0.98772700  1
  H  369  1  0.41270300  0.62837100  0.95450000  1
  H  370  1  0.46909200  0.69061400  0.92876600  1
  H  371  1  0.58396800  0.62652900  0.02732100  1
  H  372  1  0.51511600  0.69002000  0.96161000  1
  H  373  1  0.54087500  0.62576100  0.99324200  1
  H  383  1  0.20471700  0.80181500  0.54215100  1
  H  390  1  0.28651600  0.74404000  0.60879700  1
  H  391  1  0.33079600  0.71037700  0.60851700  1
  H  392  1  0.27413100  0.68549400  0.54600600  1
  H  393  1  0.16182300  0.78473200  0.61051400  1
  H  394  1  0.22909000  0.71881100  0.54664100  1
  H  395  1  0.20403000  0.75029300  0.61108900  1
  H  405  1  0.70492400  0.69328000  0.43865700  1
  H  412  1  0.78659400  0.75110500  0.37199900  1
  H  413  1  0.83083300  0.78478000  0.37229000  1
  H  414  1  0.77415600  0.80961500  0.43481700  1
  H  415  1  0.66188900  0.71036200  0.37032500  1
  H  416  1  0.72915200  0.77628000  0.43416900  1
  H  417  1  0.70407600  0.74481100  0.36972400  1
  H  427  1  0.94775700  0.19332100  0.04274600  1
  H  434  1  0.03439800  0.12702000  0.98726300  1
  H  435  1  0.08146000  0.12726000  0.95489900  1
  H  436  1  0.02675100  0.18964700  0.92830000  1
  H  437  1  0.90670600  0.12491500  0.02439600  1
  H  438  1  0.97905800  0.18908000  0.96030900  1
  H  439  1  0.95143600  0.12458200  0.99103500  1
  H  449  1  0.44768000  0.30173200  0.93811000  1
  H  456  1  0.53433100  0.36803000  0.99357600  1
  H  457  1  0.58142800  0.36779500  0.02592100  1
  H  458  1  0.52677700  0.30539600  0.05253500  1
  H  459  1  0.40664500  0.37014200  0.95646900  1
  H  460  1  0.47904800  0.30596000  0.02054500  1
  H  461  1  0.45138100  0.37046400  0.98983000  1
  H  471  1  0.29928100  0.69502800  0.93721900  1
  H  478  1  0.20924500  0.74851300  0.87095600  1
  H  479  1  0.16057100  0.78006300  0.87036000  1
  H  480  1  0.21150000  0.80796500  0.93326900  1
  H  481  1  0.33764400  0.71432800  0.86854300  1
  H  482  1  0.26094200  0.77684700  0.93348700  1
  H  483  1  0.29127100  0.74689100  0.86872700  1
  H  493  1  0.79923400  0.80002600  0.04356500  1
  H  500  1  0.70925700  0.74656600  0.10986000  1
  H  501  1  0.66056100  0.71503000  0.11049000  1
  H  502  1  0.71137700  0.68709800  0.04756100  1
  H  503  1  0.83763500  0.78073100  0.11223500  1
  H  504  1  0.76084500  0.71820200  0.04731400  1
  H  505  1  0.79127700  0.74816500  0.11206000  1
  H  515  1  0.54185400  0.29808900  0.43589700  1
  H  522  1  0.45710800  0.36449200  0.49227300  1
  H  523  1  0.41181600  0.36491700  0.52546700  1
  H  524  1  0.46613800  0.30217800  0.55153800  1
  H  525  1  0.58213300  0.36682700  0.45363200  1
  H  526  1  0.51233900  0.30215400  0.51872700  1
  H  527  1  0.53889700  0.36685700  0.48760900  1
  H  537  1  0.04198100  0.19704500  0.54490200  1
  H  544  1  0.95722700  0.13064500  0.48854700  1
  H  545  1  0.91187700  0.13021000  0.45538000  1
  H  546  1  0.96607200  0.19297700  0.42929000  1
  H  547  1  0.08225400  0.12831300  0.52713300  1
  H  548  1  0.01233600  0.19301200  0.46207000  1
  H  549  1  0.03900800  0.12829800  0.49316000  1
  H  559  1  0.69578800  0.30018200  0.04333600  1
  H  566  1  0.78436400  0.24507300  0.10917600  1
  H  567  1  0.83171100  0.21282100  0.10905200  1
  H  568  1  0.77789900  0.18618900  0.04641400  1
  H  569  1  0.65714600  0.28158800  0.11214700  1
  H  570  1  0.72979000  0.21799800  0.04692600  1
  H  571  1  0.70217700  0.24834200  0.11191100  1
  H  581  1  0.19577500  0.19488800  0.93747600  1
  H  588  1  0.28427700  0.25002500  0.87164500  1
  H  589  1  0.33163400  0.28226800  0.87178400  1
  H  590  1  0.27781900  0.30889000  0.93442700  1
  H  591  1  0.15707500  0.21348600  0.86867800  1
  H  592  1  0.22970000  0.27708500  0.93390000  1
  H  593  1  0.20207200  0.24674700  0.86891300  1
  H  603  1  0.44404000  0.69389100  0.54237900  1
  H  610  1  0.53556400  0.62791700  0.48940100  1
  H  611  1  0.58477900  0.62735500  0.45814400  1
  H  612  1  0.53441000  0.69032800  0.43003800  1
  H  613  1  0.40679700  0.62510900  0.52272100  1
  H  614  1  0.48438300  0.69049500  0.46084500  1
  H  615  1  0.45374500  0.62553300  0.49044000  1
  H  625  1  0.94400800  0.80126900  0.43852300  1
  H  632  1  0.03543200  0.86725900  0.49152300  1
  H  633  1  0.08464800  0.86780900  0.52277900  1
  H  634  1  0.03422600  0.80485200  0.55088900  1
  H  635  1  0.90671800  0.87006000  0.45812400  1
  H  636  1  0.98419600  0.80469800  0.52008100  1
  H  637  1  0.95360300  0.86965100  0.49044000  1
  H  647  1  0.90467300  0.14775600  0.30178300  1
  H  654  1  0.80474200  0.14159900  0.21826700  1
  H  655  1  0.81102300  0.13507500  0.17633200  1
  H  656  1  0.92784700  0.10579000  0.18691700  1
  H  657  1  0.81349600  0.09574400  0.29410600  1
  H  658  1  0.92175500  0.11251700  0.22859700  1
  H  659  1  0.81328900  0.10192400  0.25231100  1
  H  669  1  0.40470600  0.34734900  0.67907300  1
  H  676  1  0.30481200  0.35338200  0.76259600  1
  H  677  1  0.31109500  0.35989700  0.80452600  1
  H  678  1  0.42779800  0.38934500  0.79392300  1
  H  679  1  0.31340100  0.39928100  0.68675700  1
  H  680  1  0.42169400  0.38262400  0.75223800  1
  H  681  1  0.31319800  0.39309200  0.72855700  1
  H  691  1  0.15898700  0.93193400  0.88822800  1
  H  698  1  0.06484200  0.01806100  0.88564700  1
  H  699  1  0.07275100  0.05994700  0.88009100  1
  H  700  1  0.19006700  0.04859900  0.85182000  1
  H  701  1  0.06549500  0.94461300  0.83865600  1
  H  702  1  0.18220500  0.00687500  0.85743300  1
  H  703  1  0.07017100  0.98605900  0.84614400  1
  H  713  1  0.65901200  0.56315200  0.09261800  1
  H  720  1  0.56485100  0.47703500  0.09522500  1
  H  721  1  0.57274400  0.43514600  0.10075500  1
  H  722  1  0.69013000  0.44645800  0.12893900  1
  H  723  1  0.56558000  0.55044600  0.14222300  1
  H  724  1  0.68229100  0.48817400  0.12335200  1
  H  725  1  0.57026800  0.50899900  0.13471600  1
  H  735  1  0.58934600  0.34612800  0.29873000  1
  H  742  1  0.70301300  0.36454700  0.22201100  1
  H  743  1  0.70317100  0.37090000  0.17985400  1
  H  744  1  0.57619600  0.38193300  0.18145300  1
  H  745  1  0.67016500  0.40411500  0.29594700  1
  H  746  1  0.57603800  0.37578400  0.22335500  1
  H  747  1  0.67802000  0.39859300  0.25444900  1
  H  757  1  0.08919000  0.14894400  0.68207100  1
  H  764  1  0.20284900  0.13056900  0.75876300  1
  H  765  1  0.20306600  0.12424000  0.80092000  1
  H  766  1  0.07611000  0.11310700  0.79936900  1
  H  767  1  0.17002700  0.09096500  0.68484500  1
  H  768  1  0.07590300  0.11924000  0.75745900  1
  H  769  1  0.17788100  0.09647900  0.72634800  1
  H  779  1  0.33366400  0.56025500  0.89011900  1
  H  786  1  0.44131800  0.48008600  0.87840500  1
  H  787  1  0.43977800  0.43787800  0.87279800  1
  H  788  1  0.31482300  0.44175900  0.85602900  1
  H  789  1  0.41822100  0.55278700  0.83439900  1
  H  790  1  0.31630900  0.48374900  0.86166600  1
  H  791  1  0.42154200  0.51131800  0.84146200  1
  H  801  1  0.83361900  0.93481800  0.09068800  1
  H  808  1  0.94135500  0.01490200  0.10274700  1
  H  809  1  0.93987500  0.05711400  0.10832100  1
  H  810  1  0.81472000  0.05337200  0.12459900  1
  H  811  1  0.91780800  0.94225000  0.14660100  1
  H  812  1  0.81613900  0.01138700  0.11900700  1
  H  813  1  0.92119300  0.98372100  0.13956000  1
  H  823  1  0.09549500  0.84797700  0.67560600  1
  H  830  1  0.19212200  0.85589700  0.76080400  1
  H  831  1  0.18368800  0.86148500  0.80273500  1
  H  832  1  0.06336100  0.88501400  0.79130800  1
  H  833  1  0.18312800  0.90155400  0.68611300  1
  H  834  1  0.07161600  0.87922600  0.74961200  1
  H  835  1  0.18139400  0.89446400  0.72768800  1
  H  845  1  0.59538600  0.64712400  0.30526400  1
  H  852  1  0.69205700  0.63913500  0.22011400  1
  H  853  1  0.68368900  0.63356500  0.17818100  1
  H  854  1  0.56330700  0.61008800  0.18953500  1
  H  855  1  0.68293000  0.59349100  0.29479200  1
  H  856  1  0.57151100  0.61586400  0.23124200  1
  H  857  1  0.68124000  0.60056800  0.25321000  1
  H  867  1  0.40193500  0.65062100  0.67758800  1
  H  874  1  0.29380800  0.62983400  0.75698500  1
  H  875  1  0.29606900  0.62386500  0.79910800  1
  H  876  1  0.42429700  0.62182900  0.79640800  1
  H  877  1  0.32790600  0.58999000  0.68484700  1
  H  878  1  0.42208800  0.62735900  0.75447300  1
  H  879  1  0.32173200  0.59728200  0.72604700  1
  H  889  1  0.90182600  0.84442000  0.30322900  1
  H  896  1  0.79357700  0.86541000  0.22391100  1
  H  897  1  0.79576400  0.87136300  0.18178600  1
  H  898  1  0.92401800  0.87296100  0.18435500  1
  H  899  1  0.82802800  0.90514700  0.29596600  1
  H  900  1  0.92189200  0.86747200  0.22627800  1
  H  901  1  0.82175400  0.89782900  0.25477700  1
  H  911  1  0.64280800  0.43342500  0.39182000  1
  H  918  1  0.54771100  0.51951000  0.38298100  1
  H  919  1  0.55847300  0.56121300  0.37682300  1
  H  920  1  0.67773700  0.54712800  0.35285600  1
  H  921  1  0.55645900  0.44344300  0.33744400  1
  H  922  1  0.66717000  0.50572100  0.35919200  1
  H  923  1  0.55747400  0.48505000  0.34447500  1
  H  933  1  0.14288700  0.06167100  0.58905500  1
  H  940  1  0.04795800  0.97555300  0.59769700  1
  H  941  1  0.05876600  0.93386300  0.60386800  1
  H  942  1  0.17775000  0.94804300  0.62826200  1
  H  943  1  0.05627800  0.05167600  0.64328600  1
  H  944  1  0.16712400  0.98944700  0.62191200  1
  H  945  1  0.05736700  0.01005300  0.63630500  1
  H  955  1  0.84911100  0.05946900  0.39324200  1
  H  962  1  0.95723600  0.97942000  0.37384400  1
  H  963  1  0.95322600  0.93729000  0.36778000  1
  H  964  1  0.82556700  0.94242000  0.36168000  1
  H  965  1  0.92617600  0.05321900  0.33379400  1
  H  966  1  0.82954100  0.98425200  0.36743600  1
  H  967  1  0.93235600  0.01189300  0.34069500  1
  H  977  1  0.34913500  0.43561200  0.58759400  1
  H  984  1  0.45716600  0.51566100  0.60721900  1
  H  985  1  0.45315900  0.55779500  0.61325200  1
  H  986  1  0.32543300  0.55273200  0.61890700  1
  H  987  1  0.42595000  0.44191800  0.64714500  1
  H  988  1  0.32939500  0.51090400  0.61320000  1
  H  989  1  0.43209100  0.48324900  0.64023700  1
  H  999  1  0.21798000  0.16410000  0.37317600  1
  H  1000  1  0.32011300  0.13111200  0.40400500  1
  H  1001  1  0.27386100  0.19415900  0.43302000  1
  H  1008  1  0.25659700  0.14989700  0.33931400  1
  H  1009  1  0.26518000  0.07831500  0.31994800  1
  H  1010  1  0.27905900  0.09801100  0.39126900  1
  H  1017  1  0.71803400  0.33097400  0.60768200  1
  H  1018  1  0.82010100  0.36402000  0.57684600  1
  H  1019  1  0.77392100  0.30095700  0.54782400  1
  H  1026  1  0.75662400  0.34518100  0.64154500  1
  H  1027  1  0.76505200  0.41675900  0.66093600  1
  H  1028  1  0.77903200  0.39709300  0.58961200  1
  H  1035  1  0.46452900  0.86307700  0.90506200  1
  H  1036  1  0.56425600  0.83128100  0.87058500  1
  H  1037  1  0.52072900  0.80310900  0.93473300  1
  H  1044  1  0.50776900  0.89640700  0.89094000  1
  H  1045  1  0.51048300  0.91616000  0.81911800  1
  H  1046  1  0.51753600  0.84423100  0.83781000  1
  H  1053  1  0.96446400  0.63199500  0.07584300  1
  H  1054  1  0.06423110  0.66380000  0.11027400  1
  H  1055  1  0.02061010  0.69197000  0.04614500  1
  H  1062  1  0.00778511  0.59867300  0.08993600  1
  H  1063  1  0.01053710  0.57891400  0.16175700  1
  H  1064  1  0.01750110  0.65084600  0.14307400  1
  H  1071  1  0.06349010  0.33276600  0.37045100  1
  H  1072  1  0.96108900  0.36149800  0.40502100  1
  H  1073  1  0.02120510  0.30248700  0.43386200  1
  H  1080  1  0.02131710  0.34589400  0.33785200  1
  H  1081  1  0.00668811  0.41773200  0.32047700  1
  H  1082  1  0.99761500  0.39600300  0.39135800  1
  H  1089  1  0.56351800  0.16229900  0.61037400  1
  H  1090  1  0.46112400  0.13362800  0.57574800  1
  H  1091  1  0.52138000  0.19261000  0.54694400  1
  H  1098  1  0.52124700  0.14919800  0.64295600  1
  H  1099  1  0.50652200  0.07736000  0.66031000  1
  H  1100  1  0.49759400  0.09910400  0.58942500  1
  H  1107  1  0.81829000  0.62939400  0.90320400  1
  H  1108  1  0.71891200  0.66573200  0.87315400  1
  H  1109  1  0.77800200  0.69350800  0.93306000  1
  H  1116  1  0.77110800  0.59773900  0.89058900  1
  H  1117  1  0.75862000  0.57957300  0.81860700  1
  H  1118  1  0.75929500  0.65112600  0.83876700  1
  H  1125  1  0.31819300  0.86569600  0.07764500  1
  H  1126  1  0.21878800  0.82932200  0.10762100  1
  H  1127  1  0.27800200  0.80157800  0.04774600  1
  H  1134  1  0.27098400  0.89734000  0.09027600  1
  H  1135  1  0.25823200  0.91542400  0.16226500  1
  H  1136  1  0.25912500  0.84389400  0.14203200  1
  H  1143  1  0.57223200  0.83334200  0.60508600  1
  H  1144  1  0.47098500  0.86725400  0.57429300  1
  H  1145  1  0.51526400  0.80364800  0.54539500  1
  H  1152  1  0.53225400  0.84733100  0.63885900  1
  H  1153  1  0.52538700  0.91895400  0.65889700  1
  H  1154  1  0.51499200  0.90027700  0.58716700  1
  H  1161  1  0.07224010  0.66174200  0.37574800  1
  H  1162  1  0.97100600  0.62790300  0.40663600  1
  H  1163  1  0.01548110  0.69148400  0.43548400  1
  H  1170  1  0.03217610  0.64776500  0.34200900  1
  H  1171  1  0.02517010  0.57613600  0.32200500  1
  H  1172  1  0.01491310  0.59484800  0.39373500  1
  H  1179  1  0.31478100  0.12965200  0.07294000  1
  H  1180  1  0.21624800  0.16167500  0.10834700  1
  H  1181  1  0.25916700  0.19032500  0.04428000  1
  H  1188  1  0.27090100  0.09606200  0.08766800  1
  H  1189  1  0.27032100  0.07695400  0.15965600  1
  H  1190  1  0.26444500  0.14891000  0.14048000  1
  H  1197  1  0.81475300  0.36540300  0.90792700  1
  H  1198  1  0.71621700  0.33341000  0.87249600  1
  H  1199  1  0.75906400  0.30474700  0.93657500  1
  H  1206  1  0.77091900  0.39900600  0.89318300  1
  H  1207  1  0.77031800  0.41810400  0.82119400  1
  H  1208  1  0.76446000  0.34615200  0.84037500  1
  H  1215  1  0.71506900  0.65958300  0.60750100  1
  H  1216  1  0.81578300  0.63027100  0.57178600  1
  H  1217  1  0.75488600  0.68910700  0.54316100  1
  H  1224  1  0.76010900  0.64788400  0.63940900  1
  H  1225  1  0.77829300  0.57672100  0.65901200  1
  H  1226  1  0.77891600  0.59561700  0.58719300  1
  H  1233  1  0.21514200  0.83554900  0.37331400  1
  H  1234  1  0.31580500  0.86487000  0.40906800  1
  H  1235  1  0.25484700  0.80605600  0.43768800  1
  H  1242  1  0.26016700  0.84723200  0.34142200  1
  H  1243  1  0.27840000  0.91837800  0.32178500  1
  H  1244  1  0.27904100  0.89951500  0.39361300  1
  H  1251  1  0.97017300  0.36775400  0.07628500  1
  H  1252  1  0.06854510  0.33061200  0.10646200  1
  H  1253  1  0.00605011  0.30193200  0.04819200  1
  H  1260  1  0.02191010  0.39894200  0.08693400  1
  H  1261  1  0.03638210  0.41940000  0.15816000  1
  H  1262  1  0.02837910  0.34718900  0.14078300  1
  H  1269  1  0.47017400  0.12729900  0.90453200  1
  H  1270  1  0.56851900  0.16446200  0.87435100  1
  H  1271  1  0.50603600  0.19312200  0.93263400  1
  H  1278  1  0.52190500  0.09612100  0.89386700  1
  H  1279  1  0.53630000  0.07568600  0.82263000  1
  H  1280  1  0.52833600  0.14788800  0.84002800  1
  H  1287  1  0.19011800  0.19453800  0.43646800  1
  H  1294  1  0.10219500  0.24891200  0.36970300  1
  H  1295  1  0.05461210  0.28102000  0.36935900  1
  H  1296  1  0.10728400  0.30826600  0.43207000  1
  H  1297  1  0.23006600  0.21295400  0.36784700  1
  H  1298  1  0.15566700  0.27657100  0.43203200  1
  H  1299  1  0.18449700  0.24589400  0.36750300  1
  H  1309  1  0.69017000  0.30054700  0.54440000  1
  H  1316  1  0.60236400  0.24612800  0.61116000  1
  H  1317  1  0.55476100  0.21403400  0.61148900  1
  H  1318  1  0.60739500  0.18681300  0.54875600  1
  H  1319  1  0.73021800  0.28211400  0.61299500  1
  H  1320  1  0.65580000  0.21849800  0.54880900  1
  H  1321  1  0.68468800  0.24915300  0.61334200  1
  H  1331  1  0.43665600  0.80007200  0.93655600  1
  H  1338  1  0.35304300  0.86693100  0.99312200  1
  H  1339  1  0.30768400  0.86670100  0.02632100  1
  H  1340  1  0.36409600  0.80449700  0.05212900  1
  H  1341  1  0.47903500  0.86855700  0.95357100  1
  H  1342  1  0.41018000  0.80508800  0.01930900  1
  H  1343  1  0.43592500  0.86932800  0.98764400  1
  H  1353  1  0.93651800  0.69499600  0.04435600  1
  H  1360  1  0.85298500  0.62813700  0.98772700  1
  H  1361  1  0.80768600  0.62837100  0.95450000  1
  H  1362  1  0.86407500  0.69061400  0.92876600  1
  H  1363  1  0.97895100  0.62652900  0.02732100  1
  H  1364  1  0.91009900  0.69002000  0.96161000  1
  H  1365  1  0.93585800  0.62576100  0.99324200  1
  H  1375  1  0.59970000  0.80181500  0.54215100  1
  H  1382  1  0.68149900  0.74404000  0.60879700  1
  H  1383  1  0.72577900  0.71037700  0.60851700  1
  H  1384  1  0.66911400  0.68549400  0.54600600  1
  H  1385  1  0.55680600  0.78473200  0.61051400  1
  H  1386  1  0.62407300  0.71881100  0.54664100  1
  H  1387  1  0.59901300  0.75029300  0.61108900  1
  H  1397  1  0.09990710  0.69328000  0.43865700  1
  H  1404  1  0.18157700  0.75110500  0.37199900  1
  H  1405  1  0.22581600  0.78478000  0.37229000  1
  H  1406  1  0.16913900  0.80961500  0.43481700  1
  H  1407  1  0.05687210  0.71036200  0.37032500  1
  H  1408  1  0.12413500  0.77628000  0.43416900  1
  H  1409  1  0.09905910  0.74481100  0.36972400  1
  H  1419  1  0.34274000  0.19332100  0.04274600  1
  H  1426  1  0.42938100  0.12702000  0.98726300  1
  H  1427  1  0.47644300  0.12726000  0.95489900  1
  H  1428  1  0.42173400  0.18964700  0.92830000  1
  H  1429  1  0.30168900  0.12491500  0.02439600  1
  H  1430  1  0.37404100  0.18908000  0.96030900  1
  H  1431  1  0.34641900  0.12458200  0.99103500  1
  H  1441  1  0.84266300  0.30173200  0.93811000  1
  H  1448  1  0.92931400  0.36803000  0.99357600  1
  H  1449  1  0.97641100  0.36779500  0.02592100  1
  H  1450  1  0.92176000  0.30539600  0.05253500  1
  H  1451  1  0.80162800  0.37014200  0.95646900  1
  H  1452  1  0.87403100  0.30596000  0.02054500  1
  H  1453  1  0.84636400  0.37046400  0.98983000  1
  H  1463  1  0.69426400  0.69502800  0.93721900  1
  H  1470  1  0.60422800  0.74851300  0.87095600  1
  H  1471  1  0.55555400  0.78006300  0.87036000  1
  H  1472  1  0.60648300  0.80796500  0.93326900  1
  H  1473  1  0.73262700  0.71432800  0.86854300  1
  H  1474  1  0.65592500  0.77684700  0.93348700  1
  H  1475  1  0.68625400  0.74689100  0.86872700  1
  H  1485  1  0.19421700  0.80002600  0.04356500  1
  H  1492  1  0.10424000  0.74656600  0.10986000  1
  H  1493  1  0.05554410  0.71503000  0.11049000  1
  H  1494  1  0.10636000  0.68709800  0.04756100  1
  H  1495  1  0.23261800  0.78073100  0.11223500  1
  H  1496  1  0.15582800  0.71820200  0.04731400  1
  H  1497  1  0.18626000  0.74816500  0.11206000  1
  H  1507  1  0.93683700  0.29808900  0.43589700  1
  H  1514  1  0.85209100  0.36449200  0.49227300  1
  H  1515  1  0.80679900  0.36491700  0.52546700  1
  H  1516  1  0.86112100  0.30217800  0.55153800  1
  H  1517  1  0.97711600  0.36682700  0.45363200  1
  H  1518  1  0.90732200  0.30215400  0.51872700  1
  H  1519  1  0.93388000  0.36685700  0.48760900  1
  H  1529  1  0.43696400  0.19704500  0.54490200  1
  H  1536  1  0.35221000  0.13064500  0.48854700  1
  H  1537  1  0.30686000  0.13021000  0.45538000  1
  H  1538  1  0.36105500  0.19297700  0.42929000  1
  H  1539  1  0.47723700  0.12831300  0.52713300  1
  H  1540  1  0.40731900  0.19301200  0.46207000  1
  H  1541  1  0.43399100  0.12829800  0.49316000  1
  H  1551  1  0.09077110  0.30018200  0.04333600  1
  H  1558  1  0.17934700  0.24507300  0.10917600  1
  H  1559  1  0.22669400  0.21282100  0.10905200  1
  H  1560  1  0.17288200  0.18618900  0.04641400  1
  H  1561  1  0.05212910  0.28158800  0.11214700  1
  H  1562  1  0.12477300  0.21799800  0.04692600  1
  H  1563  1  0.09716010  0.24834200  0.11191100  1
  H  1573  1  0.59075800  0.19488800  0.93747600  1
  H  1580  1  0.67926000  0.25002500  0.87164500  1
  H  1581  1  0.72661700  0.28226800  0.87178400  1
  H  1582  1  0.67280200  0.30889000  0.93442700  1
  H  1583  1  0.55205800  0.21348600  0.86867800  1
  H  1584  1  0.62468300  0.27708500  0.93390000  1
  H  1585  1  0.59705500  0.24674700  0.86891300  1
  H  1595  1  0.83902300  0.69389100  0.54237900  1
  H  1602  1  0.93054700  0.62791700  0.48940100  1
  H  1603  1  0.97976200  0.62735500  0.45814400  1
  H  1604  1  0.92939300  0.69032800  0.43003800  1
  H  1605  1  0.80178000  0.62510900  0.52272100  1
  H  1606  1  0.87936600  0.69049500  0.46084500  1
  H  1607  1  0.84872800  0.62553300  0.49044000  1
  H  1617  1  0.33899100  0.80126900  0.43852300  1
  H  1624  1  0.43041500  0.86725900  0.49152300  1
  H  1625  1  0.47963100  0.86780900  0.52277900  1
  H  1626  1  0.42920900  0.80485200  0.55088900  1
  H  1627  1  0.30170100  0.87006000  0.45812400  1
  H  1628  1  0.37917900  0.80469800  0.52008100  1
  H  1629  1  0.34858600  0.86965100  0.49044000  1
  H  1639  1  0.29965600  0.14775600  0.30178300  1
  H  1646  1  0.19972500  0.14159900  0.21826700  1
  H  1647  1  0.20600600  0.13507500  0.17633200  1
  H  1648  1  0.32283000  0.10579000  0.18691700  1
  H  1649  1  0.20847900  0.09574400  0.29410600  1
  H  1650  1  0.31673800  0.11251700  0.22859700  1
  H  1651  1  0.20827200  0.10192400  0.25231100  1
  H  1661  1  0.79968900  0.34734900  0.67907300  1
  H  1668  1  0.69979500  0.35338200  0.76259600  1
  H  1669  1  0.70607800  0.35989700  0.80452600  1
  H  1670  1  0.82278100  0.38934500  0.79392300  1
  H  1671  1  0.70838400  0.39928100  0.68675700  1
  H  1672  1  0.81667700  0.38262400  0.75223800  1
  H  1673  1  0.70818100  0.39309200  0.72855700  1
  H  1683  1  0.55397000  0.93193400  0.88822800  1
  H  1690  1  0.45982500  0.01806100  0.88564700  1
  H  1691  1  0.46773400  0.05994700  0.88009100  1
  H  1692  1  0.58505000  0.04859900  0.85182000  1
  H  1693  1  0.46047800  0.94461300  0.83865600  1
  H  1694  1  0.57718800  0.00687500  0.85743300  1
  H  1695  1  0.46515400  0.98605900  0.84614400  1
  H  1705  1  0.05399510  0.56315200  0.09261800  1
  H  1712  1  0.95983400  0.47703500  0.09522500  1
  H  1713  1  0.96772700  0.43514600  0.10075500  1
  H  1714  1  0.08511310  0.44645800  0.12893900  1
  H  1715  1  0.96056300  0.55044600  0.14222300  1
  H  1716  1  0.07727410  0.48817400  0.12335200  1
  H  1717  1  0.96525100  0.50899900  0.13471600  1
  H  1727  1  0.98432900  0.34612800  0.29873000  1
  H  1734  1  0.09799610  0.36454700  0.22201100  1
  H  1735  1  0.09815410  0.37090000  0.17985400  1
  H  1736  1  0.97117900  0.38193300  0.18145300  1
  H  1737  1  0.06514810  0.40411500  0.29594700  1
  H  1738  1  0.97102100  0.37578400  0.22335500  1
  H  1739  1  0.07300310  0.39859300  0.25444900  1
  H  1749  1  0.48417300  0.14894400  0.68207100  1
  H  1756  1  0.59783200  0.13056900  0.75876300  1
  H  1757  1  0.59804900  0.12424000  0.80092000  1
  H  1758  1  0.47109300  0.11310700  0.79936900  1
  H  1759  1  0.56501000  0.09096500  0.68484500  1
  H  1760  1  0.47088600  0.11924000  0.75745900  1
  H  1761  1  0.57286400  0.09647900  0.72634800  1
  H  1771  1  0.72864700  0.56025500  0.89011900  1
  H  1778  1  0.83630100  0.48008600  0.87840500  1
  H  1779  1  0.83476100  0.43787800  0.87279800  1
  H  1780  1  0.70980600  0.44175900  0.85602900  1
  H  1781  1  0.81320400  0.55278700  0.83439900  1
  H  1782  1  0.71129200  0.48374900  0.86166600  1
  H  1783  1  0.81652500  0.51131800  0.84146200  1
  H  1793  1  0.22860200  0.93481800  0.09068800  1
  H  1800  1  0.33633800  0.01490200  0.10274700  1
  H  1801  1  0.33485800  0.05711400  0.10832100  1
  H  1802  1  0.20970300  0.05337200  0.12459900  1
  H  1803  1  0.31279100  0.94225000  0.14660100  1
  H  1804  1  0.21112200  0.01138700  0.11900700  1
  H  1805  1  0.31617600  0.98372100  0.13956000  1
  H  1815  1  0.49047800  0.84797700  0.67560600  1
  H  1822  1  0.58710500  0.85589700  0.76080400  1
  H  1823  1  0.57867100  0.86148500  0.80273500  1
  H  1824  1  0.45834400  0.88501400  0.79130800  1
  H  1825  1  0.57811100  0.90155400  0.68611300  1
  H  1826  1  0.46659900  0.87922600  0.74961200  1
  H  1827  1  0.57637700  0.89446400  0.72768800  1
  H  1837  1  0.99036900  0.64712400  0.30526400  1
  H  1844  1  0.08704010  0.63913500  0.22011400  1
  H  1845  1  0.07867210  0.63356500  0.17818100  1
  H  1846  1  0.95829000  0.61008800  0.18953500  1
  H  1847  1  0.07791310  0.59349100  0.29479200  1
  H  1848  1  0.96649400  0.61586400  0.23124200  1
  H  1849  1  0.07622310  0.60056800  0.25321000  1
  H  1859  1  0.79691800  0.65062100  0.67758800  1
  H  1866  1  0.68879100  0.62983400  0.75698500  1
  H  1867  1  0.69105200  0.62386500  0.79910800  1
  H  1868  1  0.81928000  0.62182900  0.79640800  1
  H  1869  1  0.72288900  0.58999000  0.68484700  1
  H  1870  1  0.81707100  0.62735900  0.75447300  1
  H  1871  1  0.71671500  0.59728200  0.72604700  1
  H  1881  1  0.29680900  0.84442000  0.30322900  1
  H  1888  1  0.18856000  0.86541000  0.22391100  1
  H  1889  1  0.19074700  0.87136300  0.18178600  1
  H  1890  1  0.31900100  0.87296100  0.18435500  1
  H  1891  1  0.22301100  0.90514700  0.29596600  1
  H  1892  1  0.31687500  0.86747200  0.22627800  1
  H  1893  1  0.21673700  0.89782900  0.25477700  1
  H  1903  1  0.03779110  0.43342500  0.39182000  1
  H  1910  1  0.94269400  0.51951000  0.38298100  1
  H  1911  1  0.95345600  0.56121300  0.37682300  1
  H  1912  1  0.07272010  0.54712800  0.35285600  1
  H  1913  1  0.95144200  0.44344300  0.33744400  1
  H  1914  1  0.06215310  0.50572100  0.35919200  1
  H  1915  1  0.95245700  0.48505000  0.34447500  1
  H  1925  1  0.53787000  0.06167100  0.58905500  1
  H  1932  1  0.44294100  0.97555300  0.59769700  1
  H  1933  1  0.45374900  0.93386300  0.60386800  1
  H  1934  1  0.57273300  0.94804300  0.62826200  1
  H  1935  1  0.45126100  0.05167600  0.64328600  1
  H  1936  1  0.56210700  0.98944700  0.62191200  1
  H  1937  1  0.45235000  0.01005300  0.63630500  1
  H  1947  1  0.24409400  0.05946900  0.39324200  1
  H  1954  1  0.35221900  0.97942000  0.37384400  1
  H  1955  1  0.34820900  0.93729000  0.36778000  1
  H  1956  1  0.22055000  0.94242000  0.36168000  1
  H  1957  1  0.32115900  0.05321900  0.33379400  1
  H  1958  1  0.22452400  0.98425200  0.36743600  1
  H  1959  1  0.32733900  0.01189300  0.34069500  1
  H  1969  1  0.74411800  0.43561200  0.58759400  1
  H  1976  1  0.85214900  0.51566100  0.60721900  1
  H  1977  1  0.84814200  0.55779500  0.61325200  1
  H  1978  1  0.72041600  0.55273200  0.61890700  1
  H  1979  1  0.82093300  0.44191800  0.64714500  1
  H  1980  1  0.72437800  0.51090400  0.61320000  1
  H  1981  1  0.82707400  0.48324900  0.64023700  1
  C  1  1  0.87378900  0.14472100  0.38577700  1
  C  2  1  0.84567200  0.16371600  0.38561700  1
  C  3  1  0.84726700  0.18188100  0.40278900  1
  C  4  1  0.87751400  0.18104800  0.42044900  1
  C  5  1  0.90585800  0.16234100  0.42103200  1
  C  6  1  0.90374100  0.14430500  0.40377600  1
  C  10  1  0.87224500  0.12664400  0.36810200  1
  C  11  1  0.86530900  0.13250400  0.34405600  1
  C  12  1  0.86394100  0.11497500  0.32623300  1
  C  13  1  0.87053800  0.09111800  0.33282200  1
  C  14  1  0.87855600  0.08453600  0.35656300  1
  C  15  1  0.87866800  0.10253900  0.37398300  1
  C  19  1  0.37381500  0.35037700  0.59508400  1
  C  20  1  0.34573800  0.33136200  0.59525300  1
  C  21  1  0.34733600  0.31320900  0.57806700  1
  C  22  1  0.37756800  0.31406500  0.56040000  1
  C  23  1  0.40588800  0.33278400  0.55981600  1
  C  24  1  0.40375500  0.35081500  0.57707800  1
  C  28  1  0.37224800  0.36844900  0.61276600  1
  C  29  1  0.36530800  0.36257700  0.63680800  1
  C  30  1  0.36389800  0.38009800  0.65463700  1
  C  31  1  0.37045800  0.40396100  0.64805700  1
  C  32  1  0.37847600  0.41055900  0.62431900  1
  C  33  1  0.37863400  0.39256000  0.60689600  1
  C  37  1  0.11890600  0.84978100  0.88493800  1
  C  38  1  0.09169900  0.85032900  0.90435300  1
  C  39  1  0.09371500  0.83322700  0.92256100  1
  C  40  1  0.12371600  0.81542700  0.92141400  1
  C  41  1  0.15127600  0.81453500  0.90230200  1
  C  42  1  0.14844100  0.83158400  0.88408300  1
  C  46  1  0.11739600  0.86760300  0.86708700  1
  C  47  1  0.11393400  0.89180300  0.87338600  1
  C  48  1  0.11274300  0.90989100  0.85608200  1
  C  49  1  0.11495800  0.90328600  0.83194000  1
  C  50  1  0.11891500  0.87931600  0.82513600  1
  C  51  1  0.12032000  0.86165400  0.84279200  1
  C  55  1  0.61886000  0.64529900  0.09594600  1
  C  56  1  0.59161800  0.64475300  0.07654900  1
  C  57  1  0.59361200  0.66185200  0.05833700  1
  C  58  1  0.62361500  0.67965200  0.05946700  1
  C  59  1  0.65120000  0.68054800  0.07856600  1
  C  60  1  0.64839300  0.66350100  0.09678600  1
  C  64  1  0.61739300  0.62747600  0.11379400  1
  C  65  1  0.61395900  0.60327500  0.10749100  1
  C  66  1  0.61279600  0.58518200  0.12479300  1
  C  67  1  0.61500100  0.59178800  0.14893600  1
  C  68  1  0.61892400  0.61575900  0.15574200  1
  C  69  1  0.62031200  0.63342500  0.13808900  1
  C  73  1  0.61664800  0.34990700  0.38480700  1
  C  74  1  0.64749000  0.33242900  0.38384100  1
  C  75  1  0.65119700  0.31506500  0.40170000  1
  C  76  1  0.62354500  0.31501000  0.42077400  1
  C  77  1  0.59248400  0.33213500  0.42214700  1
  C  78  1  0.58925200  0.34938400  0.40414500  1
  C  82  1  0.61403500  0.36805300  0.36723400  1
  C  83  1  0.62050400  0.36297400  0.34295900  1
  C  84  1  0.62017000  0.38099800  0.32558200  1
  C  85  1  0.61183900  0.40447700  0.33288800  1
  C  86  1  0.60479900  0.41027600  0.35691400  1
  C  87  1  0.60643300  0.39185700  0.37382700  1
  C  91  1  0.11666100  0.14519600  0.59599400  1
  C  92  1  0.14750600  0.16266900  0.59699200  1
  C  93  1  0.15129700  0.18001800  0.57912200  1
  C  94  1  0.12367800  0.18008800  0.56003400  1
  C  95  1  0.09258700  0.16298400  0.55864300  1
  C  96  1  0.08930000  0.14573300  0.57664000  1
  C  100  1  0.11399900  0.12704500  0.61356200  1
  C  101  1  0.12042400  0.13211900  0.63784200  1
  C  102  1  0.12004600  0.11409100  0.65521500  1
  C  103  1  0.11171200  0.09061600  0.64790100  1
  C  104  1  0.10469900  0.08482700  0.62386900  1
  C  105  1  0.10638200  0.10324700  0.60696000  1
  C  109  1  0.37310100  0.64482400  0.88538600  1
  C  110  1  0.40321700  0.64327100  0.90322200  1
  C  111  1  0.40729800  0.66111800  0.92057100  1
  C  112  1  0.38048200  0.68061100  0.92033100  1
  C  113  1  0.35005000  0.68250800  0.90285700  1
  C  114  1  0.34672000  0.66462400  0.88548400  1
  C  118  1  0.36961300  0.62707700  0.86754100  1
  C  119  1  0.37220200  0.60268200  0.87327100  1
  C  120  1  0.37053400  0.58495200  0.85558200  1
  C  121  1  0.36516500  0.59209100  0.83175200  1
  C  122  1  0.36212400  0.61624500  0.82562000  1
  C  123  1  0.36473700  0.63358100  0.84348600  1
  C  127  1  0.87298600  0.85024600  0.09542700  1
  C  128  1  0.90314500  0.85180800  0.07761600  1
  C  129  1  0.90725600  0.83397200  0.06025900  1
  C  130  1  0.88044600  0.81447300  0.06047300  1
  C  131  1  0.84998900  0.81256200  0.07792900  1
  C  132  1  0.84661700  0.83044000  0.09530400  1
  C  136  1  0.86945900  0.86797700  0.11328600  1
  C  137  1  0.87203900  0.89237800  0.10758700  1
  C  138  1  0.87027300  0.91009200  0.12529100  1
  C  139  1  0.86483500  0.90292200  0.14910800  1
  C  140  1  0.86183600  0.87875800  0.15521100  1
  C  141  1  0.86454300  0.86144300  0.13732900  1
  C  145  1  0.12716600  0.85324500  0.59234500  1
  C  146  1  0.15480900  0.83402500  0.59251400  1
  C  147  1  0.15272000  0.81588200  0.57534600  1
  C  148  1  0.12238000  0.81693700  0.55774400  1
  C  149  1  0.09447200  0.83587600  0.55716400  1
  C  150  1  0.09722500  0.85396300  0.57435100  1
  C  154  1  0.12870100  0.87105500  0.61025600  1
  C  155  1  0.13445600  0.86483600  0.63434100  1
  C  156  1  0.13578000  0.88211300  0.65246400  1
  C  157  1  0.13107000  0.90617400  0.64598800  1
  C  158  1  0.12480800  0.91292600  0.62217800  1
  C  159  1  0.12362300  0.89528300  0.60450500  1
  C  163  1  0.62716400  0.64187600  0.38853500  1
  C  164  1  0.65483700  0.66108100  0.38833300  1
  C  165  1  0.65283500  0.67922300  0.40550500  1
  C  166  1  0.62254300  0.67819200  0.42313500  1
  C  167  1  0.59459900  0.65927200  0.42374300  1
  C  168  1  0.59727000  0.64117900  0.40655600  1
  C  172  1  0.62861900  0.62405800  0.37062900  1
  C  173  1  0.63434400  0.63026300  0.34653600  1
  C  174  1  0.63561100  0.61297800  0.32842000  1
  C  175  1  0.63084300  0.58892500  0.33490700  1
  C  176  1  0.62463300  0.58218800  0.35872600  1
  C  177  1  0.62351500  0.59983400  0.37639400  1
  C  181  1  0.87094800  0.14298300  0.09343000  1
  C  182  1  0.89773700  0.14244200  0.07382500  1
  C  183  1  0.89575300  0.15979300  0.05583800  1
  C  184  1  0.86606200  0.17775200  0.05736600  1
  C  185  1  0.83883000  0.17858500  0.07664200  1
  C  186  1  0.84170700  0.16132300  0.09464600  1
  C  190  1  0.87294400  0.12525000  0.11133900  1
  C  191  1  0.87594900  0.10099300  0.10515600  1
  C  192  1  0.87683600  0.08327000  0.12274400  1
  C  193  1  0.87521100  0.08985000  0.14683900  1
  C  194  1  0.87241500  0.11391700  0.15347900  1
  C  195  1  0.87098700  0.13142200  0.13563800  1
  C  199  1  0.37092900  0.35208400  0.88742300  1
  C  200  1  0.39771200  0.35261100  0.90703200  1
  C  201  1  0.39568800  0.33526700  0.92502200  1
  C  202  1  0.36598000  0.31731800  0.92348900  1
  C  203  1  0.33875900  0.31649400  0.90420400  1
  C  204  1  0.34167000  0.33375400  0.88620200  1
  C  208  1  0.37294300  0.36981400  0.86951400  1
  C  209  1  0.37594200  0.39407300  0.87569600  1
  C  210  1  0.37683600  0.41179300  0.85810700  1
  C  211  1  0.37520400  0.40520900  0.83401100  1
  C  212  1  0.37242400  0.38114200  0.82737200  1
  C  213  1  0.37099300  0.36363900  0.84521500  1
  C  217  1  0.37095000  0.64206600  0.59243200  1
  C  218  1  0.34016000  0.65954700  0.59362200  1
  C  219  1  0.33566900  0.67666700  0.57558900  1
  C  220  1  0.36256400  0.67646700  0.55613800  1
  C  221  1  0.39351900  0.65929500  0.55451600  1
  C  222  1  0.39740500  0.64222900  0.57265300  1
  C  226  1  0.37530100  0.62465200  0.61059100  1
  C  227  1  0.37098100  0.63065400  0.63484800  1
  C  228  1  0.37324400  0.61335000  0.65294400  1
  C  229  1  0.38131400  0.58963600  0.64628200  1
  C  230  1  0.38607800  0.58319200  0.62231200  1
  C  231  1  0.38261700  0.60066400  0.60462900  1
  C  235  1  0.87101200  0.85306600  0.38839500  1
  C  236  1  0.84023300  0.83557800  0.38719200  1
  C  237  1  0.83569100  0.81847400  0.40523700  1
  C  238  1  0.86255300  0.81868700  0.42470600  1
  C  239  1  0.89350700  0.83585800  0.42633700  1
  C  240  1  0.89743000  0.85291200  0.40819000  1
  C  244  1  0.87539000  0.87047200  0.37023000  1
  C  245  1  0.87106000  0.86446000  0.34597400  1
  C  246  1  0.87333000  0.88175400  0.32786700  1
  C  247  1  0.88140900  0.90547200  0.33451900  1
  C  248  1  0.88620300  0.91192100  0.35848900  1
  C  249  1  0.88273700  0.89445900  0.37617900  1
  C  253  1  0.62508600  0.35196500  0.09403300  1
  C  254  1  0.59444400  0.35347900  0.07650900  1
  C  255  1  0.58869900  0.33509700  0.05987200  1
  C  256  1  0.61459400  0.31517600  0.06047400  1
  C  257  1  0.64556700  0.31334500  0.07763000  1
  C  258  1  0.65039200  0.33169900  0.09436800  1
  C  262  1  0.63031500  0.37026000  0.11113500  1
  C  263  1  0.63002000  0.39445000  0.10444100  1
  C  264  1  0.63485400  0.41261900  0.12142600  1
  C  265  1  0.63950600  0.40637600  0.14552300  1
  C  266  1  0.63956000  0.38241500  0.15259800  1
  C  267  1  0.63492400  0.36452600  0.13540500  1
  C  271  1  0.12507200  0.14309900  0.88678000  1
  C  272  1  0.09442300  0.14158300  0.90430200  1
  C  273  1  0.08869000  0.15995700  0.92094800  1
  C  274  1  0.11458200  0.17987900  0.92034900  1
  C  275  1  0.14554500  0.18171900  0.90319000  1
  C  276  1  0.15037000  0.16336900  0.88644600  1
  C  280  1  0.13029900  0.12481000  0.86967200  1
  C  281  1  0.13001500  0.10061900  0.87636100  1
  C  282  1  0.13482100  0.08245600  0.85936700  1
  C  283  1  0.13944600  0.08870800  0.83527100  1
  C  284  1  0.13950700  0.11266900  0.82819800  1
  C  285  1  0.13489600  0.13055000  0.84540300  1
  C  289  1  0.81925400  0.20086200  0.40228500  1
  C  290  1  0.81677400  0.21575000  0.38225800  1
  C  291  1  0.79003700  0.23511200  0.38211400  1
  C  292  1  0.76493100  0.23992900  0.40188100  1
  C  293  1  0.76655400  0.22475600  0.42198300  1
  C  294  1  0.79406600  0.20549600  0.42199500  1
  C  296  1  0.73827900  0.25966700  0.40096400  1
  C  297  1  0.70923200  0.26163700  0.38260000  1
  C  298  1  0.68134700  0.28048700  0.38235600  1
  C  299  1  0.68186000  0.29762800  0.40058500  1
  C  300  1  0.71141700  0.29603400  0.41865900  1
  C  301  1  0.73964000  0.27737200  0.41868500  1
  C  311  1  0.31934700  0.29421500  0.57857100  1
  C  312  1  0.31690400  0.27932000  0.59859200  1
  C  313  1  0.29019700  0.25994200  0.59873400  1
  C  314  1  0.26507600  0.25512700  0.57897700  1
  C  315  1  0.26665600  0.27031100  0.55888400  1
  C  316  1  0.29415200  0.28957900  0.55886600  1
  C  318  1  0.23844200  0.23538000  0.57989700  1
  C  319  1  0.20941100  0.23340000  0.59826800  1
  C  320  1  0.18152500  0.21454800  0.59850900  1
  C  321  1  0.18199600  0.19743500  0.58025300  1
  C  322  1  0.21154200  0.19903600  0.56217400  1
  C  323  1  0.23979400  0.21768400  0.56216500  1
  C  333  1  0.06681700  0.83414200  0.94208200  1
  C  334  1  0.06565800  0.85429100  0.95687200  1
  C  335  1  0.04039400  0.85468500  0.97690600  1
  C  336  1  0.01549400  0.83504200  0.98250100  1
  C  337  1  0.01556500  0.81489500  0.96736300  1
  C  338  1  0.04160800  0.81462500  0.94742600  1
  C  340  1  0.99077100  0.83598700  0.00307200  1
  C  341  1  0.96148700  0.85411800  0.00582600  1
  C  342  1  0.93491100  0.85402200  0.02532400  1
  C  343  1  0.93703200  0.83569700  0.04233600  1
  C  344  1  0.96707800  0.81798100  0.04002500  1
  C  345  1  0.99396400  0.81828400  0.02071100  1
  C  355  1  0.56669500  0.66093400  0.03882500  1
  C  356  1  0.56554300  0.64078400  0.02403400  1
  C  357  1  0.54029800  0.64039600  0.00399200  1
  C  358  1  0.51539300  0.66003700  0.99839700  1
  C  359  1  0.51544400  0.68017900  0.01354200  1
  C  360  1  0.54148300  0.68044800  0.03348100  1
  C  362  1  0.49069700  0.65909700  0.97781400  1
  C  363  1  0.46144100  0.64096000  0.97503200  1
  C  364  1  0.43490100  0.64105700  0.95551700  1
  C  365  1  0.43703100  0.65939300  0.93852000  1
  C  366  1  0.46706200  0.67711400  0.94085300  1
  C  367  1  0.49392100  0.67680700  0.96018200  1
  C  377  1  0.17948700  0.79631400  0.57620000  1
  C  378  1  0.18019800  0.78138500  0.59625100  1
  C  379  1  0.20493200  0.76113300  0.59652900  1
  C  380  1  0.22968100  0.75543400  0.57685300  1
  C  381  1  0.23007200  0.77070400  0.55680400  1
  C  382  1  0.20456900  0.79088100  0.55665400  1
  C  384  1  0.25378300  0.73461800  0.57769300  1
  C  385  1  0.28282700  0.73146200  0.59588200  1
  C  386  1  0.30874900  0.71167800  0.59576300  1
  C  387  1  0.30618500  0.69474800  0.57737900  1
  C  388  1  0.27638800  0.69748300  0.55958100  1
  C  389  1  0.25013900  0.71709700  0.55990000  1
  C  399  1  0.67963000  0.69877900  0.40462300  1
  C  400  1  0.68031000  0.71370400  0.38457000  1
  C  401  1  0.70502100  0.73396500  0.38428100  1
  C  402  1  0.72979600  0.73967000  0.40394400  1
  C  403  1  0.73024200  0.72439600  0.42398800  1
  C  404  1  0.70474800  0.70421400  0.42415200  1
  C  406  1  0.75385000  0.76050600  0.40310100  1
  C  407  1  0.78287300  0.76368800  0.38490500  1
  C  408  1  0.80875600  0.78349000  0.38502400  1
  C  409  1  0.80621000  0.80039200  0.40343600  1
  C  410  1  0.77643400  0.79763000  0.42124200  1
  C  411  1  0.75018000  0.77801700  0.42090100  1
  C  421  1  0.92303400  0.15927600  0.03646600  1
  C  422  1  0.92504800  0.13928600  0.02149300  1
  C  423  1  0.95128400  0.13914900  0.00188000  1
  C  424  1  0.97639000  0.15887400  0.99690800  1
  C  425  1  0.97535700  0.17889400  0.01220300  1
  C  426  1  0.94833400  0.17890800  0.03169700  1
  C  428  1  0.00241400  0.15807500  0.97687100  1
  C  429  1  0.03176500  0.13991800  0.97457800  1
  C  430  1  0.05934700  0.14001900  0.95555800  1
  C  431  1  0.05824200  0.15838100  0.93854500  1
  C  432  1  0.02819500  0.17616100  0.94042900  1
  C  433  1  0.00032400  0.17586900  0.95926900  1
  C  443  1  0.42295100  0.33577600  0.94440000  1
  C  444  1  0.42495400  0.35575600  0.95938600  1
  C  445  1  0.45121700  0.35589700  0.97898600  1
  C  446  1  0.47632300  0.33617000  0.98395300  1
  C  447  1  0.47527500  0.31615200  0.96865700  1
  C  448  1  0.44824200  0.31613700  0.94916900  1
  C  450  1  0.50236700  0.33697100  0.00398000  1
  C  451  1  0.53171500  0.35513200  0.00626200  1
  C  452  1  0.55931800  0.35503200  0.02527100  1
  C  453  1  0.55824200  0.33666800  0.04228000  1
  C  454  1  0.52819000  0.31889000  0.04041200  1
  C  455  1  0.50029200  0.31918100  0.02158600  1
  C  465  1  0.32283200  0.70189400  0.90300800  1
  C  466  1  0.31973000  0.71696800  0.88315100  1
  C  467  1  0.29246400  0.73607800  0.88330300  1
  C  468  1  0.26733900  0.74042500  0.90317400  1
  C  469  1  0.26984800  0.72517400  0.92318700  1
  C  470  1  0.29792300  0.70619100  0.92291200  1
  C  472  1  0.23953900  0.75963700  0.90235200  1
  C  473  1  0.21052300  0.76119900  0.88392400  1
  C  474  1  0.18195600  0.77970100  0.88354600  1
  C  475  1  0.18165100  0.79688000  0.90174400  1
  C  476  1  0.21099000  0.79560700  0.91996800  1
  C  477  1  0.23990000  0.77730500  0.92012400  1
  C  487  1  0.82280200  0.79316200  0.07777200  1
  C  488  1  0.81971800  0.77809000  0.09763100  1
  C  489  1  0.79246200  0.75897200  0.09748200  1
  C  490  1  0.76731600  0.75462700  0.07761900  1
  C  491  1  0.76981700  0.76987500  0.05760500  1
  C  492  1  0.79790000  0.78885600  0.05786600  1
  C  494  1  0.73950600  0.73542100  0.07845800  1
  C  495  1  0.71052100  0.73387000  0.09690400  1
  C  496  1  0.68195100  0.71536900  0.09730500  1
  C  497  1  0.68158700  0.69819800  0.07910300  1
  C  498  1  0.71090000  0.69945800  0.06086200  1
  C  499  1  0.73982800  0.71775000  0.06069100  1
  C  509  1  0.56583500  0.33237600  0.44177000  1
  C  510  1  0.56419700  0.35233100  0.45679300  1
  C  511  1  0.53886100  0.35227900  0.47677600  1
  C  512  1  0.51429900  0.33240400  0.48207100  1
  C  513  1  0.51514700  0.31235200  0.46681100  1
  C  514  1  0.54133100  0.31251200  0.44693100  1
  C  516  1  0.48885600  0.33322700  0.50234100  1
  C  517  1  0.45998900  0.35160700  0.50495400  1
  C  518  1  0.43345200  0.35190200  0.52444400  1
  C  519  1  0.43513200  0.33368800  0.54157600  1
  C  520  1  0.46442500  0.31555200  0.53929600  1
  C  521  1  0.49134700  0.31549000  0.51998900  1
  C  531  1  0.06596800  0.16276100  0.53900700  1
  C  532  1  0.06432500  0.14281300  0.52397600  1
  C  533  1  0.03897800  0.14287300  0.50399700  1
  C  534  1  0.01440900  0.16274800  0.49871600  1
  C  535  1  0.01527100  0.18279500  0.51398100  1
  C  536  1  0.04147500  0.18263100  0.53385400  1
  C  538  1  0.98892300  0.16192300  0.47846300  1
  C  539  1  0.96007100  0.14353300  0.47586600  1
  C  540  1  0.93349500  0.14323400  0.45639400  1
  C  541  1  0.93511700  0.16145100  0.43926400  1
  C  542  1  0.96440100  0.17959600  0.44152700  1
  C  543  1  0.99136600  0.17966100  0.46081500  1
  C  553  1  0.67214300  0.29367100  0.07759300  1
  C  554  1  0.67486600  0.27865900  0.09751500  1
  C  555  1  0.70134800  0.25916400  0.09733300  1
  C  556  1  0.72605600  0.25438900  0.07737900  1
  C  557  1  0.72412900  0.26968700  0.05738100  1
  C  558  1  0.69682100  0.28904000  0.05767100  1
  C  560  1  0.75275000  0.23463900  0.07799400  1
  C  561  1  0.78214300  0.23248800  0.09615500  1
  C  562  1  0.80993800  0.21357800  0.09609900  1
  C  563  1  0.80906600  0.19657200  0.07774000  1
  C  564  1  0.77924500  0.19839200  0.05983700  1
  C  565  1  0.75110700  0.21709900  0.06011800  1
  C  575  1  0.17210900  0.20139900  0.90322400  1
  C  576  1  0.17480600  0.21641500  0.88330500  1
  C  577  1  0.20126400  0.23592200  0.88348800  1
  C  578  1  0.22597600  0.24070000  0.90343800  1
  C  579  1  0.22407900  0.22539600  0.92343400  1
  C  580  1  0.19678000  0.20603700  0.92314600  1
  C  582  1  0.25265400  0.26045800  0.90282300  1
  C  583  1  0.28203900  0.26261500  0.88465900  1
  C  584  1  0.30983100  0.28152900  0.88472000  1
  C  585  1  0.30898000  0.29851400  0.90309600  1
  C  586  1  0.27915800  0.29669200  0.92099800  1
  C  587  1  0.25100700  0.27799400  0.92070400  1
  C  597  1  0.42101000  0.65960900  0.53528300  1
  C  598  1  0.42459200  0.63978800  0.52020900  1
  C  599  1  0.45219200  0.64008700  0.50126300  1
  C  600  1  0.47721600  0.66005100  0.49712700  1
  C  601  1  0.47420500  0.68002600  0.51239600  1
  C  602  1  0.44575700  0.67962200  0.53118400  1
  C  604  1  0.50545700  0.65932400  0.47813200  1
  C  605  1  0.53449800  0.64089800  0.47672300  1
  C  606  1  0.56337700  0.64053800  0.45839000  1
  C  607  1  0.56399400  0.65876700  0.44125300  1
  C  608  1  0.53468900  0.67701400  0.44238400  1
  C  609  1  0.50545100  0.67714200  0.46050900  1
  C  619  1  0.92095600  0.83555300  0.44559100  1
  C  620  1  0.92450400  0.85538200  0.46065800  1
  C  621  1  0.95206500  0.85508900  0.47962300  1
  C  622  1  0.97708300  0.83512900  0.48378500  1
  C  623  1  0.97410200  0.81514600  0.46852300  1
  C  624  1  0.94567900  0.81553600  0.44972100  1
  C  626  1  0.00529400  0.83586300  0.50279500  1
  C  627  1  0.03434700  0.85428600  0.50420600  1
  C  628  1  0.06322700  0.85463700  0.52253800  1
  C  629  1  0.06383400  0.83640700  0.53967600  1
  C  630  1  0.03450500  0.81817100  0.53854700  1
  C  631  1  0.00526300  0.81805200  0.52042500  1
  C  641  1  0.85915000  0.12119600  0.30194000  1
  C  642  1  0.83199000  0.10859900  0.28719600  1
  C  643  1  0.83145900  0.11247600  0.26262000  1
  C  644  1  0.85823800  0.12900100  0.25212300  1
  C  645  1  0.88440800  0.14261700  0.26674900  1
  C  646  1  0.88422800  0.13869100  0.29152700  1
  C  648  1  0.86315400  0.12835500  0.22719300  1
  C  649  1  0.83125800  0.13473700  0.21170600  1
  C  650  1  0.83502900  0.13098500  0.18713700  1
  C  651  1  0.87027000  0.12016700  0.17773700  1
  C  652  1  0.90224000  0.11395300  0.19323200  1
  C  653  1  0.89880300  0.11812100  0.21768400  1
  C  663  1  0.35911300  0.37386500  0.67892600  1
  C  664  1  0.33190200  0.38642800  0.69366700  1
  C  665  1  0.33138200  0.38255300  0.71824300  1
  C  666  1  0.35821100  0.36605000  0.72872700  1
  C  667  1  0.38441900  0.35245300  0.71411100  1
  C  668  1  0.38421900  0.35637400  0.68933100  1
  C  670  1  0.36316000  0.36671500  0.75365600  1
  C  671  1  0.33131200  0.36026600  0.76915400  1
  C  672  1  0.33509800  0.36399700  0.79372600  1
  C  673  1  0.37028200  0.37489100  0.80311300  1
  C  674  1  0.40220600  0.38116500  0.78761000  1
  C  675  1  0.39878800  0.37697400  0.76316200  1
  C  685  1  0.11188300  0.93425600  0.86272500  1
  C  686  1  0.08568400  0.95039800  0.85119300  1
  C  687  1  0.08807200  0.97479800  0.85584600  1
  C  688  1  0.11674800  0.98378100  0.87219300  1
  C  689  1  0.14224000  0.96778300  0.88465400  1
  C  690  1  0.13922100  0.94320500  0.87989400  1
  C  692  1  0.12326700  0.00862300  0.87277500  1
  C  693  1  0.09193700  0.02441900  0.87938700  1
  C  694  1  0.09670200  0.04901000  0.87625100  1
  C  695  1  0.13249400  0.05823100  0.86588700  1
  C  696  1  0.16411700  0.04245300  0.85973800  1
  C  697  1  0.15962600  0.01794500  0.86323900  1
  C  707  1  0.61195400  0.56081700  0.11815000  1
  C  708  1  0.58579700  0.54466500  0.12969900  1
  C  709  1  0.58814600  0.52027000  0.12501100  1
  C  710  1  0.61684000  0.51129300  0.10867400  1
  C  711  1  0.64228600  0.52730300  0.09619300  1
  C  712  1  0.63923800  0.55188200  0.10094700  1
  C  714  1  0.62333300  0.48644900  0.10802300  1
  C  715  1  0.59196800  0.47066800  0.10144100  1
  C  716  1  0.59672300  0.44607400  0.10456200  1
  C  717  1  0.63253300  0.43683900  0.11489000  1
  C  718  1  0.66419200  0.45260600  0.12100700  1
  C  719  1  0.65972300  0.47711700  0.11750900  1
  C  729  1  0.62841900  0.37584800  0.30131300  1
  C  730  1  0.65511100  0.39032800  0.28806500  1
  C  731  1  0.66033600  0.38680200  0.26364300  1
  C  732  1  0.63914700  0.36858300  0.25169600  1
  C  733  1  0.61381300  0.35306400  0.26490500  1
  C  734  1  0.60898600  0.35681700  0.28957200  1
  C  736  1  0.63932600  0.36873900  0.22653000  1
  C  737  1  0.67600200  0.36751800  0.21351000  1
  C  738  1  0.67614200  0.37125100  0.18884000  1
  C  739  1  0.63960900  0.37659100  0.17688400  1
  C  740  1  0.60287900  0.37757000  0.18972900  1
  C  741  1  0.60278400  0.37371000  0.21430800  1
  C  751  1  0.12827800  0.11923300  0.67948800  1
  C  752  1  0.15498300  0.10475500  0.69273100  1
  C  753  1  0.16019800  0.10827000  0.71715300  1
  C  754  1  0.13899300  0.12648200  0.72909800  1
  C  755  1  0.11365700  0.14200700  0.71589900  1
  C  756  1  0.10884900  0.13826700  0.69122900  1
  C  758  1  0.13916600  0.12632200  0.75426400  1
  C  759  1  0.17585000  0.12759300  0.76727500  1
  C  760  1  0.17602200  0.12388400  0.79195000  1
  C  761  1  0.13951700  0.11849800  0.80391400  1
  C  762  1  0.10278400  0.11746000  0.79107900  1
  C  763  1  0.10264500  0.12134600  0.76650300  1
  C  773  1  0.37512500  0.56051100  0.86140800  1
  C  774  1  0.40132500  0.54588900  0.84798900  1
  C  775  1  0.40381600  0.52147200  0.85241800  1
  C  776  1  0.38034200  0.51089900  0.87053000  1
  C  777  1  0.35503900  0.52540900  0.88484400  1
  C  778  1  0.35302700  0.55006900  0.88021500  1
  C  780  1  0.37865200  0.48577500  0.87138300  1
  C  781  1  0.41419800  0.47205000  0.87459700  1
  C  782  1  0.41331100  0.44732000  0.87135300  1
  C  783  1  0.37697800  0.43599700  0.86437700  1
  C  784  1  0.34127200  0.44955900  0.86157800  1
  C  785  1  0.34210100  0.47419400  0.86511600  1
  C  795  1  0.87487900  0.93454000  0.11949900  1
  C  796  1  0.90099400  0.94915500  0.13298200  1
  C  797  1  0.90354000  0.97357100  0.12856200  1
  C  798  1  0.88016000  0.98416200  0.11041800  1
  C  799  1  0.85497500  0.96965500  0.09602900  1
  C  800  1  0.85294000  0.94499100  0.10063400  1
  C  802  1  0.87858300  0.00928800  0.10949900  1
  C  803  1  0.91420800  0.02297100  0.10642600  1
  C  804  1  0.91336300  0.04770400  0.10965200  1
  C  805  1  0.87697900  0.05907000  0.11646300  1
  C  806  1  0.84119300  0.04554900  0.11911600  1
  C  807  1  0.84198300  0.02091100  0.11559400  1
  C  817  1  0.13923100  0.87553300  0.67679500  1
  C  818  1  0.16487600  0.88825100  0.69235700  1
  C  819  1  0.16434500  0.88381900  0.71683700  1
  C  820  1  0.13815000  0.86648100  0.72649200  1
  C  821  1  0.11371600  0.85265300  0.71106000  1
  C  822  1  0.11478400  0.85726600  0.68639800  1
  C  824  1  0.13223500  0.86626500  0.75138900  1
  C  825  1  0.16447000  0.86126400  0.76716100  1
  C  826  1  0.15947000  0.86446900  0.79173200  1
  C  827  1  0.12249200  0.87333500  0.80088500  1
  C  828  1  0.09017800  0.87815500  0.78515300  1
  C  829  1  0.09493500  0.87452600  0.76068300  1
  C  839  1  0.63907100  0.61954400  0.30408500  1
  C  840  1  0.66472100  0.60681000  0.28853800  1
  C  841  1  0.66421000  0.61123000  0.26405600  1
  C  842  1  0.63804700  0.62858000  0.25439800  1
  C  843  1  0.61362200  0.64243300  0.26981000  1
  C  844  1  0.61467900  0.63783400  0.29447500  1
  C  846  1  0.63214400  0.62878800  0.22949700  1
  C  847  1  0.66440200  0.63379800  0.21374100  1
  C  848  1  0.65942800  0.63061700  0.18916300  1
  C  849  1  0.62247300  0.62174100  0.17999800  1
  C  850  1  0.59013600  0.61691500  0.19570800  1
  C  851  1  0.59483600  0.62056900  0.22017800  1
  C  861  1  0.36632900  0.61934400  0.67720300  1
  C  862  1  0.34195200  0.60466000  0.69169700  1
  C  863  1  0.33762900  0.60923400  0.71599100  1
  C  864  1  0.35705300  0.62889000  0.72662100  1
  C  865  1  0.37988900  0.64460400  0.71214500  1
  C  866  1  0.38407600  0.63967400  0.68763200  1
  C  868  1  0.35777000  0.63005900  0.75179800  1
  C  869  1  0.32148900  0.62911900  0.76524100  1
  C  870  1  0.32275000  0.62561400  0.78992900  1
  C  871  1  0.36041300  0.62290400  0.80156500  1
  C  872  1  0.39673400  0.62446000  0.78839200  1
  C  873  1  0.39537200  0.62794400  0.76376100  1
  C  883  1  0.86636300  0.87575600  0.30361400  1
  C  884  1  0.84202600  0.89046000  0.28912000  1
  C  885  1  0.83761400  0.88586500  0.26483600  1
  C  886  1  0.85696500  0.86618700  0.25420100  1
  C  887  1  0.87973500  0.85044100  0.26868500  1
  C  888  1  0.88397300  0.85538000  0.29319300  1
  C  890  1  0.85754600  0.86494000  0.22902600  1
  C  891  1  0.82123500  0.86600400  0.21562400  1
  C  892  1  0.82245300  0.86950200  0.19093400  1
  C  893  1  0.86010700  0.87206700  0.17925700  1
  C  894  1  0.89645500  0.87036700  0.19238800  1
  C  895  1  0.89514200  0.86690100  0.21702200  1
  C  905  1  0.59974000  0.43439100  0.36389700  1
  C  906  1  0.57402700  0.44977900  0.35101500  1
  C  907  1  0.57412400  0.47427200  0.35540400  1
  C  908  1  0.59993400  0.48405700  0.37286100  1
  C  909  1  0.62406800  0.46875500  0.38700400  1
  C  910  1  0.62342400  0.44408600  0.38244800  1
  C  912  1  0.60687100  0.50884400  0.37242800  1
  C  913  1  0.57557000  0.52526800  0.37731700  1
  C  914  1  0.58194400  0.54969100  0.37377200  1
  C  915  1  0.61930700  0.55801300  0.36461900  1
  C  916  1  0.65059600  0.54159100  0.35980800  1
  C  917  1  0.64449800  0.51729200  0.36377500  1
  C  927  1  0.09964700  0.06071500  0.61688200  1
  C  928  1  0.07388400  0.04533000  0.62973700  1
  C  929  1  0.07404200  0.02083000  0.62538600  1
  C  930  1  0.09996300  0.01105000  0.60798600  1
  C  931  1  0.12416200  0.02633500  0.59386400  1
  C  932  1  0.12343500  0.05100800  0.59838000  1
  C  934  1  0.10697100  0.98627000  0.60847900  1
  C  935  1  0.07577700  0.96981800  0.60345300  1
  C  936  1  0.08219100  0.94539700  0.60698800  1
  C  937  1  0.11946300  0.93710700  0.61629700  1
  C  938  1  0.15064800  0.95356000  0.62124000  1
  C  939  1  0.14454100  0.97785300  0.61724000  1
  C  949  1  0.88632500  0.06037200  0.36260500  1
  C  950  1  0.91168600  0.04615600  0.34821400  1
  C  951  1  0.91598800  0.02180300  0.35255200  1
  C  952  1  0.89548800  0.01088800  0.37166700  1
  C  953  1  0.87191700  0.02511500  0.38722900  1
  C  954  1  0.86778500  0.04966300  0.38254300  1
  C  956  1  0.89365600  0.98572700  0.37211900  1
  C  957  1  0.92926600  0.97166600  0.37212700  1
  C  958  1  0.92696900  0.94699400  0.36859000  1
  C  959  1  0.88897700  0.93606500  0.36469700  1
  C  960  1  0.85332200  0.94992600  0.36505100  1
  C  961  1  0.85569200  0.97449100  0.36868000  1
  C  971  1  0.38621500  0.43473100  0.61828800  1
  C  972  1  0.41145700  0.44897400  0.63272400  1
  C  973  1  0.41578700  0.47332100  0.62836300  1
  C  974  1  0.39531800  0.48422900  0.60923300  1
  C  975  1  0.37186200  0.46997400  0.59363000  1
  C  976  1  0.36777200  0.44542300  0.59830900  1
  C  978  1  0.39355500  0.50939200  0.60869400  1
  C  979  1  0.42918600  0.52343300  0.60881100  1
  C  980  1  0.42689200  0.54810600  0.61233200  1
  C  981  1  0.38887600  0.55905700  0.61607600  1
  C  982  1  0.35319700  0.54522000  0.61558300  1
  C  983  1  0.35556700  0.52064900  0.61197700  1
  C  993  1  0.26877200  0.14472100  0.38577700  1
  C  994  1  0.24065500  0.16371600  0.38561700  1
  C  995  1  0.24225000  0.18188100  0.40278900  1
  C  996  1  0.27249700  0.18104800  0.42044900  1
  C  997  1  0.30084100  0.16234100  0.42103200  1
  C  998  1  0.29872400  0.14430500  0.40377600  1
  C  1002  1  0.26722800  0.12664400  0.36810200  1
  C  1003  1  0.26029200  0.13250400  0.34405600  1
  C  1004  1  0.25892400  0.11497500  0.32623300  1
  C  1005  1  0.26552100  0.09111800  0.33282200  1
  C  1006  1  0.27353900  0.08453600  0.35656300  1
  C  1007  1  0.27365100  0.10253900  0.37398300  1
  C  1011  1  0.76879800  0.35037700  0.59508400  1
  C  1012  1  0.74072100  0.33136200  0.59525300  1
  C  1013  1  0.74231900  0.31320900  0.57806700  1
  C  1014  1  0.77255100  0.31406500  0.56040000  1
  C  1015  1  0.80087100  0.33278400  0.55981600  1
  C  1016  1  0.79873800  0.35081500  0.57707800  1
  C  1020  1  0.76723100  0.36844900  0.61276600  1
  C  1021  1  0.76029100  0.36257700  0.63680800  1
  C  1022  1  0.75888100  0.38009800  0.65463700  1
  C  1023  1  0.76544100  0.40396100  0.64805700  1
  C  1024  1  0.77345900  0.41055900  0.62431900  1
  C  1025  1  0.77361700  0.39256000  0.60689600  1
  C  1029  1  0.51388900  0.84978100  0.88493800  1
  C  1030  1  0.48668200  0.85032900  0.90435300  1
  C  1031  1  0.48869800  0.83322700  0.92256100  1
  C  1032  1  0.51869900  0.81542700  0.92141400  1
  C  1033  1  0.54625900  0.81453500  0.90230200  1
  C  1034  1  0.54342400  0.83158400  0.88408300  1
  C  1038  1  0.51237900  0.86760300  0.86708700  1
  C  1039  1  0.50891700  0.89180300  0.87338600  1
  C  1040  1  0.50772600  0.90989100  0.85608200  1
  C  1041  1  0.50994100  0.90328600  0.83194000  1
  C  1042  1  0.51389800  0.87931600  0.82513600  1
  C  1043  1  0.51530300  0.86165400  0.84279200  1
  C  1047  1  0.01384310  0.64529900  0.09594600  1
  C  1048  1  0.98660100  0.64475300  0.07654900  1
  C  1049  1  0.98859500  0.66185200  0.05833700  1
  C  1050  1  0.01859810  0.67965200  0.05946700  1
  C  1051  1  0.04618310  0.68054800  0.07856600  1
  C  1052  1  0.04337610  0.66350100  0.09678600  1
  C  1056  1  0.01237610  0.62747600  0.11379400  1
  C  1057  1  0.00894211  0.60327500  0.10749100  1
  C  1058  1  0.00777911  0.58518200  0.12479300  1
  C  1059  1  0.00998411  0.59178800  0.14893600  1
  C  1060  1  0.01390710  0.61575900  0.15574200  1
  C  1061  1  0.01529510  0.63342500  0.13808900  1
  C  1065  1  0.01163110  0.34990700  0.38480700  1
  C  1066  1  0.04247310  0.33242900  0.38384100  1
  C  1067  1  0.04618010  0.31506500  0.40170000  1
  C  1068  1  0.01852810  0.31501000  0.42077400  1
  C  1069  1  0.98746700  0.33213500  0.42214700  1
  C  1070  1  0.98423500  0.34938400  0.40414500  1
  C  1074  1  0.00901811  0.36805300  0.36723400  1
  C  1075  1  0.01548710  0.36297400  0.34295900  1
  C  1076  1  0.01515310  0.38099800  0.32558200  1
  C  1077  1  0.00682211  0.40447700  0.33288800  1
  C  1078  1  0.99978200  0.41027600  0.35691400  1
  C  1079  1  0.00141611  0.39185700  0.37382700  1
  C  1083  1  0.51164400  0.14519600  0.59599400  1
  C  1084  1  0.54248900  0.16266900  0.59699200  1
  C  1085  1  0.54628000  0.18001800  0.57912200  1
  C  1086  1  0.51866100  0.18008800  0.56003400  1
  C  1087  1  0.48757000  0.16298400  0.55864300  1
  C  1088  1  0.48428300  0.14573300  0.57664000  1
  C  1092  1  0.50898200  0.12704500  0.61356200  1
  C  1093  1  0.51540700  0.13211900  0.63784200  1
  C  1094  1  0.51502900  0.11409100  0.65521500  1
  C  1095  1  0.50669500  0.09061600  0.64790100  1
  C  1096  1  0.49968200  0.08482700  0.62386900  1
  C  1097  1  0.50136500  0.10324700  0.60696000  1
  C  1101  1  0.76808400  0.64482400  0.88538600  1
  C  1102  1  0.79820000  0.64327100  0.90322200  1
  C  1103  1  0.80228100  0.66111800  0.92057100  1
  C  1104  1  0.77546500  0.68061100  0.92033100  1
  C  1105  1  0.74503300  0.68250800  0.90285700  1
  C  1106  1  0.74170300  0.66462400  0.88548400  1
  C  1110  1  0.76459600  0.62707700  0.86754100  1
  C  1111  1  0.76718500  0.60268200  0.87327100  1
  C  1112  1  0.76551700  0.58495200  0.85558200  1
  C  1113  1  0.76014800  0.59209100  0.83175200  1
  C  1114  1  0.75710700  0.61624500  0.82562000  1
  C  1115  1  0.75972000  0.63358100  0.84348600  1
  C  1119  1  0.26796900  0.85024600  0.09542700  1
  C  1120  1  0.29812800  0.85180800  0.07761600  1
  C  1121  1  0.30223900  0.83397200  0.06025900  1
  C  1122  1  0.27542900  0.81447300  0.06047300  1
  C  1123  1  0.24497200  0.81256200  0.07792900  1
  C  1124  1  0.24160000  0.83044000  0.09530400  1
  C  1128  1  0.26444200  0.86797700  0.11328600  1
  C  1129  1  0.26702200  0.89237800  0.10758700  1
  C  1130  1  0.26525600  0.91009200  0.12529100  1
  C  1131  1  0.25981800  0.90292200  0.14910800  1
  C  1132  1  0.25681900  0.87875800  0.15521100  1
  C  1133  1  0.25952600  0.86144300  0.13732900  1
  C  1137  1  0.52214900  0.85324500  0.59234500  1
  C  1138  1  0.54979200  0.83402500  0.59251400  1
  C  1139  1  0.54770300  0.81588200  0.57534600  1
  C  1140  1  0.51736300  0.81693700  0.55774400  1
  C  1141  1  0.48945500  0.83587600  0.55716400  1
  C  1142  1  0.49220800  0.85396300  0.57435100  1
  C  1146  1  0.52368400  0.87105500  0.61025600  1
  C  1147  1  0.52943900  0.86483600  0.63434100  1
  C  1148  1  0.53076300  0.88211300  0.65246400  1
  C  1149  1  0.52605300  0.90617400  0.64598800  1
  C  1150  1  0.51979100  0.91292600  0.62217800  1
  C  1151  1  0.51860600  0.89528300  0.60450500  1
  C  1155  1  0.02214710  0.64187600  0.38853500  1
  C  1156  1  0.04982010  0.66108100  0.38833300  1
  C  1157  1  0.04781810  0.67922300  0.40550500  1
  C  1158  1  0.01752610  0.67819200  0.42313500  1
  C  1159  1  0.98958200  0.65927200  0.42374300  1
  C  1160  1  0.99225300  0.64117900  0.40655600  1
  C  1164  1  0.02360210  0.62405800  0.37062900  1
  C  1165  1  0.02932710  0.63026300  0.34653600  1
  C  1166  1  0.03059410  0.61297800  0.32842000  1
  C  1167  1  0.02582610  0.58892500  0.33490700  1
  C  1168  1  0.01961610  0.58218800  0.35872600  1
  C  1169  1  0.01849810  0.59983400  0.37639400  1
  C  1173  1  0.26593100  0.14298300  0.09343000  1
  C  1174  1  0.29272000  0.14244200  0.07382500  1
  C  1175  1  0.29073600  0.15979300  0.05583800  1
  C  1176  1  0.26104500  0.17775200  0.05736600  1
  C  1177  1  0.23381300  0.17858500  0.07664200  1
  C  1178  1  0.23669000  0.16132300  0.09464600  1
  C  1182  1  0.26792700  0.12525000  0.11133900  1
  C  1183  1  0.27093200  0.10099300  0.10515600  1
  C  1184  1  0.27181900  0.08327000  0.12274400  1
  C  1185  1  0.27019400  0.08985000  0.14683900  1
  C  1186  1  0.26739800  0.11391700  0.15347900  1
  C  1187  1  0.26597000  0.13142200  0.13563800  1
  C  1191  1  0.76591200  0.35208400  0.88742300  1
  C  1192  1  0.79269500  0.35261100  0.90703200  1
  C  1193  1  0.79067100  0.33526700  0.92502200  1
  C  1194  1  0.76096300  0.31731800  0.92348900  1
  C  1195  1  0.73374200  0.31649400  0.90420400  1
  C  1196  1  0.73665300  0.33375400  0.88620200  1
  C  1200  1  0.76792600  0.36981400  0.86951400  1
  C  1201  1  0.77092500  0.39407300  0.87569600  1
  C  1202  1  0.77181900  0.41179300  0.85810700  1
  C  1203  1  0.77018700  0.40520900  0.83401100  1
  C  1204  1  0.76740700  0.38114200  0.82737200  1
  C  1205  1  0.76597600  0.36363900  0.84521500  1
  C  1209  1  0.76593300  0.64206600  0.59243200  1
  C  1210  1  0.73514300  0.65954700  0.59362200  1
  C  1211  1  0.73065200  0.67666700  0.57558900  1
  C  1212  1  0.75754700  0.67646700  0.55613800  1
  C  1213  1  0.78850200  0.65929500  0.55451600  1
  C  1214  1  0.79238800  0.64222900  0.57265300  1
  C  1218  1  0.77028400  0.62465200  0.61059100  1
  C  1219  1  0.76596400  0.63065400  0.63484800  1
  C  1220  1  0.76822700  0.61335000  0.65294400  1
  C  1221  1  0.77629700  0.58963600  0.64628200  1
  C  1222  1  0.78106100  0.58319200  0.62231200  1
  C  1223  1  0.77760000  0.60066400  0.60462900  1
  C  1227  1  0.26599500  0.85306600  0.38839500  1
  C  1228  1  0.23521600  0.83557800  0.38719200  1
  C  1229  1  0.23067400  0.81847400  0.40523700  1
  C  1230  1  0.25753600  0.81868700  0.42470600  1
  C  1231  1  0.28849000  0.83585800  0.42633700  1
  C  1232  1  0.29241300  0.85291200  0.40819000  1
  C  1236  1  0.27037300  0.87047200  0.37023000  1
  C  1237  1  0.26604300  0.86446000  0.34597400  1
  C  1238  1  0.26831300  0.88175400  0.32786700  1
  C  1239  1  0.27639200  0.90547200  0.33451900  1
  C  1240  1  0.28118600  0.91192100  0.35848900  1
  C  1241  1  0.27772000  0.89445900  0.37617900  1
  C  1245  1  0.02006910  0.35196500  0.09403300  1
  C  1246  1  0.98942700  0.35347900  0.07650900  1
  C  1247  1  0.98368200  0.33509700  0.05987200  1
  C  1248  1  0.00957711  0.31517600  0.06047400  1
  C  1249  1  0.04055010  0.31334500  0.07763000  1
  C  1250  1  0.04537510  0.33169900  0.09436800  1
  C  1254  1  0.02529810  0.37026000  0.11113500  1
  C  1255  1  0.02500310  0.39445000  0.10444100  1
  C  1256  1  0.02983710  0.41261900  0.12142600  1
  C  1257  1  0.03448910  0.40637600  0.14552300  1
  C  1258  1  0.03454310  0.38241500  0.15259800  1
  C  1259  1  0.02990710  0.36452600  0.13540500  1
  C  1263  1  0.52005500  0.14309900  0.88678000  1
  C  1264  1  0.48940600  0.14158300  0.90430200  1
  C  1265  1  0.48367300  0.15995700  0.92094800  1
  C  1266  1  0.50956500  0.17987900  0.92034900  1
  C  1267  1  0.54052800  0.18171900  0.90319000  1
  C  1268  1  0.54535300  0.16336900  0.88644600  1
  C  1272  1  0.52528200  0.12481000  0.86967200  1
  C  1273  1  0.52499800  0.10061900  0.87636100  1
  C  1274  1  0.52980400  0.08245600  0.85936700  1
  C  1275  1  0.53442900  0.08870800  0.83527100  1
  C  1276  1  0.53449000  0.11266900  0.82819800  1
  C  1277  1  0.52987900  0.13055000  0.84540300  1
  C  1281  1  0.21423700  0.20086200  0.40228500  1
  C  1282  1  0.21175700  0.21575000  0.38225800  1
  C  1283  1  0.18502000  0.23511200  0.38211400  1
  C  1284  1  0.15991400  0.23992900  0.40188100  1
  C  1285  1  0.16153700  0.22475600  0.42198300  1
  C  1286  1  0.18904900  0.20549600  0.42199500  1
  C  1288  1  0.13326200  0.25966700  0.40096400  1
  C  1289  1  0.10421500  0.26163700  0.38260000  1
  C  1290  1  0.07633010  0.28048700  0.38235600  1
  C  1291  1  0.07684310  0.29762800  0.40058500  1
  C  1292  1  0.10640000  0.29603400  0.41865900  1
  C  1293  1  0.13462300  0.27737200  0.41868500  1
  C  1303  1  0.71433000  0.29421500  0.57857100  1
  C  1304  1  0.71188700  0.27932000  0.59859200  1
  C  1305  1  0.68518000  0.25994200  0.59873400  1
  C  1306  1  0.66005900  0.25512700  0.57897700  1
  C  1307  1  0.66163900  0.27031100  0.55888400  1
  C  1308  1  0.68913500  0.28957900  0.55886600  1
  C  1310  1  0.63342500  0.23538000  0.57989700  1
  C  1311  1  0.60439400  0.23340000  0.59826800  1
  C  1312  1  0.57650800  0.21454800  0.59850900  1
  C  1313  1  0.57697900  0.19743500  0.58025300  1
  C  1314  1  0.60652500  0.19903600  0.56217400  1
  C  1315  1  0.63477700  0.21768400  0.56216500  1
  C  1325  1  0.46180000  0.83414200  0.94208200  1
  C  1326  1  0.46064100  0.85429100  0.95687200  1
  C  1327  1  0.43537700  0.85468500  0.97690600  1
  C  1328  1  0.41047700  0.83504200  0.98250100  1
  C  1329  1  0.41054800  0.81489500  0.96736300  1
  C  1330  1  0.43659100  0.81462500  0.94742600  1
  C  1332  1  0.38575400  0.83598700  0.00307200  1
  C  1333  1  0.35647000  0.85411800  0.00582600  1
  C  1334  1  0.32989400  0.85402200  0.02532400  1
  C  1335  1  0.33201500  0.83569700  0.04233600  1
  C  1336  1  0.36206100  0.81798100  0.04002500  1
  C  1337  1  0.38894700  0.81828400  0.02071100  1
  C  1347  1  0.96167800  0.66093400  0.03882500  1
  C  1348  1  0.96052600  0.64078400  0.02403400  1
  C  1349  1  0.93528100  0.64039600  0.00399200  1
  C  1350  1  0.91037600  0.66003700  0.99839700  1
  C  1351  1  0.91042700  0.68017900  0.01354200  1
  C  1352  1  0.93646600  0.68044800  0.03348100  1
  C  1354  1  0.88568000  0.65909700  0.97781400  1
  C  1355  1  0.85642400  0.64096000  0.97503200  1
  C  1356  1  0.82988400  0.64105700  0.95551700  1
  C  1357  1  0.83201400  0.65939300  0.93852000  1
  C  1358  1  0.86204500  0.67711400  0.94085300  1
  C  1359  1  0.88890400  0.67680700  0.96018200  1
  C  1369  1  0.57447000  0.79631400  0.57620000  1
  C  1370  1  0.57518100  0.78138500  0.59625100  1
  C  1371  1  0.59991500  0.76113300  0.59652900  1
  C  1372  1  0.62466400  0.75543400  0.57685300  1
  C  1373  1  0.62505500  0.77070400  0.55680400  1
  C  1374  1  0.59955200  0.79088100  0.55665400  1
  C  1376  1  0.64876600  0.73461800  0.57769300  1
  C  1377  1  0.67781000  0.73146200  0.59588200  1
  C  1378  1  0.70373200  0.71167800  0.59576300  1
  C  1379  1  0.70116800  0.69474800  0.57737900  1
  C  1380  1  0.67137100  0.69748300  0.55958100  1
  C  1381  1  0.64512200  0.71709700  0.55990000  1
  C  1391  1  0.07461310  0.69877900  0.40462300  1
  C  1392  1  0.07529310  0.71370400  0.38457000  1
  C  1393  1  0.10000400  0.73396500  0.38428100  1
  C  1394  1  0.12477900  0.73967000  0.40394400  1
  C  1395  1  0.12522500  0.72439600  0.42398800  1
  C  1396  1  0.09973110  0.70421400  0.42415200  1
  C  1398  1  0.14883300  0.76050600  0.40310100  1
  C  1399  1  0.17785600  0.76368800  0.38490500  1
  C  1400  1  0.20373900  0.78349000  0.38502400  1
  C  1401  1  0.20119300  0.80039200  0.40343600  1
  C  1402  1  0.17141700  0.79763000  0.42124200  1
  C  1403  1  0.14516300  0.77801700  0.42090100  1
  C  1413  1  0.31801700  0.15927600  0.03646600  1
  C  1414  1  0.32003100  0.13928600  0.02149300  1
  C  1415  1  0.34626700  0.13914900  0.00188000  1
  C  1416  1  0.37137300  0.15887400  0.99690800  1
  C  1417  1  0.37034000  0.17889400  0.01220300  1
  C  1418  1  0.34331700  0.17890800  0.03169700  1
  C  1420  1  0.39739700  0.15807500  0.97687100  1
  C  1421  1  0.42674800  0.13991800  0.97457800  1
  C  1422  1  0.45433000  0.14001900  0.95555800  1
  C  1423  1  0.45322500  0.15838100  0.93854500  1
  C  1424  1  0.42317800  0.17616100  0.94042900  1
  C  1425  1  0.39530700  0.17586900  0.95926900  1
  C  1435  1  0.81793400  0.33577600  0.94440000  1
  C  1436  1  0.81993700  0.35575600  0.95938600  1
  C  1437  1  0.84620000  0.35589700  0.97898600  1
  C  1438  1  0.87130600  0.33617000  0.98395300  1
  C  1439  1  0.87025800  0.31615200  0.96865700  1
  C  1440  1  0.84322500  0.31613700  0.94916900  1
  C  1442  1  0.89735000  0.33697100  0.00398000  1
  C  1443  1  0.92669800  0.35513200  0.00626200  1
  C  1444  1  0.95430100  0.35503200  0.02527100  1
  C  1445  1  0.95322500  0.33666800  0.04228000  1
  C  1446  1  0.92317300  0.31889000  0.04041200  1
  C  1447  1  0.89527500  0.31918100  0.02158600  1
  C  1457  1  0.71781500  0.70189400  0.90300800  1
  C  1458  1  0.71471300  0.71696800  0.88315100  1
  C  1459  1  0.68744700  0.73607800  0.88330300  1
  C  1460  1  0.66232200  0.74042500  0.90317400  1
  C  1461  1  0.66483100  0.72517400  0.92318700  1
  C  1462  1  0.69290600  0.70619100  0.92291200  1
  C  1464  1  0.63452200  0.75963700  0.90235200  1
  C  1465  1  0.60550600  0.76119900  0.88392400  1
  C  1466  1  0.57693900  0.77970100  0.88354600  1
  C  1467  1  0.57663400  0.79688000  0.90174400  1
  C  1468  1  0.60597300  0.79560700  0.91996800  1
  C  1469  1  0.63488300  0.77730500  0.92012400  1
  C  1479  1  0.21778500  0.79316200  0.07777200  1
  C  1480  1  0.21470100  0.77809000  0.09763100  1
  C  1481  1  0.18744500  0.75897200  0.09748200  1
  C  1482  1  0.16229900  0.75462700  0.07761900  1
  C  1483  1  0.16480000  0.76987500  0.05760500  1
  C  1484  1  0.19288300  0.78885600  0.05786600  1
  C  1486  1  0.13448900  0.73542100  0.07845800  1
  C  1487  1  0.10550400  0.73387000  0.09690400  1
  C  1488  1  0.07693410  0.71536900  0.09730500  1
  C  1489  1  0.07657010  0.69819800  0.07910300  1
  C  1490  1  0.10588300  0.69945800  0.06086200  1
  C  1491  1  0.13481100  0.71775000  0.06069100  1
  C  1501  1  0.96081800  0.33237600  0.44177000  1
  C  1502  1  0.95918000  0.35233100  0.45679300  1
  C  1503  1  0.93384400  0.35227900  0.47677600  1
  C  1504  1  0.90928200  0.33240400  0.48207100  1
  C  1505  1  0.91013000  0.31235200  0.46681100  1
  C  1506  1  0.93631400  0.31251200  0.44693100  1
  C  1508  1  0.88383900  0.33322700  0.50234100  1
  C  1509  1  0.85497200  0.35160700  0.50495400  1
  C  1510  1  0.82843500  0.35190200  0.52444400  1
  C  1511  1  0.83011500  0.33368800  0.54157600  1
  C  1512  1  0.85940800  0.31555200  0.53929600  1
  C  1513  1  0.88633000  0.31549000  0.51998900  1
  C  1523  1  0.46095100  0.16276100  0.53900700  1
  C  1524  1  0.45930800  0.14281300  0.52397600  1
  C  1525  1  0.43396100  0.14287300  0.50399700  1
  C  1526  1  0.40939200  0.16274800  0.49871600  1
  C  1527  1  0.41025400  0.18279500  0.51398100  1
  C  1528  1  0.43645800  0.18263100  0.53385400  1
  C  1530  1  0.38390600  0.16192300  0.47846300  1
  C  1531  1  0.35505400  0.14353300  0.47586600  1
  C  1532  1  0.32847800  0.14323400  0.45639400  1
  C  1533  1  0.33010000  0.16145100  0.43926400  1
  C  1534  1  0.35938400  0.17959600  0.44152700  1
  C  1535  1  0.38634900  0.17966100  0.46081500  1
  C  1545  1  0.06712610  0.29367100  0.07759300  1
  C  1546  1  0.06984910  0.27865900  0.09751500  1
  C  1547  1  0.09633110  0.25916400  0.09733300  1
  C  1548  1  0.12103900  0.25438900  0.07737900  1
  C  1549  1  0.11911200  0.26968700  0.05738100  1
  C  1550  1  0.09180410  0.28904000  0.05767100  1
  C  1552  1  0.14773300  0.23463900  0.07799400  1
  C  1553  1  0.17712600  0.23248800  0.09615500  1
  C  1554  1  0.20492100  0.21357800  0.09609900  1
  C  1555  1  0.20404900  0.19657200  0.07774000  1
  C  1556  1  0.17422800  0.19839200  0.05983700  1
  C  1557  1  0.14609000  0.21709900  0.06011800  1
  C  1567  1  0.56709200  0.20139900  0.90322400  1
  C  1568  1  0.56978900  0.21641500  0.88330500  1
  C  1569  1  0.59624700  0.23592200  0.88348800  1
  C  1570  1  0.62095900  0.24070000  0.90343800  1
  C  1571  1  0.61906200  0.22539600  0.92343400  1
  C  1572  1  0.59176300  0.20603700  0.92314600  1
  C  1574  1  0.64763700  0.26045800  0.90282300  1
  C  1575  1  0.67702200  0.26261500  0.88465900  1
  C  1576  1  0.70481400  0.28152900  0.88472000  1
  C  1577  1  0.70396300  0.29851400  0.90309600  1
  C  1578  1  0.67414100  0.29669200  0.92099800  1
  C  1579  1  0.64599000  0.27799400  0.92070400  1
  C  1589  1  0.81599300  0.65960900  0.53528300  1
  C  1590  1  0.81957500  0.63978800  0.52020900  1
  C  1591  1  0.84717500  0.64008700  0.50126300  1
  C  1592  1  0.87219900  0.66005100  0.49712700  1
  C  1593  1  0.86918800  0.68002600  0.51239600  1
  C  1594  1  0.84074000  0.67962200  0.53118400  1
  C  1596  1  0.90044000  0.65932400  0.47813200  1
  C  1597  1  0.92948100  0.64089800  0.47672300  1
  C  1598  1  0.95836000  0.64053800  0.45839000  1
  C  1599  1  0.95897700  0.65876700  0.44125300  1
  C  1600  1  0.92967200  0.67701400  0.44238400  1
  C  1601  1  0.90043400  0.67714200  0.46050900  1
  C  1611  1  0.31593900  0.83555300  0.44559100  1
  C  1612  1  0.31948700  0.85538200  0.46065800  1
  C  1613  1  0.34704800  0.85508900  0.47962300  1
  C  1614  1  0.37206600  0.83512900  0.48378500  1
  C  1615  1  0.36908500  0.81514600  0.46852300  1
  C  1616  1  0.34066200  0.81553600  0.44972100  1
  C  1618  1  0.40027700  0.83586300  0.50279500  1
  C  1619  1  0.42933000  0.85428600  0.50420600  1
  C  1620  1  0.45821000  0.85463700  0.52253800  1
  C  1621  1  0.45881700  0.83640700  0.53967600  1
  C  1622  1  0.42948800  0.81817100  0.53854700  1
  C  1623  1  0.40024600  0.81805200  0.52042500  1
  C  1633  1  0.25413300  0.12119600  0.30194000  1
  C  1634  1  0.22697300  0.10859900  0.28719600  1
  C  1635  1  0.22644200  0.11247600  0.26262000  1
  C  1636  1  0.25322100  0.12900100  0.25212300  1
  C  1637  1  0.27939100  0.14261700  0.26674900  1
  C  1638  1  0.27921100  0.13869100  0.29152700  1
  C  1640  1  0.25813700  0.12835500  0.22719300  1
  C  1641  1  0.22624100  0.13473700  0.21170600  1
  C  1642  1  0.23001200  0.13098500  0.18713700  1
  C  1643  1  0.26525300  0.12016700  0.17773700  1
  C  1644  1  0.29722300  0.11395300  0.19323200  1
  C  1645  1  0.29378600  0.11812100  0.21768400  1
  C  1655  1  0.75409600  0.37386500  0.67892600  1
  C  1656  1  0.72688500  0.38642800  0.69366700  1
  C  1657  1  0.72636500  0.38255300  0.71824300  1
  C  1658  1  0.75319400  0.36605000  0.72872700  1
  C  1659  1  0.77940200  0.35245300  0.71411100  1
  C  1660  1  0.77920200  0.35637400  0.68933100  1
  C  1662  1  0.75814300  0.36671500  0.75365600  1
  C  1663  1  0.72629500  0.36026600  0.76915400  1
  C  1664  1  0.73008100  0.36399700  0.79372600  1
  C  1665  1  0.76526500  0.37489100  0.80311300  1
  C  1666  1  0.79718900  0.38116500  0.78761000  1
  C  1667  1  0.79377100  0.37697400  0.76316200  1
  C  1677  1  0.50686600  0.93425600  0.86272500  1
  C  1678  1  0.48066700  0.95039800  0.85119300  1
  C  1679  1  0.48305500  0.97479800  0.85584600  1
  C  1680  1  0.51173100  0.98378100  0.87219300  1
  C  1681  1  0.53722300  0.96778300  0.88465400  1
  C  1682  1  0.53420400  0.94320500  0.87989400  1
  C  1684  1  0.51825000  0.00862300  0.87277500  1
  C  1685  1  0.48692000  0.02441900  0.87938700  1
  C  1686  1  0.49168500  0.04901000  0.87625100  1
  C  1687  1  0.52747700  0.05823100  0.86588700  1
  C  1688  1  0.55910000  0.04245300  0.85973800  1
  C  1689  1  0.55460900  0.01794500  0.86323900  1
  C  1699  1  0.00693711  0.56081700  0.11815000  1
  C  1700  1  0.98078000  0.54466500  0.12969900  1
  C  1701  1  0.98312900  0.52027000  0.12501100  1
  C  1702  1  0.01182310  0.51129300  0.10867400  1
  C  1703  1  0.03726910  0.52730300  0.09619300  1
  C  1704  1  0.03422110  0.55188200  0.10094700  1
  C  1706  1  0.01831610  0.48644900  0.10802300  1
  C  1707  1  0.98695100  0.47066800  0.10144100  1
  C  1708  1  0.99170600  0.44607400  0.10456200  1
  C  1709  1  0.02751610  0.43683900  0.11489000  1
  C  1710  1  0.05917510  0.45260600  0.12100700  1
  C  1711  1  0.05470610  0.47711700  0.11750900  1
  C  1721  1  0.02340210  0.37584800  0.30131300  1
  C  1722  1  0.05009410  0.39032800  0.28806500  1
  C  1723  1  0.05531910  0.38680200  0.26364300  1
  C  1724  1  0.03413010  0.36858300  0.25169600  1
  C  1725  1  0.00879611  0.35306400  0.26490500  1
  C  1726  1  0.00396911  0.35681700  0.28957200  1
  C  1728  1  0.03430910  0.36873900  0.22653000  1
  C  1729  1  0.07098510  0.36751800  0.21351000  1
  C  1730  1  0.07112510  0.37125100  0.18884000  1
  C  1731  1  0.03459210  0.37659100  0.17688400  1
  C  1732  1  0.99786200  0.37757000  0.18972900  1
  C  1733  1  0.99776700  0.37371000  0.21430800  1
  C  1743  1  0.52326100  0.11923300  0.67948800  1
  C  1744  1  0.54996600  0.10475500  0.69273100  1
  C  1745  1  0.55518100  0.10827000  0.71715300  1
  C  1746  1  0.53397600  0.12648200  0.72909800  1
  C  1747  1  0.50864000  0.14200700  0.71589900  1
  C  1748  1  0.50383200  0.13826700  0.69122900  1
  C  1750  1  0.53414900  0.12632200  0.75426400  1
  C  1751  1  0.57083300  0.12759300  0.76727500  1
  C  1752  1  0.57100500  0.12388400  0.79195000  1
  C  1753  1  0.53450000  0.11849800  0.80391400  1
  C  1754  1  0.49776700  0.11746000  0.79107900  1
  C  1755  1  0.49762800  0.12134600  0.76650300  1
  C  1765  1  0.77010800  0.56051100  0.86140800  1
  C  1766  1  0.79630800  0.54588900  0.84798900  1
  C  1767  1  0.79879900  0.52147200  0.85241800  1
  C  1768  1  0.77532500  0.51089900  0.87053000  1
  C  1769  1  0.75002200  0.52540900  0.88484400  1
  C  1770  1  0.74801000  0.55006900  0.88021500  1
  C  1772  1  0.77363500  0.48577500  0.87138300  1
  C  1773  1  0.80918100  0.47205000  0.87459700  1
  C  1774  1  0.80829400  0.44732000  0.87135300  1
  C  1775  1  0.77196100  0.43599700  0.86437700  1
  C  1776  1  0.73625500  0.44955900  0.86157800  1
  C  1777  1  0.73708400  0.47419400  0.86511600  1
  C  1787  1  0.26986200  0.93454000  0.11949900  1
  C  1788  1  0.29597700  0.94915500  0.13298200  1
  C  1789  1  0.29852300  0.97357100  0.12856200  1
  C  1790  1  0.27514300  0.98416200  0.11041800  1
  C  1791  1  0.24995800  0.96965500  0.09602900  1
  C  1792  1  0.24792300  0.94499100  0.10063400  1
  C  1794  1  0.27356600  0.00928800  0.10949900  1
  C  1795  1  0.30919100  0.02297100  0.10642600  1
  C  1796  1  0.30834600  0.04770400  0.10965200  1
  C  1797  1  0.27196200  0.05907000  0.11646300  1
  C  1798  1  0.23617600  0.04554900  0.11911600  1
  C  1799  1  0.23696600  0.02091100  0.11559400  1
  C  1809  1  0.53421400  0.87553300  0.67679500  1
  C  1810  1  0.55985900  0.88825100  0.69235700  1
  C  1811  1  0.55932800  0.88381900  0.71683700  1
  C  1812  1  0.53313300  0.86648100  0.72649200  1
  C  1813  1  0.50869900  0.85265300  0.71106000  1
  C  1814  1  0.50976700  0.85726600  0.68639800  1
  C  1816  1  0.52721800  0.86626500  0.75138900  1
  C  1817  1  0.55945300  0.86126400  0.76716100  1
  C  1818  1  0.55445300  0.86446900  0.79173200  1
  C  1819  1  0.51747500  0.87333500  0.80088500  1
  C  1820  1  0.48516100  0.87815500  0.78515300  1
  C  1821  1  0.48991800  0.87452600  0.76068300  1
  C  1831  1  0.03405410  0.61954400  0.30408500  1
  C  1832  1  0.05970410  0.60681000  0.28853800  1
  C  1833  1  0.05919310  0.61123000  0.26405600  1
  C  1834  1  0.03303010  0.62858000  0.25439800  1
  C  1835  1  0.00860511  0.64243300  0.26981000  1
  C  1836  1  0.00966211  0.63783400  0.29447500  1
  C  1838  1  0.02712710  0.62878800  0.22949700  1
  C  1839  1  0.05938510  0.63379800  0.21374100  1
  C  1840  1  0.05441110  0.63061700  0.18916300  1
  C  1841  1  0.01745610  0.62174100  0.17999800  1
  C  1842  1  0.98511900  0.61691500  0.19570800  1
  C  1843  1  0.98981900  0.62056900  0.22017800  1
  C  1853  1  0.76131200  0.61934400  0.67720300  1
  C  1854  1  0.73693500  0.60466000  0.69169700  1
  C  1855  1  0.73261200  0.60923400  0.71599100  1
  C  1856  1  0.75203600  0.62889000  0.72662100  1
  C  1857  1  0.77487200  0.64460400  0.71214500  1
  C  1858  1  0.77905900  0.63967400  0.68763200  1
  C  1860  1  0.75275300  0.63005900  0.75179800  1
  C  1861  1  0.71647200  0.62911900  0.76524100  1
  C  1862  1  0.71773300  0.62561400  0.78992900  1
  C  1863  1  0.75539600  0.62290400  0.80156500  1
  C  1864  1  0.79171700  0.62446000  0.78839200  1
  C  1865  1  0.79035500  0.62794400  0.76376100  1
  C  1875  1  0.26134600  0.87575600  0.30361400  1
  C  1876  1  0.23700900  0.89046000  0.28912000  1
  C  1877  1  0.23259700  0.88586500  0.26483600  1
  C  1878  1  0.25194800  0.86618700  0.25420100  1
  C  1879  1  0.27471800  0.85044100  0.26868500  1
  C  1880  1  0.27895600  0.85538000  0.29319300  1
  C  1882  1  0.25252900  0.86494000  0.22902600  1
  C  1883  1  0.21621800  0.86600400  0.21562400  1
  C  1884  1  0.21743600  0.86950200  0.19093400  1
  C  1885  1  0.25509000  0.87206700  0.17925700  1
  C  1886  1  0.29143800  0.87036700  0.19238800  1
  C  1887  1  0.29012500  0.86690100  0.21702200  1
  C  1897  1  0.99472300  0.43439100  0.36389700  1
  C  1898  1  0.96901000  0.44977900  0.35101500  1
  C  1899  1  0.96910700  0.47427200  0.35540400  1
  C  1900  1  0.99491700  0.48405700  0.37286100  1
  C  1901  1  0.01905110  0.46875500  0.38700400  1
  C  1902  1  0.01840710  0.44408600  0.38244800  1
  C  1904  1  0.00185411  0.50884400  0.37242800  1
  C  1905  1  0.97055300  0.52526800  0.37731700  1
  C  1906  1  0.97692700  0.54969100  0.37377200  1
  C  1907  1  0.01429010  0.55801300  0.36461900  1
  C  1908  1  0.04557910  0.54159100  0.35980800  1
  C  1909  1  0.03948110  0.51729200  0.36377500  1
  C  1919  1  0.49463000  0.06071500  0.61688200  1
  C  1920  1  0.46886700  0.04533000  0.62973700  1
  C  1921  1  0.46902500  0.02083000  0.62538600  1
  C  1922  1  0.49494600  0.01105000  0.60798600  1
  C  1923  1  0.51914500  0.02633500  0.59386400  1
  C  1924  1  0.51841800  0.05100800  0.59838000  1
  C  1926  1  0.50195400  0.98627000  0.60847900  1
  C  1927  1  0.47076000  0.96981800  0.60345300  1
  C  1928  1  0.47717400  0.94539700  0.60698800  1
  C  1929  1  0.51444600  0.93710700  0.61629700  1
  C  1930  1  0.54563100  0.95356000  0.62124000  1
  C  1931  1  0.53952400  0.97785300  0.61724000  1
  C  1941  1  0.28130800  0.06037200  0.36260500  1
  C  1942  1  0.30666900  0.04615600  0.34821400  1
  C  1943  1  0.31097100  0.02180300  0.35255200  1
  C  1944  1  0.29047100  0.01088800  0.37166700  1
  C  1945  1  0.26690000  0.02511500  0.38722900  1
  C  1946  1  0.26276800  0.04966300  0.38254300  1
  C  1948  1  0.28863900  0.98572700  0.37211900  1
  C  1949  1  0.32424900  0.97166600  0.37212700  1
  C  1950  1  0.32195200  0.94699400  0.36859000  1
  C  1951  1  0.28396000  0.93606500  0.36469700  1
  C  1952  1  0.24830500  0.94992600  0.36505100  1
  C  1953  1  0.25067500  0.97449100  0.36868000  1
  C  1963  1  0.78119800  0.43473100  0.61828800  1
  C  1964  1  0.80644000  0.44897400  0.63272400  1
  C  1965  1  0.81077000  0.47332100  0.62836300  1
  C  1966  1  0.79030100  0.48422900  0.60923300  1
  C  1967  1  0.76684500  0.46997400  0.59363000  1
  C  1968  1  0.76275500  0.44542300  0.59830900  1
  C  1970  1  0.78853800  0.50939200  0.60869400  1
  C  1971  1  0.82416900  0.52343300  0.60881100  1
  C  1972  1  0.82187500  0.54810600  0.61233200  1
  C  1973  1  0.78385900  0.55905700  0.61607600  1
  C  1974  1  0.74818000  0.54522000  0.61558300  1
  C  1975  1  0.75055000  0.52064900  0.61197700  1
  N  308  1  0.73994400  0.22851200  0.44137900  1
  N  330  1  0.24002700  0.26655400  0.53949500  1
  N  352  1  0.98894100  0.79567200  0.97191200  1
  N  374  1  0.48881000  0.69939600  0.00899500  1
  N  396  1  0.25657600  0.76601700  0.53756300  1
  N  418  1  0.75677000  0.72909000  0.44321700  1
  N  440  1  0.00209600  0.19820600  0.00832100  1
  N  462  1  0.50202100  0.29683900  0.97253300  1
  N  484  1  0.24332100  0.72844300  0.94270900  1
  N  506  1  0.74327400  0.76660600  0.03808900  1
  N  528  1  0.48903500  0.29284300  0.47111500  1
  N  550  1  0.98914200  0.20230300  0.50969500  1
  N  572  1  0.75046900  0.26606100  0.03783400  1
  N  594  1  0.25042300  0.22902600  0.94297700  1
  N  616  1  0.50061100  0.69964100  0.50935800  1
  N  638  1  0.00051600  0.79553800  0.47158300  1
  N  660  1  0.91072900  0.15949900  0.25627700  1
  N  682  1  0.41079200  0.33559900  0.72458400  1
  N  704  1  0.17038900  0.97667400  0.90144000  1
  N  726  1  0.67041800  0.51842600  0.07938800  1
  N  748  1  0.59374800  0.33417700  0.25320500  1
  N  770  1  0.09357100  0.16088300  0.72760700  1
  N  792  1  0.33240900  0.51498700  0.90348500  1
  N  814  1  0.83249500  0.98007900  0.07732600  1
  N  836  1  0.08841900  0.83472200  0.72061000  1
  N  858  1  0.58836100  0.66037300  0.26024400  1
  N  880  1  0.39790300  0.66496800  0.72242000  1
  N  902  1  0.89762400  0.83003100  0.25842600  1
  N  924  1  0.64904600  0.47847700  0.40499800  1
  N  946  1  0.14927500  0.01659800  0.57594300  1
  N  968  1  0.85280300  0.01451200  0.40708200  1
  N  990  1  0.35283900  0.48055100  0.57373500  1
  N  1300  1  0.13492700  0.22851200  0.44137900  1
  N  1322  1  0.63501000  0.26655400  0.53949500  1
  N  1344  1  0.38392400  0.79567200  0.97191200  1
  N  1366  1  0.88379300  0.69939600  0.00899500  1
  N  1388  1  0.65155900  0.76601700  0.53756300  1
  N  1410  1  0.15175300  0.72909000  0.44321700  1
  N  1432  1  0.39707900  0.19820600  0.00832100  1
  N  1454  1  0.89700400  0.29683900  0.97253300  1
  N  1476  1  0.63830400  0.72844300  0.94270900  1
  N  1498  1  0.13825700  0.76660600  0.03808900  1
  N  1520  1  0.88401800  0.29284300  0.47111500  1
  N  1542  1  0.38412500  0.20230300  0.50969500  1
  N  1564  1  0.14545200  0.26606100  0.03783400  1
  N  1586  1  0.64540600  0.22902600  0.94297700  1
  N  1608  1  0.89559400  0.69964100  0.50935800  1
  N  1630  1  0.39549900  0.79553800  0.47158300  1
  N  1652  1  0.30571200  0.15949900  0.25627700  1
  N  1674  1  0.80577500  0.33559900  0.72458400  1
  N  1696  1  0.56537200  0.97667400  0.90144000  1
  N  1718  1  0.06540110  0.51842600  0.07938800  1
  N  1740  1  0.98873100  0.33417700  0.25320500  1
  N  1762  1  0.48855400  0.16088300  0.72760700  1
  N  1784  1  0.72739200  0.51498700  0.90348500  1
  N  1806  1  0.22747800  0.98007900  0.07732600  1
  N  1828  1  0.48340200  0.83472200  0.72061000  1
  N  1850  1  0.98334400  0.66037300  0.26024400  1
  N  1872  1  0.79288600  0.66496800  0.72242000  1
  N  1894  1  0.29260700  0.83003100  0.25842600  1
  N  1916  1  0.04402910  0.47847700  0.40499800  1
  N  1938  1  0.54425800  0.01659800  0.57594300  1
  N  1960  1  0.24778600  0.01451200  0.40708200  1
  N  1982  1  0.74782200  0.48055100  0.57373500  1
  O  309  1  0.75915500  0.23199600  0.46031900  1
  O  310  1  0.71634800  0.21124200  0.44429500  1
  O  331  1  0.25921800  0.26308500  0.52054600  1
  O  332  1  0.21640900  0.28381600  0.53659600  1
  O  353  1  0.00805800  0.77663100  0.97497600  1
  O  354  1  0.96396600  0.79284100  0.95530300  1
  O  375  1  0.50791500  0.71844300  0.00593900  1
  O  376  1  0.46382600  0.70221800  0.02560200  1
  O  397  1  0.23739300  0.76325300  0.51849600  1
  O  398  1  0.28201400  0.78240300  0.53483400  1
  O  419  1  0.73761300  0.73184700  0.46229200  1
  O  420  1  0.78222800  0.71271100  0.44592900  1
  O  441  1  0.98302900  0.21724200  0.00511200  1
  O  442  1  0.02617100  0.20092600  0.02539700  1
  O  463  1  0.48295800  0.27780300  0.97574300  1
  O  464  1  0.52608500  0.29412500  0.95545000  1
  O  485  1  0.26263300  0.73199700  0.96160000  1
  O  486  1  0.22037300  0.71086900  0.94557000  1
  O  507  1  0.76257300  0.76304600  0.01919400  1
  O  508  1  0.72032800  0.78418100  0.03522900  1
  O  529  1  0.50868700  0.27397300  0.47410400  1
  O  530  1  0.46433400  0.28988100  0.45438700  1
  O  551  1  0.00878500  0.22117500  0.50670700  1
  O  552  1  0.96445900  0.20525300  0.52643100  1
  O  573  1  0.73099000  0.26280100  0.01894900  1
  O  574  1  0.77414300  0.28330700  0.03498400  1
  O  595  1  0.23095100  0.23227700  0.96186400  1
  O  596  1  0.27411500  0.21178800  0.94581900  1
  O  617  1  0.48119300  0.71847800  0.50571500  1
  O  618  1  0.52316500  0.70253600  0.52710100  1
  O  639  1  0.98110300  0.77669800  0.47522500  1
  O  640  1  0.02309900  0.79263900  0.45385400  1
  O  661  1  0.94737700  0.15475800  0.26034600  1
  O  662  1  0.90337000  0.18001900  0.26381500  1
  O  683  1  0.44742500  0.34037700  0.72051200  1
  O  684  1  0.40349400  0.31507200  0.71704800  1
  O  705  1  0.20630900  0.97151100  0.89592900  1
  O  706  1  0.16323200  0.96864700  0.92179900  1
  O  727  1  0.70634000  0.52360600  0.08487500  1
  O  728  1  0.66320800  0.52644600  0.05903200  1
  O  749  1  0.55581200  0.33573400  0.25519400  1
  O  750  1  0.60486300  0.31445700  0.26129000  1
  O  771  1  0.05563700  0.15931700  0.72561200  1
  O  772  1  0.10467400  0.18061000  0.71953300  1
  O  793  1  0.29489200  0.51810600  0.90077600  1
  O  794  1  0.34265700  0.52336500  0.92324400  1
  O  815  1  0.79495600  0.97695600  0.07993000  1
  O  816  1  0.84291000  0.97171200  0.05759400  1
  O  837  1  0.05161200  0.83843000  0.71600000  1
  O  838  1  0.09802800  0.81466400  0.71269400  1
  O  859  1  0.55154600  0.65668600  0.26485200  1
  O  860  1  0.59799900  0.68042900  0.26815100  1
  O  881  1  0.43582500  0.66501800  0.71982400  1
  O  882  1  0.38380200  0.68363900  0.71347600  1
  O  903  1  0.93554900  0.82990800  0.26100700  1
  O  904  1  0.88342300  0.81139300  0.26739200  1
  O  925  1  0.68595000  0.47398100  0.40147500  1
  O  926  1  0.63925000  0.47061800  0.42504600  1
  O  947  1  0.18614700  0.02111900  0.57954600  1
  O  948  1  0.13960300  0.02442000  0.55586100  1
  O  969  1  0.81488700  0.01705700  0.40646000  1
  O  970  1  0.86583400  0.02319100  0.42614000  1
  O  991  1  0.31492300  0.47797100  0.57428100  1
  O  992  1  0.36600400  0.47187700  0.55470700  1
  O  1301  1  0.15413800  0.23199600  0.46031900  1
  O  1302  1  0.11133100  0.21124200  0.44429500  1
  O  1323  1  0.65420100  0.26308500  0.52054600  1
  O  1324  1  0.61139200  0.28381600  0.53659600  1
  O  1345  1  0.40304100  0.77663100  0.97497600  1
  O  1346  1  0.35894900  0.79284100  0.95530300  1
  O  1367  1  0.90289800  0.71844300  0.00593900  1
  O  1368  1  0.85880900  0.70221800  0.02560200  1
  O  1389  1  0.63237600  0.76325300  0.51849600  1
  O  1390  1  0.67699700  0.78240300  0.53483400  1
  O  1411  1  0.13259600  0.73184700  0.46229200  1
  O  1412  1  0.17721100  0.71271100  0.44592900  1
  O  1433  1  0.37801200  0.21724200  0.00511200  1
  O  1434  1  0.42115400  0.20092600  0.02539700  1
  O  1455  1  0.87794100  0.27780300  0.97574300  1
  O  1456  1  0.92106800  0.29412500  0.95545000  1
  O  1477  1  0.65761600  0.73199700  0.96160000  1
  O  1478  1  0.61535600  0.71086900  0.94557000  1
  O  1499  1  0.15755600  0.76304600  0.01919400  1
  O  1500  1  0.11531100  0.78418100  0.03522900  1
  O  1521  1  0.90367000  0.27397300  0.47410400  1
  O  1522  1  0.85931700  0.28988100  0.45438700  1
  O  1543  1  0.40376800  0.22117500  0.50670700  1
  O  1544  1  0.35944200  0.20525300  0.52643100  1
  O  1565  1  0.12597300  0.26280100  0.01894900  1
  O  1566  1  0.16912600  0.28330700  0.03498400  1
  O  1587  1  0.62593400  0.23227700  0.96186400  1
  O  1588  1  0.66909800  0.21178800  0.94581900  1
  O  1609  1  0.87617600  0.71847800  0.50571500  1
  O  1610  1  0.91814800  0.70253600  0.52710100  1
  O  1631  1  0.37608600  0.77669800  0.47522500  1
  O  1632  1  0.41808200  0.79263900  0.45385400  1
  O  1653  1  0.34236000  0.15475800  0.26034600  1
  O  1654  1  0.29835300  0.18001900  0.26381500  1
  O  1675  1  0.84240800  0.34037700  0.72051200  1
  O  1676  1  0.79847700  0.31507200  0.71704800  1
  O  1697  1  0.60129200  0.97151100  0.89592900  1
  O  1698  1  0.55821500  0.96864700  0.92179900  1
  O  1719  1  0.10132300  0.52360600  0.08487500  1
  O  1720  1  0.05819110  0.52644600  0.05903200  1
  O  1741  1  0.95079500  0.33573400  0.25519400  1
  O  1742  1  0.99984600  0.31445700  0.26129000  1
  O  1763  1  0.45062000  0.15931700  0.72561200  1
  O  1764  1  0.49965700  0.18061000  0.71953300  1
  O  1785  1  0.68987500  0.51810600  0.90077600  1
  O  1786  1  0.73764000  0.52336500  0.92324400  1
  O  1807  1  0.18993900  0.97695600  0.07993000  1
  O  1808  1  0.23789300  0.97171200  0.05759400  1
  O  1829  1  0.44659500  0.83843000  0.71600000  1
  O  1830  1  0.49301100  0.81466400  0.71269400  1
  O  1851  1  0.94652900  0.65668600  0.26485200  1
  O  1852  1  0.99298200  0.68042900  0.26815100  1
  O  1873  1  0.83080800  0.66501800  0.71982400  1
  O  1874  1  0.77878500  0.68363900  0.71347600  1
  O  1895  1  0.33053200  0.82990800  0.26100700  1
  O  1896  1  0.27840600  0.81139300  0.26739200  1
  O  1917  1  0.08093310  0.47398100  0.40147500  1
  O  1918  1  0.03423310  0.47061800  0.42504600  1
  O  1939  1  0.58113000  0.02111900  0.57954600  1
  O  1940  1  0.53458600  0.02442000  0.55586100  1
  O  1961  1  0.20987000  0.01705700  0.40646000  1
  O  1962  1  0.26081700  0.02319100  0.42614000  1
  O  1983  1  0.70990600  0.47797100  0.57428100  1
  O  1984  1  0.76098700  0.47187700  0.55470700  1
