# generated using pymatgen
data_H11C15N4O
_symmetry_space_group_name_H-M   'P 1'
_cell_length_a   36.54790000
_cell_length_b   36.54790000
_cell_length_c   36.54790000
_cell_angle_alpha   90.00000000
_cell_angle_beta   90.00000000
_cell_angle_gamma   90.00000000
_symmetry_Int_Tables_number   1
_chemical_formula_structural   H11C15N4O
_chemical_formula_sum   'H352 C480 N128 O32'
_cell_volume   48818.82067280
_cell_formula_units_Z   32
loop_
 _symmetry_equiv_pos_site_id
 _symmetry_equiv_pos_as_xyz
  1  'x, y, z'
loop_
 _atom_site_type_symbol
 _atom_site_label
 _atom_site_symmetry_multiplicity
 _atom_site_fract_x
 _atom_site_fract_y
 _atom_site_fract_z
 _atom_site_occupancy
  H  7  1  0.05534000  0.03717600  0.99819200  1
  H  8  1  0.00291000  0.08629100  0.90872600  1
  H  15  1  0.00605100  0.91673700  0.09338400  1
  H  16  1  0.95290600  0.00176600  0.03754300  1
  H  19  1  0.92306300  0.00834300  0.97570400  1
  H  20  1  0.08476100  0.97476300  0.00705000  1
  H  25  1  0.93497600  0.97204300  0.10625400  1
  H  26  1  0.93402200  0.03261700  0.89414500  1
  H  27  1  0.07476200  0.09888400  0.96873500  1
  H  28  1  0.07357400  0.90016500  0.03238900  1
  H  35  1  0.44793300  0.96618800  0.49828100  1
  H  36  1  0.50029500  0.91694300  0.40885800  1
  H  43  1  0.49725700  0.08667100  0.59334200  1
  H  44  1  0.55039000  0.00159300  0.53755000  1
  H  47  1  0.58020600  0.99494200  0.47571000  1
  H  48  1  0.41853900  0.02860900  0.50705300  1
  H  53  1  0.56850400  0.03128100  0.60604600  1
  H  54  1  0.56988000  0.97095400  0.39490100  1
  H  55  1  0.42835100  0.90458300  0.46891400  1
  H  56  1  0.42998700  0.10346200  0.53244700  1
  H  63  1  0.21843200  0.79316000  0.24447900  1
  H  64  1  0.16955200  0.73902500  0.15603300  1
  H  71  1  0.33547000  0.74080900  0.34452900  1
  H  72  1  0.25245700  0.68860400  0.28538200  1
  H  75  1  0.24506900  0.65893300  0.22496800  1
  H  76  1  0.27771500  0.82208100  0.26049000  1
  H  81  1  0.28148800  0.66963100  0.35443400  1
  H  82  1  0.22194300  0.66874500  0.14480400  1
  H  83  1  0.16104500  0.81716100  0.21016900  1
  H  84  1  0.34856200  0.81578200  0.28989600  1
  H  91  1  0.28492500  0.21008100  0.74439100  1
  H  92  1  0.33391500  0.26428300  0.65605500  1
  H  99  1  0.16787100  0.26227400  0.84441900  1
  H  100  1  0.25087800  0.31458500  0.78535600  1
  H  103  1  0.25832600  0.34432400  0.72498100  1
  H  104  1  0.22563800  0.18112800  0.76028500  1
  H  109  1  0.22200600  0.33387200  0.85395100  1
  H  110  1  0.28134300  0.33498800  0.64526300  1
  H  111  1  0.34235100  0.18611000  0.71011800  1
  H  112  1  0.15473000  0.18742200  0.78972000  1
  H  119  1  0.78470200  0.19560200  0.75588800  1
  H  120  1  0.83615000  0.24750700  0.84410100  1
  H  127  1  0.66496100  0.24577000  0.66060200  1
  H  128  1  0.74837200  0.30016200  0.71726500  1
  H  131  1  0.76017800  0.32949100  0.77753400  1
  H  132  1  0.72533900  0.16642300  0.74444800  1
  H  137  1  0.71825500  0.32134600  0.65265100  1
  H  138  1  0.78463400  0.32018600  0.85594300  1
  H  139  1  0.84110200  0.16921200  0.78865600  1
  H  140  1  0.65582800  0.16999700  0.71613500  1
  H  147  1  0.71863000  0.80776500  0.25584200  1
  H  148  1  0.66705400  0.75584200  0.34396000  1
  H  155  1  0.83832000  0.75765800  0.16054800  1
  H  156  1  0.75491400  0.70321700  0.21717300  1
  H  159  1  0.74302000  0.67384000  0.27740600  1
  H  160  1  0.77800700  0.83692700  0.24450200  1
  H  165  1  0.78500600  0.68205300  0.15258900  1
  H  166  1  0.71855600  0.68286900  0.35555300  1
  H  167  1  0.66209300  0.83408100  0.28856100  1
  H  168  1  0.84755400  0.83332300  0.21614100  1
  H  175  1  0.55511600  0.53575500  0.49668000  1
  H  176  1  0.50273500  0.58527600  0.40742500  1
  H  183  1  0.50370400  0.41746600  0.59402400  1
  H  184  1  0.45092400  0.50095400  0.53596000  1
  H  187  1  0.42160300  0.50882300  0.47449300  1
  H  188  1  0.58402000  0.47583900  0.50941700  1
  H  193  1  0.44305200  0.46460200  0.61437800  1
  H  194  1  0.44232900  0.53936900  0.38634000  1
  H  195  1  0.58104600  0.59185400  0.46367400  1
  H  196  1  0.57945900  0.40613900  0.53789500  1
  H  203  1  0.94802500  0.46769100  0.99676100  1
  H  204  1  0.00042500  0.41768500  0.90779800  1
  H  211  1  0.99958800  0.58622000  0.09373800  1
  H  212  1  0.05228400  0.50248900  0.03594900  1
  H  215  1  0.08160600  0.49434900  0.97451900  1
  H  216  1  0.91919400  0.52764200  0.00934900  1
  H  221  1  0.06070300  0.53856500  0.11394900  1
  H  222  1  0.06172000  0.46443200  0.88709400  1
  H  223  1  0.92203200  0.41147900  0.96391400  1
  H  224  1  0.92386500  0.59748200  0.03768600  1
  H  231  1  0.91823700  0.92203200  0.16123700  1
  H  235  1  0.90693700  0.85501600  0.03890700  1
  H  236  1  0.88794500  0.90603100  0.99910300  1
  H  237  1  0.86195700  0.92789000  0.03791800  1
  H  238  1  0.82289100  0.87354500  0.04260900  1
  H  239  1  0.84869800  0.85154600  0.00373600  1
  H  248  1  0.58502200  0.08141900  0.66127500  1
  H  252  1  0.59636000  0.14838400  0.53894000  1
  H  253  1  0.61525300  0.09734400  0.49911500  1
  H  254  1  0.64123800  0.07544500  0.53790500  1
  H  255  1  0.68038400  0.12973600  0.54257600  1
  H  256  1  0.65457700  0.15177600  0.50372600  1
  H  265  1  0.32913300  0.65327700  0.40933700  1
  H  269  1  0.40135300  0.63928800  0.29038100  1
  H  270  1  0.35175800  0.62195100  0.24795100  1
  H  271  1  0.32699300  0.59692100  0.28563600  1
  H  272  1  0.37966600  0.55605200  0.29334100  1
  H  273  1  0.40457100  0.58090900  0.25561700  1
  H  282  1  0.17390300  0.34944600  0.90948900  1
  H  286  1  0.10219400  0.36408100  0.79033300  1
  H  287  1  0.15199100  0.38138500  0.74811700  1
  H  288  1  0.17671100  0.40622100  0.78595800  1
  H  289  1  0.12413500  0.44723300  0.79361900  1
  H  290  1  0.09927900  0.42256600  0.75573800  1
  H  299  1  0.58984300  0.92230500  0.34299900  1
  H  303  1  0.59746800  0.85467400  0.46530800  1
  H  304  1  0.61775700  0.90496100  0.50537300  1
  H  305  1  0.64488800  0.92596100  0.46687300  1
  H  306  1  0.68215200  0.87033800  0.46255500  1
  H  307  1  0.65519000  0.84919300  0.50111500  1
  H  316  1  0.91322700  0.08082500  0.84310500  1
  H  320  1  0.90587200  0.14848500  0.96543200  1
  H  321  1  0.88527200  0.09831900  0.00547900  1
  H  322  1  0.85805500  0.07746800  0.96695400  1
  H  323  1  0.82110100  0.13329300  0.96260900  1
  H  324  1  0.84814500  0.15428900  0.00119400  1
  H  333  1  0.17539700  0.65075700  0.09185000  1
  H  337  1  0.10181400  0.64024000  0.21016500  1
  H  338  1  0.15014900  0.62121000  0.25324300  1
  H  339  1  0.17423300  0.59483400  0.21603700  1
  H  340  1  0.11997100  0.55611400  0.20813400  1
  H  341  1  0.09574700  0.58233200  0.24537900  1
  H  350  1  0.32788500  0.35279800  0.59184000  1
  H  354  1  0.40190600  0.36288600  0.70994300  1
  H  355  1  0.35364600  0.38153800  0.75327200  1
  H  356  1  0.32935400  0.40802100  0.71627700  1
  H  357  1  0.38346100  0.44695900  0.70840000  1
  H  358  1  0.40789000  0.42063700  0.74543300  1
  H  367  1  0.07505000  0.10919000  0.84680700  1
  H  371  1  0.12146500  0.14841500  0.97450800  1
  H  372  1  0.14493500  0.08909900  0.99738800  1
  H  373  1  0.15777300  0.07473000  0.94954400  1
  H  374  1  0.19936600  0.12705900  0.94495500  1
  H  375  1  0.18646400  0.14168700  0.99269300  1
  H  384  1  0.42826300  0.89395900  0.34698600  1
  H  388  1  0.38181400  0.85488400  0.47468200  1
  H  389  1  0.35821200  0.91417600  0.49748500  1
  H  390  1  0.34534400  0.92845400  0.44962100  1
  H  391  1  0.30386400  0.87603200  0.44510400  1
  H  392  1  0.31679800  0.86149500  0.49285800  1
  H  401  1  0.66611000  0.33233100  0.59245600  1
  H  405  1  0.60117900  0.34580100  0.71560100  1
  H  406  1  0.65312100  0.36448600  0.75431500  1
  H  407  1  0.67464100  0.38980400  0.71487900  1
  H  408  1  0.62077500  0.42956800  0.71076100  1
  H  409  1  0.59911300  0.40443900  0.75026500  1
  H  418  1  0.83716800  0.67118800  0.09230900  1
  H  422  1  0.90211000  0.65755400  0.21544000  1
  H  423  1  0.85014800  0.63891000  0.25415100  1
  H  424  1  0.82858200  0.61365500  0.21469700  1
  H  425  1  0.88239600  0.57382000  0.21053500  1
  H  426  1  0.90409900  0.59888800  0.25005300  1
  H  435  1  0.42155400  0.10618700  0.65412800  1
  H  439  1  0.38470600  0.15415600  0.52592100  1
  H  440  1  0.36039300  0.09693200  0.49888500  1
  H  441  1  0.34450200  0.08075600  0.54521600  1
  H  442  1  0.30468500  0.13442400  0.55036000  1
  H  443  1  0.32060400  0.15083800  0.50413900  1
  H  452  1  0.08165500  0.89695200  0.15416300  1
  H  456  1  0.11854300  0.84920700  0.02594800  1
  H  457  1  0.14301200  0.90640300  0.99901000  1
  H  458  1  0.15896200  0.92244800  0.04536400  1
  H  459  1  0.19863800  0.86866900  0.05038700  1
  H  460  1  0.18265400  0.85238300  0.00414300  1
  H  469  1  0.83468100  0.33693300  0.90997100  1
  H  473  1  0.90211300  0.34451300  0.78735900  1
  H  474  1  0.85146700  0.36445100  0.74754300  1
  H  475  1  0.83043100  0.39137200  0.78617200  1
  H  476  1  0.88576400  0.42906200  0.79027900  1
  H  477  1  0.90694700  0.40231900  0.75158700  1
  H  486  1  0.66829900  0.66650400  0.40984900  1
  H  490  1  0.60103900  0.65874700  0.28714100  1
  H  491  1  0.65182500  0.63899500  0.24740900  1
  H  492  1  0.67288500  0.61213700  0.28606900  1
  H  493  1  0.61767800  0.57425200  0.29006600  1
  H  494  1  0.59647000  0.60093200  0.25134500  1
  H  503  1  0.05534000  0.03717600  0.29916700  1
  H  504  1  0.00291000  0.08629100  0.20970100  1
  H  511  1  0.00605100  0.91673700  0.39435900  1
  H  512  1  0.95290600  0.00176600  0.33851800  1
  H  515  1  0.92306300  0.00834300  0.27667900  1
  H  516  1  0.08476100  0.97476300  0.30802500  1
  H  521  1  0.93497600  0.97204300  0.40722900  1
  H  522  1  0.93402200  0.03261700  0.19512000  1
  H  523  1  0.07476200  0.09888400  0.26971000  1
  H  524  1  0.07357400  0.90016500  0.33333333  1
  H  531  1  0.44793300  0.96618800  0.79925600  1
  H  532  1  0.50029500  0.91694300  0.70983300  1
  H  539  1  0.49725700  0.08667100  0.89431700  1
  H  540  1  0.55039000  0.00159300  0.83852500  1
  H  543  1  0.58020600  0.99494200  0.77668500  1
  H  544  1  0.41853900  0.02860900  0.80802800  1
  H  549  1  0.56850400  0.03128100  0.90702100  1
  H  550  1  0.56988000  0.97095400  0.69587600  1
  H  551  1  0.42835100  0.90458300  0.76988900  1
  H  552  1  0.42998700  0.10346200  0.83342200  1
  H  559  1  0.21843200  0.79316000  0.54545400  1
  H  560  1  0.16955200  0.73902500  0.45700800  1
  H  567  1  0.33547000  0.74080900  0.64550400  1
  H  568  1  0.25245700  0.68860400  0.58635700  1
  H  571  1  0.24506900  0.65893300  0.52594300  1
  H  572  1  0.27771500  0.82208100  0.56146500  1
  H  577  1  0.28148800  0.66963100  0.65540900  1
  H  578  1  0.22194300  0.66874500  0.44577900  1
  H  579  1  0.16104500  0.81716100  0.51114400  1
  H  580  1  0.34856200  0.81578200  0.59087100  1
  H  587  1  0.28492500  0.21008100  0.04536590  1
  H  588  1  0.33391500  0.26428300  0.95703000  1
  H  595  1  0.16787100  0.26227400  0.14539400  1
  H  596  1  0.25087800  0.31458500  0.08633090  1
  H  599  1  0.25832600  0.34432400  0.02595590  1
  H  600  1  0.22563800  0.18112800  0.06125990  1
  H  605  1  0.22200600  0.33387200  0.15492600  1
  H  606  1  0.28134300  0.33498800  0.94623800  1
  H  607  1  0.34235100  0.18611000  0.01109290  1
  H  608  1  0.15473000  0.18742200  0.09069490  1
  H  615  1  0.78470200  0.19560200  0.05686290  1
  H  616  1  0.83615000  0.24750700  0.14507600  1
  H  623  1  0.66496100  0.24577000  0.96157700  1
  H  624  1  0.74837200  0.30016200  0.01823990  1
  H  627  1  0.76017800  0.32949100  0.07850890  1
  H  628  1  0.72533900  0.16642300  0.04542290  1
  H  633  1  0.71825500  0.32134600  0.95362600  1
  H  634  1  0.78463400  0.32018600  0.15691800  1
  H  635  1  0.84110200  0.16921200  0.08963090  1
  H  636  1  0.65582800  0.16999700  0.01710990  1
  H  643  1  0.71863000  0.80776500  0.55681700  1
  H  644  1  0.66705400  0.75584200  0.64493500  1
  H  651  1  0.83832000  0.75765800  0.46152300  1
  H  652  1  0.75491400  0.70321700  0.51814800  1
  H  655  1  0.74302000  0.67384000  0.57838100  1
  H  656  1  0.77800700  0.83692700  0.54547700  1
  H  661  1  0.78500600  0.68205300  0.45356400  1
  H  662  1  0.71855600  0.68286900  0.65652800  1
  H  663  1  0.66209300  0.83408100  0.58953600  1
  H  664  1  0.84755400  0.83332300  0.51711600  1
  H  671  1  0.55511600  0.53575500  0.79765500  1
  H  672  1  0.50273500  0.58527600  0.70840000  1
  H  679  1  0.50370400  0.41746600  0.89499900  1
  H  680  1  0.45092400  0.50095400  0.83693500  1
  H  683  1  0.42160300  0.50882300  0.77546800  1
  H  684  1  0.58402000  0.47583900  0.81039200  1
  H  689  1  0.44305200  0.46460200  0.91535300  1
  H  690  1  0.44232900  0.53936900  0.68731500  1
  H  691  1  0.58104600  0.59185400  0.76464900  1
  H  692  1  0.57945900  0.40613900  0.83887000  1
  H  699  1  0.94802500  0.46769100  0.29773600  1
  H  700  1  0.00042500  0.41768500  0.20877300  1
  H  707  1  0.99958800  0.58622000  0.39471300  1
  H  708  1  0.05228400  0.50248900  0.33692400  1
  H  711  1  0.08160600  0.49434900  0.27549400  1
  H  712  1  0.91919400  0.52764200  0.31032400  1
  H  717  1  0.06070300  0.53856500  0.41492400  1
  H  718  1  0.06172000  0.46443200  0.18806900  1
  H  719  1  0.92203200  0.41147900  0.26488900  1
  H  720  1  0.92386500  0.59748200  0.33866100  1
  H  727  1  0.91823700  0.92203200  0.46221200  1
  H  731  1  0.90693700  0.85501600  0.33988200  1
  H  732  1  0.88794500  0.90603100  0.30007800  1
  H  733  1  0.86195700  0.92789000  0.33889300  1
  H  734  1  0.82289100  0.87354500  0.34358400  1
  H  735  1  0.84869800  0.85154600  0.30471100  1
  H  744  1  0.58502200  0.08141900  0.96225000  1
  H  748  1  0.59636000  0.14838400  0.83991500  1
  H  749  1  0.61525300  0.09734400  0.80009000  1
  H  750  1  0.64123800  0.07544500  0.83888000  1
  H  751  1  0.68038400  0.12973600  0.84355100  1
  H  752  1  0.65457700  0.15177600  0.80470100  1
  H  761  1  0.32913300  0.65327700  0.71031200  1
  H  765  1  0.40135300  0.63928800  0.59135600  1
  H  766  1  0.35175800  0.62195100  0.54892600  1
  H  767  1  0.32699300  0.59692100  0.58661100  1
  H  768  1  0.37966600  0.55605200  0.59431600  1
  H  769  1  0.40457100  0.58090900  0.55659200  1
  H  778  1  0.17390300  0.34944600  0.21046400  1
  H  782  1  0.10219400  0.36408100  0.09130790  1
  H  783  1  0.15199100  0.38138500  0.04909190  1
  H  784  1  0.17671100  0.40622100  0.08693290  1
  H  785  1  0.12413500  0.44723300  0.09459390  1
  H  786  1  0.09927900  0.42256600  0.05671290  1
  H  795  1  0.58984300  0.92230500  0.64397400  1
  H  799  1  0.59746800  0.85467400  0.76628300  1
  H  800  1  0.61775700  0.90496100  0.80634800  1
  H  801  1  0.64488800  0.92596100  0.76784800  1
  H  802  1  0.68215200  0.87033800  0.76353000  1
  H  803  1  0.65519000  0.84919300  0.80209000  1
  H  812  1  0.91322700  0.08082500  0.14408000  1
  H  816  1  0.90587200  0.14848500  0.26640700  1
  H  817  1  0.88527200  0.09831900  0.30645400  1
  H  818  1  0.85805500  0.07746800  0.26792900  1
  H  819  1  0.82110100  0.13329300  0.26358400  1
  H  820  1  0.84814500  0.15428900  0.30216900  1
  H  829  1  0.17539700  0.65075700  0.39282500  1
  H  833  1  0.10181400  0.64024000  0.51114000  1
  H  834  1  0.15014900  0.62121000  0.55421800  1
  H  835  1  0.17423300  0.59483400  0.51701200  1
  H  836  1  0.11997100  0.55611400  0.50910900  1
  H  837  1  0.09574700  0.58233200  0.54635400  1
  H  846  1  0.32788500  0.35279800  0.89281500  1
  H  850  1  0.40190600  0.36288600  0.01091790  1
  H  851  1  0.35364600  0.38153800  0.05424690  1
  H  852  1  0.32935400  0.40802100  0.01725190  1
  H  853  1  0.38346100  0.44695900  0.00937489  1
  H  854  1  0.40789000  0.42063700  0.04640790  1
  H  863  1  0.07505000  0.10919000  0.14778200  1
  H  867  1  0.12146500  0.14841500  0.27548300  1
  H  868  1  0.14493500  0.08909900  0.29836300  1
  H  869  1  0.15777300  0.07473000  0.25051900  1
  H  870  1  0.19936600  0.12705900  0.24593000  1
  H  871  1  0.18646400  0.14168700  0.29366800  1
  H  880  1  0.42826300  0.89395900  0.64796100  1
  H  884  1  0.38181400  0.85488400  0.77565700  1
  H  885  1  0.35821200  0.91417600  0.79846000  1
  H  886  1  0.34534400  0.92845400  0.75059600  1
  H  887  1  0.30386400  0.87603200  0.74607900  1
  H  888  1  0.31679800  0.86149500  0.79383300  1
  H  897  1  0.66611000  0.33233100  0.89343100  1
  H  901  1  0.60117900  0.34580100  0.01657590  1
  H  902  1  0.65312100  0.36448600  0.05528990  1
  H  903  1  0.67464100  0.38980400  0.01585390  1
  H  904  1  0.62077500  0.42956800  0.01173590  1
  H  905  1  0.59911300  0.40443900  0.05123990  1
  H  914  1  0.83716800  0.67118800  0.39328400  1
  H  918  1  0.90211000  0.65755400  0.51641500  1
  H  919  1  0.85014800  0.63891000  0.55512600  1
  H  920  1  0.82858200  0.61365500  0.51567200  1
  H  921  1  0.88239600  0.57382000  0.51151000  1
  H  922  1  0.90409900  0.59888800  0.55102800  1
  H  931  1  0.42155400  0.10618700  0.95510300  1
  H  935  1  0.38470600  0.15415600  0.82689600  1
  H  936  1  0.36039300  0.09693200  0.79986000  1
  H  937  1  0.34450200  0.08075600  0.84619100  1
  H  938  1  0.30468500  0.13442400  0.85133500  1
  H  939  1  0.32060400  0.15083800  0.80511400  1
  H  948  1  0.08165500  0.89695200  0.45513800  1
  H  952  1  0.11854300  0.84920700  0.32692300  1
  H  953  1  0.14301200  0.90640300  0.29998500  1
  H  954  1  0.15896200  0.92244800  0.34633900  1
  H  955  1  0.19863800  0.86866900  0.35136200  1
  H  956  1  0.18265400  0.85238300  0.30511800  1
  H  965  1  0.83468100  0.33693300  0.21094600  1
  H  969  1  0.90211300  0.34451300  0.08833390  1
  H  970  1  0.85146700  0.36445100  0.04851790  1
  H  971  1  0.83043100  0.39137200  0.08714690  1
  H  972  1  0.88576400  0.42906200  0.09125390  1
  H  973  1  0.90694700  0.40231900  0.05256190  1
  H  982  1  0.66829900  0.66650400  0.71082400  1
  H  986  1  0.60103900  0.65874700  0.58811600  1
  H  987  1  0.65182500  0.63899500  0.54838400  1
  H  988  1  0.67288500  0.61213700  0.58704400  1
  H  989  1  0.61767800  0.57425200  0.59104100  1
  H  990  1  0.59647000  0.60093200  0.55232000  1
  C  1  1  0.00342000  0.01425800  0.98608200  1
  C  2  1  0.03343500  0.03833100  0.98073300  1
  C  3  1  0.03424700  0.06390500  0.95176300  1
  C  4  1  0.00322800  0.06687100  0.92902500  1
  C  5  1  0.97215800  0.04455200  0.93435300  1
  C  6  1  0.97250500  0.01785900  0.96257000  1
  C  9  1  0.00478000  0.98791800  0.01529600  1
  C  10  1  0.03548300  0.96434300  0.02019900  1
  C  11  1  0.03661500  0.93882900  0.04951700  1
  C  12  1  0.00616700  0.93619400  0.07311300  1
  C  13  1  0.97511300  0.95860800  0.06848600  1
  C  14  1  0.97518900  0.98500700  0.04030200  1
  C  21  1  0.94463200  0.95248200  0.09002700  1
  C  22  1  0.94183000  0.05094400  0.91263600  1
  C  23  1  0.06388000  0.08709400  0.94691400  1
  C  24  1  0.06533900  0.91440100  0.05390800  1
  C  29  1  0.49985700  0.98906700  0.48611900  1
  C  30  1  0.46983000  0.96499700  0.48081600  1
  C  31  1  0.46898800  0.93939300  0.45187600  1
  C  32  1  0.50000700  0.93637500  0.42914400  1
  C  33  1  0.53108700  0.95869300  0.43441900  1
  C  34  1  0.53075600  0.98543100  0.46259600  1
  C  37  1  0.49851900  0.01544000  0.51529900  1
  C  38  1  0.46782500  0.03902300  0.52018400  1
  C  39  1  0.46671700  0.06456400  0.54947400  1
  C  40  1  0.49714800  0.06719700  0.57308700  1
  C  41  1  0.52820300  0.04478300  0.56846300  1
  C  42  1  0.52812100  0.01837200  0.54029100  1
  C  49  1  0.55868600  0.05091200  0.59000200  1
  C  50  1  0.56141700  0.95224100  0.41270800  1
  C  51  1  0.43933900  0.91621800  0.44706300  1
  C  52  1  0.43795700  0.08893800  0.55387600  1
  C  57  1  0.24011500  0.74012500  0.23487900  1
  C  58  1  0.21704200  0.77065800  0.22787000  1
  C  59  1  0.19230400  0.77138600  0.19815400  1
  C  60  1  0.18833100  0.73939700  0.17692600  1
  C  61  1  0.20947700  0.70786100  0.18378000  1
  C  62  1  0.23606300  0.70864900  0.21208800  1
  C  65  1  0.26591800  0.74132100  0.26479600  1
  C  66  1  0.28861300  0.77238700  0.27169800  1
  C  67  1  0.31329600  0.77297000  0.30179000  1
  C  68  1  0.31667000  0.74129100  0.32365200  1
  C  69  1  0.29521600  0.70994800  0.31716500  1
  C  70  1  0.26900200  0.71092500  0.28886200  1
  C  77  1  0.30106800  0.67892600  0.33801400  1
  C  78  1  0.20306800  0.67722400  0.16243900  1
  C  79  1  0.17176300  0.80234200  0.19001500  1
  C  80  1  0.33511900  0.80309200  0.30986200  1
  C  85  1  0.26325700  0.26312600  0.73480900  1
  C  86  1  0.28634500  0.23260400  0.72781300  1
  C  87  1  0.31111000  0.23190000  0.69812300  1
  C  88  1  0.31511800  0.26390500  0.67693100  1
  C  89  1  0.29397100  0.29544300  0.68378300  1
  C  90  1  0.26733900  0.29462200  0.71205000  1
  C  93  1  0.23742800  0.26189200  0.76469800  1
  C  94  1  0.21473900  0.23081000  0.77155200  1
  C  95  1  0.19004800  0.23018200  0.80163600  1
  C  96  1  0.18667000  0.26182900  0.82354500  1
  C  97  1  0.20811200  0.29319100  0.81709800  1
  C  98  1  0.23432500  0.29226100  0.78879600  1
  C  105  1  0.20223400  0.32418000  0.83799400  1
  C  106  1  0.30042000  0.32610100  0.66247600  1
  C  107  1  0.33163100  0.20093700  0.68997200  1
  C  108  1  0.16825200  0.20002900  0.80968300  1
  C  113  1  0.76361500  0.24854600  0.76713600  1
  C  114  1  0.78675700  0.21781400  0.77281900  1
  C  115  1  0.81213200  0.21623600  0.80188500  1
  C  116  1  0.81692900  0.24777700  0.82361600  1
  C  117  1  0.79603800  0.27972100  0.81780400  1
  C  118  1  0.76872100  0.27969100  0.79015000  1
  C  121  1  0.73646100  0.24735600  0.73847800  1
  C  122  1  0.71393200  0.21595800  0.73267700  1
  C  123  1  0.68859000  0.21458300  0.70322600  1
  C  124  1  0.68417400  0.24595100  0.68109000  1
  C  125  1  0.70512700  0.27783600  0.68672100  1
  C  126  1  0.73210000  0.27756200  0.71437500  1
  C  133  1  0.69810400  0.30868800  0.66582000  1
  C  134  1  0.80357300  0.31006200  0.83927500  1
  C  135  1  0.83185700  0.18454300  0.80915200  1
  C  136  1  0.66771100  0.18362700  0.69580800  1
  C  141  1  0.73967100  0.75479600  0.26707900  1
  C  142  1  0.71653400  0.78553400  0.27274400  1
  C  143  1  0.69114300  0.78711300  0.30179300  1
  C  144  1  0.68629200  0.75556200  0.32349400  1
  C  145  1  0.70715500  0.72359600  0.31767900  1
  C  146  1  0.73451300  0.72363400  0.29006100  1
  C  149  1  0.76684400  0.75599800  0.23844300  1
  C  150  1  0.78938100  0.78739500  0.23267400  1
  C  151  1  0.81471800  0.78879800  0.20321800  1
  C  152  1  0.81911200  0.75745900  0.18104100  1
  C  153  1  0.79815900  0.72556900  0.18664900  1
  C  154  1  0.77120200  0.72581200  0.21431700  1
  C  161  1  0.80517100  0.69473800  0.16571500  1
  C  162  1  0.69955100  0.69324400  0.33911100  1
  C  163  1  0.67143400  0.81881100  0.30905800  1
  C  164  1  0.83558400  0.81976900  0.19581500  1
  C  169  1  0.50240400  0.51407400  0.48563700  1
  C  170  1  0.53293400  0.53741800  0.47965900  1
  C  171  1  0.53422000  0.56257200  0.45031300  1
  C  172  1  0.50272700  0.56643000  0.42826000  1
  C  173  1  0.47124500  0.54492100  0.43414800  1
  C  174  1  0.47134300  0.51827900  0.46238000  1
  C  177  1  0.50341600  0.48750600  0.51478500  1
  C  178  1  0.53447200  0.46463200  0.52102900  1
  C  179  1  0.53535300  0.43956300  0.55079300  1
  C  180  1  0.50396100  0.43627200  0.57315000  1
  C  181  1  0.47267900  0.45796600  0.56724200  1
  C  182  1  0.47314400  0.48416000  0.53893200  1
  C  189  1  0.44280300  0.45297800  0.58976600  1
  C  190  1  0.44176600  0.55051400  0.41115900  1
  C  191  1  0.56559800  0.58294200  0.44311700  1
  C  192  1  0.56585200  0.41795000  0.55827900  1
  C  197  1  0.00078100  0.48925100  0.98567200  1
  C  198  1  0.97022600  0.46591800  0.97977500  1
  C  199  1  0.96892400  0.44065200  0.95052900  1
  C  200  1  0.00043900  0.43663000  0.92854400  1
  C  201  1  0.03193900  0.45813600  0.93435800  1
  C  202  1  0.03184700  0.48492300  0.96244500  1
  C  205  1  0.99979800  0.51591500  0.01473200  1
  C  206  1  0.96876500  0.53883600  0.02090700  1
  C  207  1  0.96791400  0.56399200  0.05059200  1
  C  208  1  0.99931700  0.56734900  0.07292200  1
  C  209  1  0.03058400  0.54561900  0.06706900  1
  C  210  1  0.03008100  0.51931300  0.03886400  1
  C  217  1  0.06045600  0.55066100  0.08956600  1
  C  218  1  0.06142600  0.45230500  0.91146500  1
  C  219  1  0.93751300  0.42032500  0.94335500  1
  C  220  1  0.93740600  0.58559100  0.05806700  1
  C  225  1  0.88248100  0.87736700  0.08962700  1
  C  226  1  0.90423600  0.90367800  0.10787100  1
  C  227  1  0.90176800  0.90495300  0.14644400  1
  C  229  1  0.85909000  0.85601700  0.14656600  1
  C  232  1  0.88428100  0.87125700  0.04967600  1
  C  233  1  0.84843500  0.86947100  0.02762800  1
  C  234  1  0.87295600  0.90336900  0.02481000  1
  C  242  1  0.62083000  0.12599300  0.58963800  1
  C  243  1  0.59906900  0.09970000  0.60789900  1
  C  244  1  0.60158600  0.09838800  0.64646700  1
  C  246  1  0.64422900  0.14736500  0.64656300  1
  C  249  1  0.61899900  0.13210200  0.54968700  1
  C  250  1  0.65483200  0.13384700  0.52761500  1
  C  251  1  0.63026400  0.09998100  0.52480800  1
  C  259  1  0.37566900  0.61572900  0.33992400  1
  C  260  1  0.34890700  0.63808100  0.35680600  1
  C  261  1  0.34621200  0.63614100  0.39532300  1
  C  263  1  0.39453500  0.59272400  0.39805900  1
  C  266  1  0.38360900  0.61738200  0.30030500  1
  C  267  1  0.38541200  0.58137400  0.27853100  1
  C  268  1  0.35253800  0.60697400  0.27378900  1
  C  276  1  0.12778500  0.38742100  0.84003000  1
  C  277  1  0.15444100  0.36496500  0.85694200  1
  C  278  1  0.15695400  0.36671400  0.89547800  1
  C  280  1  0.10865400  0.41014700  0.89818100  1
  C  283  1  0.11998800  0.38589100  0.80037800  1
  C  284  1  0.11836100  0.42197300  0.77871000  1
  C  285  1  0.15117500  0.39628800  0.77399300  1
  C  293  1  0.62321300  0.87627500  0.41489100  1
  C  294  1  0.60241800  0.90324800  0.39648000  1
  C  295  1  0.60561100  0.90472300  0.35795500  1
  C  297  1  0.64681500  0.85455600  0.35819900  1
  C  300  1  0.62079900  0.87011600  0.45480300  1
  C  301  1  0.65632000  0.86711800  0.47724800  1
  C  302  1  0.63291800  0.90181400  0.47982500  1
  C  310  1  0.88005900  0.12702100  0.91499200  1
  C  311  1  0.90075600  0.09996600  0.89658000  1
  C  312  1  0.89754900  0.09848600  0.85805800  1
  C  314  1  0.85652000  0.14880200  0.85829100  1
  C  317  1  0.88245900  0.13318100  0.95490600  1
  C  318  1  0.84693900  0.13637200  0.97732400  1
  C  319  1  0.87014900  0.10154700  0.97991800  1
  C  327  1  0.12704600  0.61523400  0.16110300  1
  C  328  1  0.15461200  0.63667200  0.14431000  1
  C  329  1  0.15757000  0.63437300  0.10582800  1
  C  331  1  0.10802600  0.59240700  0.10295700  1
  C  334  1  0.11866000  0.61748300  0.20060400  1
  C  335  1  0.11515300  0.58178500  0.22267800  1
  C  336  1  0.14901100  0.60604900  0.22752800  1
  C  344  1  0.37643200  0.38806400  0.66109500  1
  C  345  1  0.34890400  0.36661500  0.64428400  1
  C  346  1  0.34573300  0.36914300  0.60583600  1
  C  348  1  0.39517200  0.41128800  0.60297900  1
  C  351  1  0.38495500  0.38563700  0.70055200  1
  C  352  1  0.38841100  0.42123400  0.72279700  1
  C  353  1  0.35465000  0.39683000  0.72763200  1
  C  361  1  0.12933800  0.13558600  0.91586700  1
  C  362  1  0.10009000  0.11642800  0.89884300  1
  C  363  1  0.09566400  0.12193700  0.86082200  1
  C  365  1  0.14476200  0.16418300  0.85912300  1
  C  368  1  0.13852900  0.13332800  0.95516100  1
  C  369  1  0.17889600  0.12920200  0.96663100  1
  C  370  1  0.15297600  0.09641400  0.96956100  1
  C  378  1  0.37391800  0.86762600  0.41602700  1
  C  379  1  0.40316700  0.88678500  0.39900500  1
  C  380  1  0.40760800  0.88126600  0.36098400  1
  C  382  1  0.35854900  0.83897100  0.35929900  1
  C  385  1  0.36471300  0.86990300  0.45531500  1
  C  386  1  0.32433900  0.87396100  0.46678200  1
  C  387  1  0.35019000  0.90680500  0.46966600  1
  C  395  1  0.62299700  0.36945500  0.66427400  1
  C  396  1  0.64868300  0.34707100  0.64590600  1
  C  397  1  0.64956400  0.34928400  0.60731000  1
  C  399  1  0.60143600  0.39294200  0.60741400  1
  C  402  1  0.61750000  0.36815300  0.70432800  1
  C  403  1  0.61661600  0.40422600  0.72605900  1
  C  404  1  0.65021000  0.37925300  0.72851000  1
  C  412  1  0.88025400  0.63396900  0.16409700  1
  C  413  1  0.85457800  0.65638300  0.14574500  1
  C  414  1  0.85370200  0.65421300  0.10714800  1
  C  416  1  0.90180900  0.61053300  0.10721800  1
  C  419  1  0.88575100  0.63523800  0.20415100  1
  C  420  1  0.88659300  0.59914600  0.22585100  1
  C  421  1  0.85303200  0.62415900  0.22833300  1
  C  429  1  0.37320600  0.13888600  0.58336900  1
  C  430  1  0.40014900  0.11720000  0.60114300  1
  C  431  1  0.40261200  0.12078400  0.63957200  1
  C  433  1  0.35630000  0.16607000  0.64036300  1
  C  436  1  0.36616100  0.13874000  0.54356900  1
  C  437  1  0.32632800  0.13680200  0.52987800  1
  C  438  1  0.35112600  0.10318700  0.52658900  1
  C  446  1  0.13009000  0.86436200  0.08341600  1
  C  447  1  0.10306600  0.88595900  0.10117900  1
  C  448  1  0.10062900  0.88239300  0.13961100  1
  C  450  1  0.14703300  0.83719800  0.14041400  1
  C  453  1  0.13714900  0.86452100  0.04362000  1
  C  454  1  0.17698100  0.86638700  0.02991200  1
  C  455  1  0.15226800  0.90007200  0.02670100  1
  C  463  1  0.88057400  0.37005200  0.83790700  1
  C  464  1  0.85367500  0.34925400  0.85642500  1
  C  465  1  0.85231500  0.35257000  0.89493900  1
  C  467  1  0.90232300  0.39404500  0.89447600  1
  C  470  1  0.88651900  0.36769600  0.79795600  1
  C  471  1  0.88913500  0.40327100  0.77554700  1
  C  472  1  0.85461100  0.37960300  0.77309600  1
  C  480  1  0.62257800  0.63326300  0.33771600  1
  C  481  1  0.64934300  0.65417500  0.35628300  1
  C  482  1  0.65072200  0.65082000  0.39479500  1
  C  484  1  0.60082600  0.60919000  0.39426400  1
  C  487  1  0.61669500  0.63561300  0.29776000  1
  C  488  1  0.61424100  0.60003500  0.27533500  1
  C  489  1  0.64868900  0.62382300  0.27295200  1
  C  497  1  0.00342000  0.01425800  0.28705700  1
  C  498  1  0.03343500  0.03833100  0.28170800  1
  C  499  1  0.03424700  0.06390500  0.25273800  1
  C  500  1  0.00322800  0.06687100  0.23000000  1
  C  501  1  0.97215800  0.04455200  0.23532800  1
  C  502  1  0.97250500  0.01785900  0.26354500  1
  C  505  1  0.00478000  0.98791800  0.31627100  1
  C  506  1  0.03548300  0.96434300  0.32117400  1
  C  507  1  0.03661500  0.93882900  0.35049200  1
  C  508  1  0.00616700  0.93619400  0.37408800  1
  C  509  1  0.97511300  0.95860800  0.36946100  1
  C  510  1  0.97518900  0.98500700  0.34127700  1
  C  517  1  0.94463200  0.95248200  0.39100200  1
  C  518  1  0.94183000  0.05094400  0.21361100  1
  C  519  1  0.06388000  0.08709400  0.24788900  1
  C  520  1  0.06533900  0.91440100  0.35488300  1
  C  525  1  0.49985700  0.98906700  0.78709400  1
  C  526  1  0.46983000  0.96499700  0.78179100  1
  C  527  1  0.46898800  0.93939300  0.75285100  1
  C  528  1  0.50000700  0.93637500  0.73011900  1
  C  529  1  0.53108700  0.95869300  0.73539400  1
  C  530  1  0.53075600  0.98543100  0.76357100  1
  C  533  1  0.49851900  0.01544000  0.81627400  1
  C  534  1  0.46782500  0.03902300  0.82115900  1
  C  535  1  0.46671700  0.06456400  0.85044900  1
  C  536  1  0.49714800  0.06719700  0.87406200  1
  C  537  1  0.52820300  0.04478300  0.86943800  1
  C  538  1  0.52812100  0.01837200  0.84126600  1
  C  545  1  0.55868600  0.05091200  0.89097700  1
  C  546  1  0.56141700  0.95224100  0.71368300  1
  C  547  1  0.43933900  0.91621800  0.74803800  1
  C  548  1  0.43795700  0.08893800  0.85485100  1
  C  553  1  0.24011500  0.74012500  0.53585400  1
  C  554  1  0.21704200  0.77065800  0.52884500  1
  C  555  1  0.19230400  0.77138600  0.49912900  1
  C  556  1  0.18833100  0.73939700  0.47790100  1
  C  557  1  0.20947700  0.70786100  0.48475500  1
  C  558  1  0.23606300  0.70864900  0.51306300  1
  C  561  1  0.26591800  0.74132100  0.56577100  1
  C  562  1  0.28861300  0.77238700  0.57267300  1
  C  563  1  0.31329600  0.77297000  0.60276500  1
  C  564  1  0.31667000  0.74129100  0.62462700  1
  C  565  1  0.29521600  0.70994800  0.61814000  1
  C  566  1  0.26900200  0.71092500  0.58983700  1
  C  573  1  0.30106800  0.67892600  0.63898900  1
  C  574  1  0.20306800  0.67722400  0.46341400  1
  C  575  1  0.17176300  0.80234200  0.49099000  1
  C  576  1  0.33511900  0.80309200  0.61083700  1
  C  581  1  0.26325700  0.26312600  0.03578390  1
  C  582  1  0.28634500  0.23260400  0.02878790  1
  C  583  1  0.31111000  0.23190000  0.99909800  1
  C  584  1  0.31511800  0.26390500  0.97790600  1
  C  585  1  0.29397100  0.29544300  0.98475800  1
  C  586  1  0.26733900  0.29462200  0.01302490  1
  C  589  1  0.23742800  0.26189200  0.06567290  1
  C  590  1  0.21473900  0.23081000  0.07252690  1
  C  591  1  0.19004800  0.23018200  0.10261100  1
  C  592  1  0.18667000  0.26182900  0.12452000  1
  C  593  1  0.20811200  0.29319100  0.11807300  1
  C  594  1  0.23432500  0.29226100  0.08977090  1
  C  601  1  0.20223400  0.32418000  0.13896900  1
  C  602  1  0.30042000  0.32610100  0.96345100  1
  C  603  1  0.33163100  0.20093700  0.99094700  1
  C  604  1  0.16825200  0.20002900  0.11065800  1
  C  609  1  0.76361500  0.24854600  0.06811090  1
  C  610  1  0.78675700  0.21781400  0.07379390  1
  C  611  1  0.81213200  0.21623600  0.10286000  1
  C  612  1  0.81692900  0.24777700  0.12459100  1
  C  613  1  0.79603800  0.27972100  0.11877900  1
  C  614  1  0.76872100  0.27969100  0.09112490  1
  C  617  1  0.73646100  0.24735600  0.03945290  1
  C  618  1  0.71393200  0.21595800  0.03365190  1
  C  619  1  0.68859000  0.21458300  0.00420089  1
  C  620  1  0.68417400  0.24595100  0.98206500  1
  C  621  1  0.70512700  0.27783600  0.98769600  1
  C  622  1  0.73210000  0.27756200  0.01534990  1
  C  629  1  0.69810400  0.30868800  0.96679500  1
  C  630  1  0.80357300  0.31006200  0.14025000  1
  C  631  1  0.83185700  0.18454300  0.11012700  1
  C  632  1  0.66771100  0.18362700  0.99678300  1
  C  637  1  0.73967100  0.75479600  0.56805400  1
  C  638  1  0.71653400  0.78553400  0.57371900  1
  C  639  1  0.69114300  0.78711300  0.60276800  1
  C  640  1  0.68629200  0.75556200  0.62446900  1
  C  641  1  0.70715500  0.72359600  0.61865400  1
  C  642  1  0.73451300  0.72363400  0.59103600  1
  C  645  1  0.76684400  0.75599800  0.53941800  1
  C  646  1  0.78938100  0.78739500  0.53364900  1
  C  647  1  0.81471800  0.78879800  0.50419300  1
  C  648  1  0.81911200  0.75745900  0.48201600  1
  C  649  1  0.79815900  0.72556900  0.48762400  1
  C  650  1  0.77120200  0.72581200  0.51529200  1
  C  657  1  0.80517100  0.69473800  0.46669000  1
  C  658  1  0.69955100  0.69324400  0.64008600  1
  C  659  1  0.67143400  0.81881100  0.61003300  1
  C  660  1  0.83558400  0.81976900  0.49679000  1
  C  665  1  0.50240400  0.51407400  0.78661200  1
  C  666  1  0.53293400  0.53741800  0.78063400  1
  C  667  1  0.53422000  0.56257200  0.75128800  1
  C  668  1  0.50272700  0.56643000  0.72923500  1
  C  669  1  0.47124500  0.54492100  0.73512300  1
  C  670  1  0.47134300  0.51827900  0.76335500  1
  C  673  1  0.50341600  0.48750600  0.81576000  1
  C  674  1  0.53447200  0.46463200  0.82200400  1
  C  675  1  0.53535300  0.43956300  0.85176800  1
  C  676  1  0.50396100  0.43627200  0.87412500  1
  C  677  1  0.47267900  0.45796600  0.86821700  1
  C  678  1  0.47314400  0.48416000  0.83990700  1
  C  685  1  0.44280300  0.45297800  0.89074100  1
  C  686  1  0.44176600  0.55051400  0.71213400  1
  C  687  1  0.56559800  0.58294200  0.74409200  1
  C  688  1  0.56585200  0.41795000  0.85925400  1
  C  693  1  0.00078100  0.48925100  0.28664700  1
  C  694  1  0.97022600  0.46591800  0.28075000  1
  C  695  1  0.96892400  0.44065200  0.25150400  1
  C  696  1  0.00043900  0.43663000  0.22951900  1
  C  697  1  0.03193900  0.45813600  0.23533300  1
  C  698  1  0.03184700  0.48492300  0.26342000  1
  C  701  1  0.99979800  0.51591500  0.31570700  1
  C  702  1  0.96876500  0.53883600  0.32188200  1
  C  703  1  0.96791400  0.56399200  0.35156700  1
  C  704  1  0.99931700  0.56734900  0.37389700  1
  C  705  1  0.03058400  0.54561900  0.36804400  1
  C  706  1  0.03008100  0.51931300  0.33983900  1
  C  713  1  0.06045600  0.55066100  0.39054100  1
  C  714  1  0.06142600  0.45230500  0.21244000  1
  C  715  1  0.93751300  0.42032500  0.24433000  1
  C  716  1  0.93740600  0.58559100  0.35904200  1
  C  721  1  0.88248100  0.87736700  0.39060200  1
  C  722  1  0.90423600  0.90367800  0.40884600  1
  C  723  1  0.90176800  0.90495300  0.44741900  1
  C  725  1  0.85909000  0.85601700  0.44754100  1
  C  728  1  0.88428100  0.87125700  0.35065100  1
  C  729  1  0.84843500  0.86947100  0.32860300  1
  C  730  1  0.87295600  0.90336900  0.32578500  1
  C  738  1  0.62083000  0.12599300  0.89061300  1
  C  739  1  0.59906900  0.09970000  0.90887400  1
  C  740  1  0.60158600  0.09838800  0.94744200  1
  C  742  1  0.64422900  0.14736500  0.94753800  1
  C  745  1  0.61899900  0.13210200  0.85066200  1
  C  746  1  0.65483200  0.13384700  0.82859000  1
  C  747  1  0.63026400  0.09998100  0.82578300  1
  C  755  1  0.37566900  0.61572900  0.64089900  1
  C  756  1  0.34890700  0.63808100  0.65778100  1
  C  757  1  0.34621200  0.63614100  0.69629800  1
  C  759  1  0.39453500  0.59272400  0.69903400  1
  C  762  1  0.38360900  0.61738200  0.60128000  1
  C  763  1  0.38541200  0.58137400  0.57950600  1
  C  764  1  0.35253800  0.60697400  0.57476400  1
  C  772  1  0.12778500  0.38742100  0.14100500  1
  C  773  1  0.15444100  0.36496500  0.15791700  1
  C  774  1  0.15695400  0.36671400  0.19645300  1
  C  776  1  0.10865400  0.41014700  0.19915600  1
  C  779  1  0.11998800  0.38589100  0.10135300  1
  C  780  1  0.11836100  0.42197300  0.07968490  1
  C  781  1  0.15117500  0.39628800  0.07496790  1
  C  789  1  0.62321300  0.87627500  0.71586600  1
  C  790  1  0.60241800  0.90324800  0.69745500  1
  C  791  1  0.60561100  0.90472300  0.65893000  1
  C  793  1  0.64681500  0.85455600  0.65917400  1
  C  796  1  0.62079900  0.87011600  0.75577800  1
  C  797  1  0.65632000  0.86711800  0.77822300  1
  C  798  1  0.63291800  0.90181400  0.78080000  1
  C  806  1  0.88005900  0.12702100  0.21596700  1
  C  807  1  0.90075600  0.09996600  0.19755500  1
  C  808  1  0.89754900  0.09848600  0.15903300  1
  C  810  1  0.85652000  0.14880200  0.15926600  1
  C  813  1  0.88245900  0.13318100  0.25588100  1
  C  814  1  0.84693900  0.13637200  0.27829900  1
  C  815  1  0.87014900  0.10154700  0.28089300  1
  C  823  1  0.12704600  0.61523400  0.46207800  1
  C  824  1  0.15461200  0.63667200  0.44528500  1
  C  825  1  0.15757000  0.63437300  0.40680300  1
  C  827  1  0.10802600  0.59240700  0.40393200  1
  C  830  1  0.11866000  0.61748300  0.50157900  1
  C  831  1  0.11515300  0.58178500  0.52365300  1
  C  832  1  0.14901100  0.60604900  0.52850300  1
  C  840  1  0.37643200  0.38806400  0.96207000  1
  C  841  1  0.34890400  0.36661500  0.94525900  1
  C  842  1  0.34573300  0.36914300  0.90681100  1
  C  844  1  0.39517200  0.41128800  0.90395400  1
  C  847  1  0.38495500  0.38563700  0.00152689  1
  C  848  1  0.38841100  0.42123400  0.02377190  1
  C  849  1  0.35465000  0.39683000  0.02860690  1
  C  857  1  0.12933800  0.13558600  0.21684200  1
  C  858  1  0.10009000  0.11642800  0.19981800  1
  C  859  1  0.09566400  0.12193700  0.16179700  1
  C  861  1  0.14476200  0.16418300  0.16009800  1
  C  864  1  0.13852900  0.13332800  0.25613600  1
  C  865  1  0.17889600  0.12920200  0.26760600  1
  C  866  1  0.15297600  0.09641400  0.27053600  1
  C  874  1  0.37391800  0.86762600  0.71700200  1
  C  875  1  0.40316700  0.88678500  0.69998000  1
  C  876  1  0.40760800  0.88126600  0.66195900  1
  C  878  1  0.35854900  0.83897100  0.66027400  1
  C  881  1  0.36471300  0.86990300  0.75629000  1
  C  882  1  0.32433900  0.87396100  0.76775700  1
  C  883  1  0.35019000  0.90680500  0.77064100  1
  C  891  1  0.62299700  0.36945500  0.96524900  1
  C  892  1  0.64868300  0.34707100  0.94688100  1
  C  893  1  0.64956400  0.34928400  0.90828500  1
  C  895  1  0.60143600  0.39294200  0.90838900  1
  C  898  1  0.61750000  0.36815300  0.00530289  1
  C  899  1  0.61661600  0.40422600  0.02703390  1
  C  900  1  0.65021000  0.37925300  0.02948490  1
  C  908  1  0.88025400  0.63396900  0.46507200  1
  C  909  1  0.85457800  0.65638300  0.44672000  1
  C  910  1  0.85370200  0.65421300  0.40812300  1
  C  912  1  0.90180900  0.61053300  0.40819300  1
  C  915  1  0.88575100  0.63523800  0.50512600  1
  C  916  1  0.88659300  0.59914600  0.52682600  1
  C  917  1  0.85303200  0.62415900  0.52930800  1
  C  925  1  0.37320600  0.13888600  0.88434400  1
  C  926  1  0.40014900  0.11720000  0.90211800  1
  C  927  1  0.40261200  0.12078400  0.94054700  1
  C  929  1  0.35630000  0.16607000  0.94133800  1
  C  932  1  0.36616100  0.13874000  0.84454400  1
  C  933  1  0.32632800  0.13680200  0.83085300  1
  C  934  1  0.35112600  0.10318700  0.82756400  1
  C  942  1  0.13009000  0.86436200  0.38439100  1
  C  943  1  0.10306600  0.88595900  0.40215400  1
  C  944  1  0.10062900  0.88239300  0.44058600  1
  C  946  1  0.14703300  0.83719800  0.44138900  1
  C  949  1  0.13714900  0.86452100  0.34459500  1
  C  950  1  0.17698100  0.86638700  0.33088700  1
  C  951  1  0.15226800  0.90007200  0.32767600  1
  C  959  1  0.88057400  0.37005200  0.13888200  1
  C  960  1  0.85367500  0.34925400  0.15740000  1
  C  961  1  0.85231500  0.35257000  0.19591400  1
  C  963  1  0.90232300  0.39404500  0.19545100  1
  C  966  1  0.88651900  0.36769600  0.09893090  1
  C  967  1  0.88913500  0.40327100  0.07652190  1
  C  968  1  0.85461100  0.37960300  0.07407090  1
  C  976  1  0.62257800  0.63326300  0.63869100  1
  C  977  1  0.64934300  0.65417500  0.65725800  1
  C  978  1  0.65072200  0.65082000  0.69577000  1
  C  980  1  0.60082600  0.60919000  0.69523900  1
  C  983  1  0.61669500  0.63561300  0.59873500  1
  C  984  1  0.61424100  0.60003500  0.57631000  1
  C  985  1  0.64868900  0.62382300  0.57392700  1
  N  228  1  0.87986000  0.88103100  0.16466200  1
  N  230  1  0.86117200  0.85442200  0.10958400  1
  N  240  1  0.93082600  0.92019600  0.08973100  1
  N  241  1  0.84018000  0.82977700  0.16242800  1
  N  245  1  0.62345600  0.12235900  0.66466800  1
  N  247  1  0.64214700  0.14894200  0.60957900  1
  N  257  1  0.57243000  0.08322600  0.58979400  1
  N  258  1  0.66310600  0.17363300  0.66241600  1
  N  262  1  0.36937900  0.61443000  0.41464500  1
  N  264  1  0.39774700  0.59451300  0.36103300  1
  N  274  1  0.33328600  0.66487000  0.33798700  1
  N  275  1  0.41988200  0.57702900  0.41859600  1
  N  279  1  0.13368700  0.38832100  0.91478900  1
  N  281  1  0.10560900  0.40854100  0.86113600  1
  N  291  1  0.16995700  0.33809400  0.83817200  1
  N  292  1  0.08305600  0.42551600  0.91862800  1
  N  296  1  0.62710100  0.88028400  0.33993200  1
  N  298  1  0.64413900  0.85281800  0.39513100  1
  N  308  1  0.57606100  0.92037400  0.41444500  1
  N  309  1  0.66508900  0.82781300  0.34243900  1
  N  313  1  0.87613300  0.12299300  0.84003200  1
  N  315  1  0.85921300  0.15054200  0.89522000  1
  N  325  1  0.92693500  0.08267900  0.91467400  1
  N  326  1  0.83826800  0.17556300  0.84252800  1
  N  330  1  0.13396500  0.61320400  0.08643200  1
  N  332  1  0.10451200  0.59456300  0.13993200  1
  N  342  1  0.17097100  0.66291700  0.16331600  1
  N  343  1  0.08222300  0.57737200  0.08249200  1
  N  347  1  0.36920900  0.39049100  0.58647500  1
  N  349  1  0.39881900  0.40890800  0.63993600  1
  N  359  1  0.33259100  0.34025200  0.66316300  1
  N  360  1  0.42085600  0.42647600  0.58248000  1
  N  364  1  0.11742800  0.14558500  0.84220800  1
  N  366  1  0.14980500  0.15907000  0.89549900  1
  N  376  1  0.07513300  0.09507400  0.91454600  1
  N  377  1  0.16458900  0.18976000  0.84314600  1
  N  381  1  0.38588600  0.85756800  0.34238700  1
  N  383  1  0.35347900  0.84411500  0.39566700  1
  N  393  1  0.42812900  0.90812900  0.41470500  1
  N  394  1  0.33876100  0.81335800  0.34332800  1
  N  398  1  0.62587800  0.37157600  0.58921100  1
  N  400  1  0.60027600  0.39113900  0.64443700  1
  N  410  1  0.66494200  0.32014200  0.66385000  1
  N  411  1  0.57558500  0.41256600  0.59164900  1
  N  415  1  0.87738100  0.63193000  0.08902800  1
  N  417  1  0.90296600  0.61229600  0.14424100  1
  N  427  1  0.83833600  0.68330400  0.16370600  1
  N  428  1  0.92764900  0.59091500  0.09143800  1
  N  432  1  0.38131900  0.14502300  0.65796700  1
  N  434  1  0.35306800  0.16278900  0.60357000  1
  N  444  1  0.42475800  0.09512800  0.58589700  1
  N  445  1  0.33721000  0.19218600  0.65634200  1
  N  449  1  0.12196600  0.85819500  0.15801100  1
  N  451  1  0.15026800  0.84049500  0.10362300  1
  N  461  1  0.07844400  0.90802000  0.08593400  1
  N  462  1  0.16615400  0.81109800  0.15639200  1
  N  466  1  0.87666100  0.37431200  0.91284100  1
  N  468  1  0.90397600  0.39117700  0.85754700  1
  N  478  1  0.83620500  0.32305800  0.83845900  1
  N  479  1  0.92880900  0.41291300  0.91009400  1
  N  483  1  0.62640900  0.62900800  0.41265600  1
  N  485  1  0.59921400  0.61206600  0.35732900  1
  N  495  1  0.66685700  0.68039300  0.33839200  1
  N  496  1  0.57433700  0.59030200  0.40985400  1
  N  724  1  0.87986000  0.88103100  0.46563700  1
  N  726  1  0.86117200  0.85442200  0.41055900  1
  N  736  1  0.93082600  0.92019600  0.39070600  1
  N  737  1  0.84018000  0.82977700  0.46340300  1
  N  741  1  0.62345600  0.12235900  0.96564300  1
  N  743  1  0.64214700  0.14894200  0.91055400  1
  N  753  1  0.57243000  0.08322600  0.89076900  1
  N  754  1  0.66310600  0.17363300  0.96339100  1
  N  758  1  0.36937900  0.61443000  0.71562000  1
  N  760  1  0.39774700  0.59451300  0.66200800  1
  N  770  1  0.33328600  0.66487000  0.63896200  1
  N  771  1  0.41988200  0.57702900  0.71957100  1
  N  775  1  0.13368700  0.38832100  0.21576400  1
  N  777  1  0.10560900  0.40854100  0.16211100  1
  N  787  1  0.16995700  0.33809400  0.13914700  1
  N  788  1  0.08305600  0.42551600  0.21960300  1
  N  792  1  0.62710100  0.88028400  0.64090700  1
  N  794  1  0.64413900  0.85281800  0.69610600  1
  N  804  1  0.57606100  0.92037400  0.71542000  1
  N  805  1  0.66508900  0.82781300  0.64341400  1
  N  809  1  0.87613300  0.12299300  0.14100700  1
  N  811  1  0.85921300  0.15054200  0.19619500  1
  N  821  1  0.92693500  0.08267900  0.21564900  1
  N  822  1  0.83826800  0.17556300  0.14350300  1
  N  826  1  0.13396500  0.61320400  0.38740700  1
  N  828  1  0.10451200  0.59456300  0.44090700  1
  N  838  1  0.17097100  0.66291700  0.46429100  1
  N  839  1  0.08222300  0.57737200  0.38346700  1
  N  843  1  0.36920900  0.39049100  0.88745000  1
  N  845  1  0.39881900  0.40890800  0.94091100  1
  N  855  1  0.33259100  0.34025200  0.96413800  1
  N  856  1  0.42085600  0.42647600  0.88345500  1
  N  860  1  0.11742800  0.14558500  0.14318300  1
  N  862  1  0.14980500  0.15907000  0.19647400  1
  N  872  1  0.07513300  0.09507400  0.21552100  1
  N  873  1  0.16458900  0.18976000  0.14412100  1
  N  877  1  0.38588600  0.85756800  0.64336200  1
  N  879  1  0.35347900  0.84411500  0.69664200  1
  N  889  1  0.42812900  0.90812900  0.71568000  1
  N  890  1  0.33876100  0.81335800  0.64430300  1
  N  894  1  0.62587800  0.37157600  0.89018600  1
  N  896  1  0.60027600  0.39113900  0.94541200  1
  N  906  1  0.66494200  0.32014200  0.96482500  1
  N  907  1  0.57558500  0.41256600  0.89262400  1
  N  911  1  0.87738100  0.63193000  0.39000300  1
  N  913  1  0.90296600  0.61229600  0.44521600  1
  N  923  1  0.83833600  0.68330400  0.46468100  1
  N  924  1  0.92764900  0.59091500  0.39241300  1
  N  928  1  0.38131900  0.14502300  0.95894200  1
  N  930  1  0.35306800  0.16278900  0.90454500  1
  N  940  1  0.42475800  0.09512800  0.88687200  1
  N  941  1  0.33721000  0.19218600  0.95731700  1
  N  945  1  0.12196600  0.85819500  0.45898600  1
  N  947  1  0.15026800  0.84049500  0.40459800  1
  N  957  1  0.07844400  0.90802000  0.38690900  1
  N  958  1  0.16615400  0.81109800  0.45736700  1
  N  962  1  0.87666100  0.37431200  0.21381600  1
  N  964  1  0.90397600  0.39117700  0.15852200  1
  N  974  1  0.83620500  0.32305800  0.13943400  1
  N  975  1  0.92880900  0.41291300  0.21106900  1
  N  979  1  0.62640900  0.62900800  0.71363100  1
  N  981  1  0.59921400  0.61206600  0.65830400  1
  N  991  1  0.66685700  0.68039300  0.63936700  1
  N  992  1  0.57433700  0.59030200  0.71082900  1
  O  17  1  0.94372900  0.99423600  0.96578300  1
  O  18  1  0.06305600  0.96442600  0.99493900  1
  O  45  1  0.55954300  0.00904500  0.46577800  1
  O  46  1  0.44024200  0.03893000  0.49493200  1
  O  73  1  0.25946300  0.67971400  0.21569900  1
  O  74  1  0.28863200  0.80105300  0.24770500  1
  O  101  1  0.24393900  0.32355600  0.71567500  1
  O  102  1  0.21473300  0.20217400  0.74752400  1
  O  129  1  0.74572600  0.30901900  0.78737000  1
  O  130  1  0.71478000  0.18768000  0.75715500  1
  O  157  1  0.75748300  0.69429200  0.28727000  1
  O  158  1  0.78854700  0.81564500  0.25718500  1
  O  185  1  0.44249600  0.49467700  0.46511600  1
  O  186  1  0.56288900  0.46502000  0.49672700  1
  O  213  1  0.06072800  0.50849200  0.96510700  1
  O  214  1  0.94033700  0.53839800  0.99661600  1
  O  513  1  0.94372900  0.99423600  0.26675800  1
  O  514  1  0.06305600  0.96442600  0.29591400  1
  O  541  1  0.55954300  0.00904500  0.76675300  1
  O  542  1  0.44024200  0.03893000  0.79590700  1
  O  569  1  0.25946300  0.67971400  0.51667400  1
  O  570  1  0.28863200  0.80105300  0.54868000  1
  O  597  1  0.24393900  0.32355600  0.01664990  1
  O  598  1  0.21473300  0.20217400  0.04849890  1
  O  625  1  0.74572600  0.30901900  0.08834490  1
  O  626  1  0.71478000  0.18768000  0.05812990  1
  O  653  1  0.75748300  0.69429200  0.58824500  1
  O  654  1  0.78854700  0.81564500  0.55816000  1
  O  681  1  0.44249600  0.49467700  0.76609100  1
  O  682  1  0.56288900  0.46502000  0.79770200  1
  O  709  1  0.06072800  0.50849200  0.26608200  1
  O  710  1  0.94033700  0.53839800  0.29759100  1
