# generated using pymatgen
data_H15C20(N2O)4
_symmetry_space_group_name_H-M   'P 1'
_cell_length_a   43.85130000
_cell_length_b   43.85130000
_cell_length_c   54.01630000
_cell_angle_alpha   90.00000000
_cell_angle_beta   90.00000000
_cell_angle_gamma   90.00000000
_symmetry_Int_Tables_number   1
_chemical_formula_structural   H15C20(N2O)4
_chemical_formula_sum   'H480 C640 N256 O128'
_cell_volume   103869.91549640
_cell_formula_units_Z   32
loop_
 _symmetry_equiv_pos_site_id
 _symmetry_equiv_pos_as_xyz
  1  'x, y, z'
loop_
 _atom_site_type_symbol
 _atom_site_label
 _atom_site_symmetry_multiplicity
 _atom_site_fract_x
 _atom_site_fract_y
 _atom_site_fract_z
 _atom_site_occupancy
  H  7  1  0.09338400  0.28582700  0.13927900  1
  H  16  1  0.02085800  0.28227700  0.09359700  1
  H  19  1  0.05000600  0.31985800  0.06346500  1
  H  20  1  0.04572800  0.35679900  0.06726100  1
  H  21  1  0.14036500  0.25523100  0.08470900  1
  H  22  1  0.12859700  0.28765400  0.09666800  1
  H  23  1  0.06643400  0.17702400  0.05934300  1
  H  24  1  0.02986800  0.18453100  0.06055600  1
  H  25  1  0.09119800  0.40819500  0.13730600  1
  H  26  1  0.10716400  0.38884300  0.15976200  1
  H  37  1  0.93298400  0.73942100  0.13944000  1
  H  46  1  0.00474300  0.74316800  0.09326400  1
  H  49  1  0.97387200  0.70636600  0.06258500  1
  H  50  1  0.97803600  0.66934300  0.06579300  1
  H  51  1  0.88524100  0.77058800  0.08511400  1
  H  52  1  0.89703600  0.73818300  0.09709900  1
  H  53  1  0.95915700  0.84852600  0.05910900  1
  H  54  1  0.99571200  0.84096000  0.06020000  1
  H  55  1  0.93695200  0.61693700  0.13773500  1
  H  56  1  0.92124200  0.63619500  0.16032300  1
  H  67  1  0.28598000  0.93215400  0.88572100  1
  H  76  1  0.28237700  0.00470400  0.93144300  1
  H  79  1  0.31995400  0.97562800  0.96153000  1
  H  80  1  0.35689900  0.97986500  0.95777000  1
  H  81  1  0.25540800  0.88518900  0.94031200  1
  H  82  1  0.28784300  0.89698500  0.92838600  1
  H  83  1  0.17712500  0.95905400  0.96569500  1
  H  84  1  0.18463100  0.99561400  0.96449400  1
  H  85  1  0.40838000  0.93433900  0.88772800  1
  H  86  1  0.38906000  0.91838900  0.86526300  1
  H  97  1  0.73958500  0.09256700  0.88566600  1
  H  106  1  0.74331600  0.02078500  0.93177000  1
  H  109  1  0.70648700  0.05145200  0.96245200  1
  H  110  1  0.66948300  0.04722000  0.95919500  1
  H  111  1  0.77067900  0.14027700  0.94006600  1
  H  112  1  0.73827900  0.12848800  0.92806600  1
  H  113  1  0.84870200  0.06634000  0.96580400  1
  H  114  1  0.84111500  0.02977600  0.96469500  1
  H  115  1  0.61710800  0.08851000  0.88729300  1
  H  116  1  0.63639800  0.10426900  0.86474100  1
  H  127  1  0.58973100  0.24086200  0.64025700  1
  H  136  1  0.52015100  0.24218900  0.59223800  1
  H  139  1  0.55450300  0.20364700  0.56307200  1
  H  140  1  0.54862400  0.16702200  0.56763600  1
  H  141  1  0.63984800  0.26970700  0.58679700  1
  H  142  1  0.62756600  0.23758900  0.59903200  1
  H  143  1  0.56673100  0.34717500  0.55837800  1
  H  144  1  0.53016600  0.33960000  0.55872700  1
  H  145  1  0.57249800  0.11972800  0.64738600  1
  H  146  1  0.58420600  0.14066600  0.67059200  1
  H  157  1  0.43714300  0.78400400  0.64054300  1
  H  166  1  0.50620400  0.78217500  0.59201900  1
  H  169  1  0.47019800  0.82015300  0.56251000  1
  H  170  1  0.47646700  0.85679000  0.56661900  1
  H  171  1  0.38646000  0.75465700  0.58736000  1
  H  172  1  0.39888200  0.78669900  0.59963900  1
  H  173  1  0.45929700  0.67729500  0.55815200  1
  H  174  1  0.49586000  0.68487300  0.55832400  1
  H  175  1  0.45836700  0.90448600  0.64756900  1
  H  176  1  0.44625600  0.88375400  0.67075700  1
  H  187  1  0.78449200  0.58889900  0.38457600  1
  H  196  1  0.78313700  0.51928600  0.43264900  1
  H  199  1  0.82165600  0.55355900  0.46175100  1
  H  200  1  0.85828600  0.54772100  0.45721600  1
  H  201  1  0.75566000  0.63898900  0.43803400  1
  H  202  1  0.78779600  0.62668800  0.42584500  1
  H  203  1  0.67812100  0.56592400  0.46646600  1
  H  204  1  0.68570800  0.52936600  0.46613900  1
  H  205  1  0.90565800  0.57185500  0.37754100  1
  H  206  1  0.88474200  0.58357000  0.35432400  1
  H  217  1  0.24133400  0.43629900  0.38469900  1
  H  226  1  0.24317200  0.50535500  0.43315100  1
  H  229  1  0.20516900  0.46950500  0.46270300  1
  H  230  1  0.16855600  0.47586000  0.45856100  1
  H  231  1  0.27061000  0.38561200  0.43798200  1
  H  232  1  0.23858100  0.39803600  0.42567300  1
  H  233  1  0.34807400  0.45847600  0.46690000  1
  H  234  1  0.34048900  0.49505200  0.46669200  1
  H  235  1  0.12092000  0.45784500  0.37755600  1
  H  236  1  0.14166800  0.44569000  0.35439100  1
  H  247  1  0.02235100  0.42959700  0.07041900  1
  H  254  1  0.95039500  0.57761100  0.10428800  1
  H  255  1  0.05441100  0.54142000  0.09843100  1
  H  256  1  0.02152900  0.49920700  0.14013900  1
  H  258  1  0.95566100  0.49707500  0.10103200  1
  H  259  1  0.93251000  0.52678900  0.10303200  1
  H  261  1  0.01040500  0.47102300  0.04344900  1
  H  262  1  0.00578300  0.50642300  0.05351600  1
  H  271  1  0.00375700  0.63145400  0.12174500  1
  H  272  1  0.02224700  0.39197700  0.12663400  1
  H  279  1  0.42979100  0.00308900  0.95467800  1
  H  286  1  0.57775400  0.07499300  0.92074800  1
  H  287  1  0.54159800  0.97095800  0.92653500  1
  H  288  1  0.49931700  0.00383500  0.88490300  1
  H  290  1  0.49722600  0.06970200  0.92404900  1
  H  291  1  0.52693300  0.09286300  0.92205100  1
  H  293  1  0.47125800  0.01499000  0.98161400  1
  H  294  1  0.50665100  0.01957400  0.97152100  1
  H  303  1  0.63163900  0.02166400  0.90324400  1
  H  304  1  0.39215200  0.00329500  0.89849700  1
  H  311  1  0.53237800  0.09373900  0.56816300  1
  H  318  1  0.45291200  0.94486800  0.60744600  1
  H  319  1  0.55313900  0.98670200  0.59175400  1
  H  320  1  0.50466700  0.03018700  0.63799600  1
  H  322  1  0.45282100  0.02533200  0.60284700  1
  H  323  1  0.43200300  0.99436900  0.60740700  1
  H  325  1  0.52938900  0.05048700  0.54165700  1
  H  326  1  0.51972900  0.01614600  0.55171700  1
  H  335  1  0.51242700  0.89189500  0.61561600  1
  H  336  1  0.51307700  0.13636300  0.61986600  1
  H  343  1  0.93153800  0.53146600  0.45676400  1
  H  350  1  0.08052400  0.45223900  0.41751100  1
  H  351  1  0.03862800  0.55239400  0.43340400  1
  H  352  1  0.99526300  0.50413800  0.38693700  1
  H  354  1  0.00004500  0.45212500  0.42191900  1
  H  355  1  0.03102400  0.43132800  0.41736800  1
  H  357  1  0.97472800  0.52837200  0.48332600  1
  H  358  1  0.00909600  0.51878000  0.47328800  1
  H  367  1  0.13350400  0.51175200  0.40958200  1
  H  368  1  0.88909000  0.51230600  0.40497400  1
  H  375  1  0.14876200  0.31797000  0.20267200  1
  H  382  1  0.18253900  0.43634500  0.30737200  1
  H  383  1  0.15653500  0.33119400  0.29063100  1
  H  384  1  0.10672800  0.39321700  0.25859000  1
  H  386  1  0.16141400  0.42345600  0.24489800  1
  H  387  1  0.17267700  0.44890800  0.26559200  1
  H  389  1  0.19381400  0.31605400  0.22687400  1
  H  390  1  0.19899400  0.33739700  0.25179800  1
  H  399  1  0.17318400  0.39015700  0.36084100  1
  H  400  1  0.07179700  0.34154500  0.18787800  1
  H  407  1  0.87506100  0.70264900  0.19986400  1
  H  414  1  0.84635100  0.58898100  0.30794600  1
  H  415  1  0.86449800  0.69529500  0.28928100  1
  H  416  1  0.92170100  0.63821100  0.26189700  1
  H  418  1  0.87019300  0.60129100  0.24604600  1
  H  419  1  0.85976000  0.57574800  0.26695800  1
  H  421  1  0.82869100  0.70175800  0.22239400  1
  H  422  1  0.82443600  0.68236900  0.24846800  1
  H  431  1  0.85030900  0.63700700  0.36033600  1
  H  432  1  0.95463200  0.68387400  0.18797100  1
  H  439  1  0.31820200  0.87664600  0.82233100  1
  H  446  1  0.43691000  0.84280500  0.71786100  1
  H  447  1  0.33172100  0.86882900  0.73441300  1
  H  448  1  0.39369200  0.91861100  0.76659400  1
  H  450  1  0.42385300  0.86393300  0.78031000  1
  H  451  1  0.44935900  0.85266700  0.75966300  1
  H  453  1  0.31633900  0.83159400  0.79812400  1
  H  454  1  0.33776600  0.82639500  0.77325300  1
  H  463  1  0.39083900  0.85208800  0.66428300  1
  H  464  1  0.34173000  0.95361500  0.83713800  1
  H  471  1  0.70294600  0.15035100  0.82517500  1
  H  478  1  0.58959900  0.17915300  0.71692800  1
  H  479  1  0.69585100  0.16081800  0.73571500  1
  H  480  1  0.63863300  0.10374400  0.76303800  1
  H  482  1  0.60176300  0.15534600  0.77885500  1
  H  483  1  0.57627400  0.16581100  0.75791200  1
  H  485  1  0.70220900  0.19669500  0.80260700  1
  H  486  1  0.68290300  0.20095600  0.77649500  1
  H  495  1  0.63772100  0.17507900  0.66457300  1
  H  496  1  0.68397700  0.07085600  0.83707300  1
  H  503  1  0.11760600  0.15081300  0.05902600  1
  H  510  1  0.19374900  0.06567700  0.95586900  1
  H  511  1  0.21729900  0.10295400  0.03798900  1
  H  512  1  0.19532800  0.16900700  0.99716900  1
  H  514  1  0.14872500  0.12921400  0.97340800  1
  H  515  1  0.15663100  0.10431000  0.95130300  1
  H  517  1  0.12694800  0.09792300  0.05668400  1
  H  518  1  0.15227500  0.08284900  0.03756700  1
  H  527  1  0.23739300  0.01475900  0.99223000  1
  H  528  1  0.11063800  0.22084400  0.03216000  1
  H  535  1  0.90783800  0.87461000  0.05909400  1
  H  542  1  0.83184900  0.95978200  0.95610700  1
  H  543  1  0.80796600  0.92232600  0.03811300  1
  H  544  1  0.82997700  0.85634100  0.99736200  1
  H  546  1  0.87671500  0.89613700  0.97362400  1
  H  547  1  0.86892200  0.92111500  0.95154900  1
  H  549  1  0.89845600  0.92748800  0.05676300  1
  H  550  1  0.87306100  0.94253900  0.03769400  1
  H  559  1  0.78815200  0.01066700  0.99244800  1
  H  560  1  0.91462000  0.80442000  0.03228800  1
  H  567  1  0.15093800  0.90781300  0.96584100  1
  H  574  1  0.06578200  0.83173100  0.06892100  1
  H  575  1  0.10307600  0.80804600  0.98683100  1
  H  576  1  0.16913600  0.83000700  0.02762900  1
  H  578  1  0.12938300  0.87665300  0.05138500  1
  H  579  1  0.10445400  0.86879900  0.07348000  1
  H  581  1  0.09805300  0.89844900  0.96815700  1
  H  582  1  0.08297900  0.87308400  0.98724100  1
  H  591  1  0.01483800  0.78810200  0.03257600  1
  H  592  1  0.22098900  0.91470700  0.99274300  1
  H  599  1  0.87478500  0.11762200  0.96609000  1
  H  606  1  0.95988000  0.19366900  0.06917800  1
  H  607  1  0.92242400  0.21744700  0.98715400  1
  H  608  1  0.85645300  0.19535200  0.02791800  1
  H  610  1  0.89631900  0.14867800  0.05164400  1
  H  611  1  0.92127200  0.15652200  0.07372600  1
  H  613  1  0.92765900  0.12702600  0.96844800  1
  H  614  1  0.94269000  0.15238700  0.98755900  1
  H  623  1  0.01070100  0.23741100  0.03282600  1
  H  624  1  0.80464600  0.11069500  0.99287400  1
  H  631  1  0.61779000  0.37347800  0.55947400  1
  H  638  1  0.69487700  0.45895500  0.45697700  1
  H  639  1  0.71747900  0.42183900  0.53931800  1
  H  640  1  0.69633200  0.35571600  0.49821800  1
  H  642  1  0.64989600  0.39524500  0.47412300  1
  H  643  1  0.65800100  0.42017400  0.45208600  1
  H  645  1  0.62689800  0.42641600  0.55723000  1
  H  646  1  0.65238800  0.44162400  0.53833000  1
  H  655  1  0.73807300  0.51005500  0.49361400  1
  H  656  1  0.61138200  0.30357600  0.53235400  1
  H  663  1  0.40817500  0.65116600  0.55978100  1
  H  670  1  0.33118300  0.56555200  0.45747500  1
  H  671  1  0.30843100  0.60278200  0.53975500  1
  H  672  1  0.32950900  0.66886000  0.49861400  1
  H  674  1  0.37600900  0.62938100  0.47454500  1
  H  675  1  0.36797300  0.60438800  0.45254300  1
  H  677  1  0.39908300  0.59823300  0.55758500  1
  H  678  1  0.37354900  0.58299900  0.53873900  1
  H  687  1  0.28794600  0.51445900  0.49412700  1
  H  688  1  0.41442300  0.72113900  0.53261900  1
  H  695  1  0.65182300  0.61698500  0.46523300  1
  H  702  1  0.56643900  0.69419100  0.56763200  1
  H  703  1  0.60337500  0.71672900  0.48522600  1
  H  704  1  0.66959400  0.69576200  0.52628900  1
  H  706  1  0.63020400  0.64931700  0.55048400  1
  H  707  1  0.60529100  0.65741200  0.57253300  1
  H  709  1  0.59888300  0.62606500  0.46748300  1
  H  710  1  0.58367400  0.65162400  0.48632500  1
  H  719  1  0.51523200  0.73736400  0.53101900  1
  H  720  1  0.72175900  0.61074500  0.49234700  1
  H  727  1  0.37418000  0.40733800  0.46553700  1
  H  734  1  0.45985600  0.33046400  0.56795400  1
  H  735  1  0.42240000  0.30762400  0.48575700  1
  H  736  1  0.35644500  0.32895700  0.52693500  1
  H  738  1  0.39610900  0.37543000  0.55088400  1
  H  739  1  0.42112100  0.36738500  0.57286900  1
  H  741  1  0.42710700  0.39818600  0.46772700  1
  H  742  1  0.44232600  0.37271600  0.48664200  1
  H  751  1  0.51077800  0.28717000  0.53127100  1
  H  752  1  0.30428000  0.41382600  0.49272300  1
  H  759  1  0.16179700  0.28582700  0.58358900  1
  H  768  1  0.08927100  0.28227700  0.53790700  1
  H  771  1  0.11841900  0.31985800  0.50777500  1
  H  772  1  0.11414100  0.35679900  0.51157100  1
  H  773  1  0.20877800  0.25523100  0.52901900  1
  H  774  1  0.19701000  0.28765400  0.54097800  1
  H  775  1  0.13484700  0.17702400  0.50365300  1
  H  776  1  0.09828100  0.18453100  0.50486600  1
  H  777  1  0.15961100  0.40819500  0.58161600  1
  H  778  1  0.17557700  0.38884300  0.60407200  1
  H  789  1  0.00139702  0.73942100  0.58375000  1
  H  798  1  0.07315600  0.74316800  0.53757400  1
  H  801  1  0.04228500  0.70636600  0.50689500  1
  H  802  1  0.04644900  0.66934300  0.51010300  1
  H  803  1  0.95365400  0.77058800  0.52942400  1
  H  804  1  0.96544900  0.73818300  0.54140900  1
  H  805  1  0.02757000  0.84852600  0.50341900  1
  H  806  1  0.06412500  0.84096000  0.50451000  1
  H  807  1  0.00536502  0.61693700  0.58204500  1
  H  808  1  0.98965500  0.63619500  0.60463300  1
  H  819  1  0.35439300  0.93215400  0.33003100  1
  H  828  1  0.35079000  0.00470400  0.37575300  1
  H  831  1  0.38836700  0.97562800  0.40584000  1
  H  832  1  0.42531200  0.97986500  0.40208000  1
  H  833  1  0.32382100  0.88518900  0.38462200  1
  H  834  1  0.35625600  0.89698500  0.37269600  1
  H  835  1  0.24553800  0.95905400  0.41000500  1
  H  836  1  0.25304400  0.99561400  0.40880400  1
  H  837  1  0.47679300  0.93433900  0.33203800  1
  H  838  1  0.45747300  0.91838900  0.30957300  1
  H  849  1  0.80799800  0.09256700  0.32997600  1
  H  858  1  0.81172900  0.02078500  0.37608000  1
  H  861  1  0.77490000  0.05145200  0.40676200  1
  H  862  1  0.73789600  0.04722000  0.40350500  1
  H  863  1  0.83909200  0.14027700  0.38437600  1
  H  864  1  0.80669200  0.12848800  0.37237600  1
  H  865  1  0.91711500  0.06634000  0.41011400  1
  H  866  1  0.90952800  0.02977600  0.40900500  1
  H  867  1  0.68552100  0.08851000  0.33160300  1
  H  868  1  0.70481100  0.10426900  0.30905100  1
  H  879  1  0.65814400  0.24086200  0.08456730  1
  H  888  1  0.58856400  0.24218900  0.03654830  1
  H  891  1  0.62291600  0.20364700  0.00738233  1
  H  892  1  0.61703700  0.16702200  0.01194630  1
  H  893  1  0.70826100  0.26970700  0.03110730  1
  H  894  1  0.69597900  0.23758900  0.04334230  1
  H  895  1  0.63514400  0.34717500  0.00268833  1
  H  896  1  0.59857900  0.33960000  0.00303733  1
  H  897  1  0.64091100  0.11972800  0.09169630  1
  H  898  1  0.65261900  0.14066600  0.11490200  1
  H  909  1  0.50555600  0.78400400  0.08485330  1
  H  918  1  0.57461700  0.78217500  0.03632930  1
  H  921  1  0.53861100  0.82015300  0.00682033  1
  H  922  1  0.54488000  0.85679000  0.01092930  1
  H  923  1  0.45487300  0.75465700  0.03167030  1
  H  924  1  0.46729500  0.78669900  0.04394930  1
  H  925  1  0.52771000  0.67729500  0.00246233  1
  H  926  1  0.56427300  0.68487300  0.00263433  1
  H  927  1  0.52678000  0.90448600  0.09187930  1
  H  928  1  0.51466900  0.88375400  0.11506700  1
  H  939  1  0.85290500  0.58889900  0.82888600  1
  H  948  1  0.85155000  0.51928600  0.87695900  1
  H  951  1  0.89006900  0.55355900  0.90606100  1
  H  952  1  0.92669900  0.54772100  0.90152600  1
  H  953  1  0.82407300  0.63898900  0.88234400  1
  H  954  1  0.85620900  0.62668800  0.87015500  1
  H  955  1  0.74653400  0.56592400  0.91077600  1
  H  956  1  0.75412100  0.52936600  0.91044900  1
  H  957  1  0.97407100  0.57185500  0.82185100  1
  H  958  1  0.95315500  0.58357000  0.79863400  1
  H  969  1  0.30974700  0.43629900  0.82900900  1
  H  978  1  0.31158500  0.50535500  0.87746100  1
  H  981  1  0.27358200  0.46950500  0.90701300  1
  H  982  1  0.23696900  0.47586000  0.90287100  1
  H  983  1  0.33902300  0.38561200  0.88229200  1
  H  984  1  0.30699400  0.39803600  0.86998300  1
  H  985  1  0.41648700  0.45847600  0.91121000  1
  H  986  1  0.40890200  0.49505200  0.91100200  1
  H  987  1  0.18933300  0.45784500  0.82186600  1
  H  988  1  0.21008100  0.44569000  0.79870100  1
  H  999  1  0.09076400  0.42959700  0.51472900  1
  H  1006  1  0.01880800  0.57761100  0.54859800  1
  H  1007  1  0.12282400  0.54142000  0.54274100  1
  H  1008  1  0.08994200  0.49920700  0.58444900  1
  H  1010  1  0.02407400  0.49707500  0.54534200  1
  H  1011  1  0.00092302  0.52678900  0.54734200  1
  H  1013  1  0.07881800  0.47102300  0.48775900  1
  H  1014  1  0.07419600  0.50642300  0.49782600  1
  H  1023  1  0.07217000  0.63145400  0.56605500  1
  H  1024  1  0.09066000  0.39197700  0.57094400  1
  H  1031  1  0.49820400  0.00308900  0.39898800  1
  H  1038  1  0.64616700  0.07499300  0.36505800  1
  H  1039  1  0.61001100  0.97095800  0.37084500  1
  H  1040  1  0.56773000  0.00383500  0.32921300  1
  H  1042  1  0.56563900  0.06970200  0.36835900  1
  H  1043  1  0.59534600  0.09286300  0.36636100  1
  H  1045  1  0.53967100  0.01499000  0.42592400  1
  H  1046  1  0.57506400  0.01957400  0.41583100  1
  H  1055  1  0.70005200  0.02166400  0.34755400  1
  H  1056  1  0.46056500  0.00329500  0.34280700  1
  H  1063  1  0.60079100  0.09373900  0.01247330  1
  H  1070  1  0.52132500  0.94486800  0.05175630  1
  H  1071  1  0.62155200  0.98670200  0.03606430  1
  H  1072  1  0.57308000  0.03018700  0.08230630  1
  H  1074  1  0.52123400  0.02533200  0.04715730  1
  H  1075  1  0.50041600  0.99436900  0.05171730  1
  H  1077  1  0.59780200  0.05048700  0.98596700  1
  H  1078  1  0.58814200  0.01614600  0.99602700  1
  H  1087  1  0.58084000  0.89189500  0.05992630  1
  H  1088  1  0.58149000  0.13636300  0.06417630  1
  H  1095  1  0.99995100  0.53146600  0.90107400  1
  H  1102  1  0.14893700  0.45223900  0.86182100  1
  H  1103  1  0.10704100  0.55239400  0.87771400  1
  H  1104  1  0.06367600  0.50413800  0.83124700  1
  H  1106  1  0.06845800  0.45212500  0.86622900  1
  H  1107  1  0.09943700  0.43132800  0.86167800  1
  H  1109  1  0.04314100  0.52837200  0.92763600  1
  H  1110  1  0.07750900  0.51878000  0.91759800  1
  H  1119  1  0.20191700  0.51175200  0.85389200  1
  H  1120  1  0.95750300  0.51230600  0.84928400  1
  H  1127  1  0.21717500  0.31797000  0.64698200  1
  H  1134  1  0.25095200  0.43634500  0.75168200  1
  H  1135  1  0.22494800  0.33119400  0.73494100  1
  H  1136  1  0.17514100  0.39321700  0.70290000  1
  H  1138  1  0.22982700  0.42345600  0.68920800  1
  H  1139  1  0.24109000  0.44890800  0.70990200  1
  H  1141  1  0.26222700  0.31605400  0.67118400  1
  H  1142  1  0.26740700  0.33739700  0.69610800  1
  H  1151  1  0.24159700  0.39015700  0.80515100  1
  H  1152  1  0.14021000  0.34154500  0.63218800  1
  H  1159  1  0.94347400  0.70264900  0.64417400  1
  H  1166  1  0.91476400  0.58898100  0.75225600  1
  H  1167  1  0.93291100  0.69529500  0.73359100  1
  H  1168  1  0.99011400  0.63821100  0.70620700  1
  H  1170  1  0.93860600  0.60129100  0.69035600  1
  H  1171  1  0.92817300  0.57574800  0.71126800  1
  H  1173  1  0.89710400  0.70175800  0.66666667  1
  H  1174  1  0.89284900  0.68236900  0.69277800  1
  H  1183  1  0.91872200  0.63700700  0.80464600  1
  H  1184  1  0.02304500  0.68387400  0.63228100  1
  H  1191  1  0.38661500  0.87664600  0.26664100  1
  H  1198  1  0.50532300  0.84280500  0.16217100  1
  H  1199  1  0.40013400  0.86882900  0.17872300  1
  H  1200  1  0.46210500  0.91861100  0.21090400  1
  H  1202  1  0.49226600  0.86393300  0.22462000  1
  H  1203  1  0.51777200  0.85266700  0.20397300  1
  H  1205  1  0.38475200  0.83159400  0.24243400  1
  H  1206  1  0.40617900  0.82639500  0.21756300  1
  H  1215  1  0.45925200  0.85208800  0.10859300  1
  H  1216  1  0.41014300  0.95361500  0.28144800  1
  H  1223  1  0.77135900  0.15035100  0.26948500  1
  H  1230  1  0.65801200  0.17915300  0.16123800  1
  H  1231  1  0.76426400  0.16081800  0.18002500  1
  H  1232  1  0.70704600  0.10374400  0.20734800  1
  H  1234  1  0.67017600  0.15534600  0.22316500  1
  H  1235  1  0.64468700  0.16581100  0.20222200  1
  H  1237  1  0.77062200  0.19669500  0.24691700  1
  H  1238  1  0.75131600  0.20095600  0.22080500  1
  H  1247  1  0.70613400  0.17507900  0.10888300  1
  H  1248  1  0.75239000  0.07085600  0.28138300  1
  H  1255  1  0.18601900  0.15081300  0.50333600  1
  H  1262  1  0.26216200  0.06567700  0.40017900  1
  H  1263  1  0.28571200  0.10295400  0.48229900  1
  H  1264  1  0.26374100  0.16900700  0.44147900  1
  H  1266  1  0.21713800  0.12921400  0.41771800  1
  H  1267  1  0.22504400  0.10431000  0.39561300  1
  H  1269  1  0.19536100  0.09792300  0.50099400  1
  H  1270  1  0.22068800  0.08284900  0.48187700  1
  H  1279  1  0.30580600  0.01475900  0.43654000  1
  H  1280  1  0.17905100  0.22084400  0.47647000  1
  H  1287  1  0.97625100  0.87461000  0.50340400  1
  H  1294  1  0.90026200  0.95978200  0.40041700  1
  H  1295  1  0.87637900  0.92232600  0.48242300  1
  H  1296  1  0.89839000  0.85634100  0.44167200  1
  H  1298  1  0.94512800  0.89613700  0.41793400  1
  H  1299  1  0.93733500  0.92111500  0.39585900  1
  H  1301  1  0.96686900  0.92748800  0.50107300  1
  H  1302  1  0.94147400  0.94253900  0.48200400  1
  H  1311  1  0.85656500  0.01066700  0.43675800  1
  H  1312  1  0.98303300  0.80442000  0.47659800  1
  H  1319  1  0.21935100  0.90781300  0.41015100  1
  H  1326  1  0.13419500  0.83173100  0.51323100  1
  H  1327  1  0.17148900  0.80804600  0.43114100  1
  H  1328  1  0.23754900  0.83000700  0.47193900  1
  H  1330  1  0.19779600  0.87665300  0.49569500  1
  H  1331  1  0.17286700  0.86879900  0.51779000  1
  H  1333  1  0.16646600  0.89844900  0.41246700  1
  H  1334  1  0.15139200  0.87308400  0.43155100  1
  H  1343  1  0.08325100  0.78810200  0.47688600  1
  H  1344  1  0.28940200  0.91470700  0.43705300  1
  H  1351  1  0.94319800  0.11762200  0.41040000  1
  H  1358  1  0.02829300  0.19366900  0.51348800  1
  H  1359  1  0.99083700  0.21744700  0.43146400  1
  H  1360  1  0.92486600  0.19535200  0.47222800  1
  H  1362  1  0.96473200  0.14867800  0.49595400  1
  H  1363  1  0.98968500  0.15652200  0.51803600  1
  H  1365  1  0.99607200  0.12702600  0.41275800  1
  H  1366  1  0.01110300  0.15238700  0.43186900  1
  H  1375  1  0.07911400  0.23741100  0.47713600  1
  H  1376  1  0.87305900  0.11069500  0.43718400  1
  H  1383  1  0.68620300  0.37347800  0.00378433  1
  H  1390  1  0.76329000  0.45895500  0.90128700  1
  H  1391  1  0.78589200  0.42183900  0.98362800  1
  H  1392  1  0.76474500  0.35571600  0.94252800  1
  H  1394  1  0.71830900  0.39524500  0.91843300  1
  H  1395  1  0.72641400  0.42017400  0.89639600  1
  H  1397  1  0.69531100  0.42641600  0.00154033  1
  H  1398  1  0.72080100  0.44162400  0.98264000  1
  H  1407  1  0.80648600  0.51005500  0.93792400  1
  H  1408  1  0.67979500  0.30357600  0.97666400  1
  H  1415  1  0.47658800  0.65116600  0.00409133  1
  H  1422  1  0.39959600  0.56555200  0.90178500  1
  H  1423  1  0.37684400  0.60278200  0.98406500  1
  H  1424  1  0.39792200  0.66886000  0.94292400  1
  H  1426  1  0.44442200  0.62938100  0.91885500  1
  H  1427  1  0.43638600  0.60438800  0.89685300  1
  H  1429  1  0.46749600  0.59823300  0.00189533  1
  H  1430  1  0.44196200  0.58299900  0.98304900  1
  H  1439  1  0.35635900  0.51445900  0.93843700  1
  H  1440  1  0.48283600  0.72113900  0.97692900  1
  H  1447  1  0.72023600  0.61698500  0.90954300  1
  H  1454  1  0.63485200  0.69419100  0.01194230  1
  H  1455  1  0.67178800  0.71672900  0.92953600  1
  H  1456  1  0.73800700  0.69576200  0.97059900  1
  H  1458  1  0.69861700  0.64931700  0.99479400  1
  H  1459  1  0.67370400  0.65741200  0.01684330  1
  H  1461  1  0.66729600  0.62606500  0.91179300  1
  H  1462  1  0.65208700  0.65162400  0.93063500  1
  H  1471  1  0.58364500  0.73736400  0.97532900  1
  H  1472  1  0.79017200  0.61074500  0.93665700  1
  H  1479  1  0.44259300  0.40733800  0.90984700  1
  H  1486  1  0.52826900  0.33046400  0.01226430  1
  H  1487  1  0.49081300  0.30762400  0.93006700  1
  H  1488  1  0.42485800  0.32895700  0.97124500  1
  H  1490  1  0.46452200  0.37543000  0.99519400  1
  H  1491  1  0.48953400  0.36738500  0.01717930  1
  H  1493  1  0.49552000  0.39818600  0.91203700  1
  H  1494  1  0.51073900  0.37271600  0.93095200  1
  H  1503  1  0.57919100  0.28717000  0.97558100  1
  H  1504  1  0.37269300  0.41382600  0.93703300  1
  C  1  1  0.07330200  0.30646000  0.10766300  1
  C  2  1  0.08706700  0.30618000  0.13151100  1
  C  3  1  0.09322700  0.33329900  0.14475000  1
  C  4  1  0.08537500  0.36188000  0.13409900  1
  C  5  1  0.06859100  0.36236300  0.11151800  1
  C  6  1  0.06378100  0.33514100  0.09756100  1
  C  9  1  0.06898800  0.27771600  0.09487900  1
  C  10  1  0.09378000  0.25868500  0.08709700  1
  C  11  1  0.08750500  0.23016400  0.07529400  1
  C  12  1  0.05689000  0.22060200  0.07092600  1
  C  13  1  0.03262300  0.24112400  0.07614900  1
  C  14  1  0.03881500  0.26841400  0.08904600  1
  C  31  1  0.95238200  0.71908900  0.10744300  1
  C  32  1  0.93915300  0.71913700  0.13147500  1
  C  33  1  0.93339000  0.69189700  0.14466800  1
  C  34  1  0.94118200  0.66340300  0.13380200  1
  C  35  1  0.95677400  0.66310400  0.11064600  1
  C  36  1  0.96122300  0.69049900  0.09681900  1
  C  39  1  0.95664600  0.74792900  0.09483500  1
  C  40  1  0.93183900  0.76699800  0.08719100  1
  C  41  1  0.93811300  0.79547400  0.07532500  1
  C  42  1  0.96871600  0.80497400  0.07080900  1
  C  43  1  0.99298200  0.78442100  0.07595500  1
  C  44  1  0.98680500  0.75712000  0.08883700  1
  C  61  1  0.30658600  0.95226500  0.91733900  1
  C  62  1  0.30632600  0.93848700  0.89349300  1
  C  63  1  0.33345900  0.93225900  0.88028800  1
  C  64  1  0.36202800  0.94009700  0.89096200  1
  C  65  1  0.36250000  0.95689500  0.91353500  1
  C  66  1  0.33526500  0.96175000  0.92746400  1
  C  69  1  0.27783700  0.95657500  0.93012300  1
  C  70  1  0.25880900  0.93176900  0.93787400  1
  C  71  1  0.23027600  0.93802400  0.94966500  1
  C  72  1  0.22070500  0.96862700  0.95406500  1
  C  73  1  0.24122200  0.99291400  0.94888000  1
  C  74  1  0.26852100  0.98673900  0.93598700  1
  C  91  1  0.71922800  0.07314000  0.91763900  1
  C  92  1  0.71929900  0.08636000  0.89360600  1
  C  93  1  0.69207300  0.09207000  0.88038400  1
  C  94  1  0.66356900  0.08425100  0.89122500  1
  C  95  1  0.66325900  0.06864400  0.91437600  1
  C  96  1  0.69063800  0.06423700  0.92822900  1
  C  99  1  0.74805900  0.06888600  0.93025600  1
  C  100  1  0.76712600  0.09368900  0.93791700  1
  C  101  1  0.79560400  0.08740900  0.94977800  1
  C  102  1  0.80511600  0.05680100  0.95425600  1
  C  103  1  0.78456200  0.03254300  0.94908500  1
  C  104  1  0.75726800  0.03872200  0.93620000  1
  C  121  1  0.57170900  0.21887400  0.60848100  1
  C  122  1  0.58327300  0.22025000  0.63302400  1
  C  123  1  0.58683700  0.19390500  0.64780800  1
  C  124  1  0.57650700  0.16526000  0.63869400  1
  C  125  1  0.56450700  0.16349200  0.61419400  1
  C  126  1  0.56298200  0.18982000  0.59868400  1
  C  129  1  0.56817400  0.24704600  0.59480500  1
  C  130  1  0.59321300  0.26603500  0.58756100  1
  C  131  1  0.58733900  0.29422400  0.57511100  1
  C  132  1  0.55686600  0.30366000  0.56992800  1
  C  133  1  0.53245600  0.28316100  0.57476300  1
  C  134  1  0.53824600  0.25599700  0.58793000  1
  C  151  1  0.45487100  0.80553100  0.60846200  1
  C  152  1  0.44373100  0.80448000  0.63314000  1
  C  153  1  0.44081000  0.83098700  0.64783400  1
  C  154  1  0.45155500  0.85937600  0.63848300  1
  C  155  1  0.46236500  0.86092300  0.61360900  1
  C  156  1  0.46318300  0.83446000  0.59822500  1
  C  159  1  0.45821400  0.77725600  0.59492900  1
  C  160  1  0.43310000  0.75831000  0.58781500  1
  C  161  1  0.43886500  0.73017600  0.57525800  1
  C  162  1  0.46928600  0.72074700  0.56986100  1
  C  163  1  0.49374600  0.74121100  0.57460800  1
  C  164  1  0.48807400  0.76835100  0.58783300  1
  C  181  1  0.80645900  0.57084500  0.41634800  1
  C  182  1  0.80510000  0.58243400  0.39181100  1
  C  183  1  0.83145900  0.58607800  0.37705500  1
  C  184  1  0.86010400  0.57576600  0.38618300  1
  C  185  1  0.86185800  0.56372500  0.41067000  1
  C  186  1  0.83551400  0.56214500  0.42616200  1
  C  189  1  0.77828000  0.56730500  0.43002200  1
  C  190  1  0.75928400  0.59235600  0.43722900  1
  C  191  1  0.73108200  0.58649800  0.44965700  1
  C  192  1  0.72164500  0.55603600  0.45488100  1
  C  193  1  0.74215100  0.53161400  0.45009500  1
  C  194  1  0.76932700  0.53738900  0.43693500  1
  C  211  1  0.21979400  0.45402500  0.41677200  1
  C  212  1  0.22086000  0.44292200  0.39208700  1
  C  213  1  0.19436700  0.44006900  0.37737100  1
  C  214  1  0.16598600  0.45086400  0.38670000  1
  C  215  1  0.16442600  0.46165300  0.41157900  1
  C  216  1  0.19086900  0.46239900  0.42698600  1
  C  219  1  0.24806300  0.45735900  0.43030900  1
  C  220  1  0.26700000  0.43224700  0.43745100  1
  C  221  1  0.29513600  0.43801900  0.45000700  1
  C  222  1  0.30458800  0.46844900  0.45535100  1
  C  223  1  0.28413000  0.49290600  0.45056800  1
  C  224  1  0.25699100  0.48722800  0.43735300  1
  C  241  1  0.02824900  0.43300900  0.10907800  1
  C  242  1  0.02810600  0.45349100  0.12944400  1
  C  243  1  0.02186000  0.48469200  0.12526600  1
  C  244  1  0.01569400  0.49608800  0.10133200  1
  C  245  1  0.01596200  0.47571900  0.08081800  1
  C  246  1  0.02237600  0.44443600  0.08507900  1
  C  248  1  0.00821800  0.52764600  0.09933900  1
  C  249  1  0.97763300  0.53829600  0.10083200  1
  C  250  1  0.97237600  0.57012600  0.10221100  1
  C  251  1  0.99646900  0.59165400  0.10259100  1
  C  252  1  0.02687800  0.58077100  0.10075200  1
  C  253  1  0.03232100  0.54901000  0.09898400  1
  C  269  1  0.03361300  0.40218600  0.11296100  1
  C  270  1  0.99051700  0.62194000  0.10887800  1
  C  273  1  0.43315000  0.99718100  0.91601600  1
  C  274  1  0.45360800  0.99729700  0.89563500  1
  C  275  1  0.48482000  0.00351100  0.89978900  1
  C  276  1  0.49625200  0.00967100  0.92371300  1
  C  277  1  0.47590600  0.00942400  0.94424200  1
  C  278  1  0.44461400  0.00304100  0.94000700  1
  C  280  1  0.52781100  0.01715000  0.92567900  1
  C  281  1  0.53845100  0.04773900  0.92420600  1
  C  282  1  0.57027900  0.05300500  0.92281200  1
  C  283  1  0.59181100  0.02892100  0.92239700  1
  C  284  1  0.58094000  0.99850600  0.92421100  1
  C  285  1  0.54918100  0.99305100  0.92599600  1
  C  301  1  0.40230500  0.99187900  0.91217100  1
  C  302  1  0.62208600  0.03489600  0.91609700  1
  C  305  1  0.52348500  0.09367200  0.60653200  1
  C  306  1  0.51538500  0.07493500  0.62692900  1
  C  307  1  0.51040200  0.04344300  0.62307700  1
  C  308  1  0.51286200  0.02999000  0.59938200  1
  C  309  1  0.52130000  0.04862500  0.57889700  1
  C  310  1  0.52659500  0.08018200  0.58289400  1
  C  312  1  0.50681700  0.99801800  0.59753600  1
  C  313  1  0.47729500  0.98557300  0.60177700  1
  C  314  1  0.47403400  0.95350600  0.60337100  1
  C  315  1  0.49902300  0.93322600  0.60084600  1
  C  316  1  0.52823500  0.94586400  0.59594400  1
  C  317  1  0.53171900  0.97793600  0.59435700  1
  C  333  1  0.52827800  0.12470900  0.60994000  1
  C  334  1  0.49554300  0.90230100  0.60661900  1
  C  337  1  0.93169600  0.52277100  0.41836600  1
  C  338  1  0.95048400  0.51478300  0.39797000  1
  C  339  1  0.98197000  0.50979800  0.40185400  1
  C  340  1  0.99536800  0.51214600  0.42557700  1
  C  341  1  0.97668200  0.52047200  0.44606100  1
  C  342  1  0.94513200  0.52577000  0.44203300  1
  C  344  1  0.02733600  0.50609900  0.42745600  1
  C  345  1  0.03979700  0.47659700  0.42315200  1
  C  346  1  0.07187100  0.47334500  0.42162400  1
  C  347  1  0.09214200  0.49832000  0.42427500  1
  C  348  1  0.07948100  0.52751000  0.42923300  1
  C  349  1  0.04740400  0.53098500  0.43075300  1
  C  365  1  0.90065200  0.52753200  0.41494700  1
  C  366  1  0.12310300  0.49488800  0.41860100  1
  C  369  1  0.11057000  0.34600100  0.20933300  1
  C  370  1  0.09883200  0.36847500  0.22580600  1
  C  371  1  0.11596800  0.37738900  0.24682000  1
  C  372  1  0.14520800  0.36537100  0.25193900  1
  C  373  1  0.15732400  0.34312300  0.23537700  1
  C  374  1  0.13980700  0.33385500  0.21453000  1
  C  376  1  0.15997100  0.37493300  0.27446300  1
  C  377  1  0.16820900  0.40577300  0.27953200  1
  C  378  1  0.17807200  0.41386000  0.30371600  1
  C  379  1  0.18028500  0.39240800  0.32326300  1
  C  380  1  0.17294500  0.36152800  0.31779500  1
  C  381  1  0.16296800  0.35333000  0.29373300  1
  C  397  1  0.09421300  0.33783900  0.18795400  1
  C  398  1  0.18419000  0.40205600  0.34789500  1
  C  401  1  0.91579900  0.68001100  0.20958700  1
  C  402  1  0.92895500  0.66080800  0.22799000  1
  C  403  1  0.91156000  0.65181600  0.24884700  1
  C  404  1  0.88082200  0.66063900  0.25204600  1
  C  405  1  0.86738100  0.67983600  0.23376600  1
  C  406  1  0.88507000  0.68913300  0.21302600  1
  C  408  1  0.86557000  0.65082900  0.27425200  1
  C  409  1  0.85964300  0.61960900  0.27983600  1
  C  410  1  0.84908900  0.61162600  0.30383800  1
  C  411  1  0.84410000  0.63352200  0.32271700  1
  C  412  1  0.84922600  0.66468700  0.31671000  1
  C  413  1  0.85972100  0.67283000  0.29277300  1
  C  429  1  0.93221300  0.68748200  0.18800200  1
  C  430  1  0.84002000  0.62438900  0.34744900  1
  C  433  1  0.34628600  0.91481100  0.81573700  1
  C  434  1  0.36883500  0.92652600  0.79932000  1
  C  435  1  0.37781300  0.90938200  0.77832800  1
  C  436  1  0.36578800  0.88015300  0.77317400  1
  C  437  1  0.34347000  0.86806000  0.78968500  1
  C  438  1  0.33413800  0.88558500  0.81051100  1
  C  440  1  0.37541200  0.86538800  0.75066200  1
  C  441  1  0.40626400  0.85714200  0.74564700  1
  C  442  1  0.41441600  0.84727600  0.72147600  1
  C  443  1  0.39301900  0.84506200  0.70189000  1
  C  444  1  0.36212600  0.85241000  0.70730500  1
  C  445  1  0.35386400  0.86239100  0.73135300  1
  C  461  1  0.33804700  0.93119600  0.83708600  1
  C  462  1  0.40273400  0.84115600  0.67727300  1
  C  465  1  0.68029000  0.10963300  0.81542200  1
  C  466  1  0.66112000  0.09648500  0.79699100  1
  C  467  1  0.65222000  0.11387200  0.77610600  1
  C  468  1  0.66109500  0.14459500  0.77291100  1
  C  469  1  0.68026200  0.15802800  0.79121600  1
  C  470  1  0.68946800  0.14034400  0.81198400  1
  C  472  1  0.65135500  0.15985000  0.75069300  1
  C  473  1  0.62015500  0.16583400  0.74507900  1
  C  474  1  0.61223200  0.17637900  0.72106200  1
  C  475  1  0.63417200  0.18130200  0.70220300  1
  C  476  1  0.66531800  0.17612300  0.70824500  1
  C  477  1  0.67340000  0.16563800  0.73219500  1
  C  493  1  0.68760500  0.09328000  0.83706700  1
  C  494  1  0.62508700  0.18534500  0.67746200  1
  C  497  1  0.13995100  0.18513800  0.03846700  1
  C  498  1  0.16262100  0.19011400  0.02015000  1
  C  499  1  0.17917900  0.16502500  0.01048700  1
  C  500  1  0.17318300  0.13473800  0.01800300  1
  C  501  1  0.15052800  0.12952000  0.03643000  1
  C  502  1  0.13456100  0.15483000  0.04639300  1
  C  504  1  0.18978600  0.11044300  0.00647000  1
  C  505  1  0.18322700  0.09963200  0.98217900  1
  C  506  1  0.19951400  0.07406700  0.97294300  1
  C  507  1  0.22187400  0.05851800  0.98706800  1
  C  508  1  0.22838500  0.06972700  0.01122000  1
  C  509  1  0.21262800  0.09557300  0.02039100  1
  C  525  1  0.11999500  0.20837000  0.04558200  1
  C  526  1  0.23339300  0.03030100  0.97915400  1
  C  529  1  0.88546000  0.84026400  0.03857300  1
  C  530  1  0.86274700  0.83525600  0.02029800  1
  C  531  1  0.84615000  0.86033000  0.01065900  1
  C  532  1  0.85215400  0.89061600  0.01816900  1
  C  533  1  0.87484900  0.89586800  0.03655200  1
  C  534  1  0.89085600  0.87057600  0.04649000  1
  C  536  1  0.83556600  0.91489600  0.00663300  1
  C  537  1  0.84223200  0.92574800  0.98237700  1
  C  538  1  0.82600900  0.95135500  0.97315200  1
  C  539  1  0.80363100  0.96689400  0.98726600  1
  C  540  1  0.79700700  0.95563600  0.01137600  1
  C  541  1  0.81269400  0.92974400  0.02053600  1
  C  557  1  0.90542100  0.81704700  0.04568800  1
  C  558  1  0.79221500  0.99514400  0.97936500  1
  C  561  1  0.18526300  0.88545100  0.98639100  1
  C  562  1  0.19024200  0.86275400  0.00468300  1
  C  563  1  0.16515600  0.84616800  0.01432000  1
  C  564  1  0.13487200  0.85216800  0.00680100  1
  C  565  1  0.12964900  0.87484900  0.98839600  1
  C  566  1  0.15495800  0.89084000  0.97845600  1
  C  568  1  0.11057500  0.83558000  0.01833600  1
  C  569  1  0.09976200  0.84218200  0.04261800  1
  C  570  1  0.07417200  0.82593600  0.05185300  1
  C  571  1  0.05860100  0.80358800  0.03773200  1
  C  572  1  0.06981800  0.79702700  0.01359400  1
  C  573  1  0.09569000  0.81273900  0.00442200  1
  C  589  1  0.20847700  0.90544100  0.97930000  1
  C  590  1  0.03037000  0.79212400  0.04565900  1
  C  593  1  0.84042200  0.13994400  0.98662800  1
  C  594  1  0.83539800  0.16261400  0.00493300  1
  C  595  1  0.86046000  0.17920300  0.01460400  1
  C  596  1  0.89075300  0.17323400  0.00709600  1
  C  597  1  0.89602100  0.15057600  0.98868300  1
  C  598  1  0.87074000  0.13457700  0.97871500  1
  C  600  1  0.91501700  0.18984800  0.01863600  1
  C  601  1  0.92587600  0.18321400  0.04289800  1
  C  602  1  0.95144900  0.19948500  0.05212900  1
  C  603  1  0.96695600  0.22188800  0.03801800  1
  C  604  1  0.95569700  0.22847400  0.01389800  1
  C  605  1  0.92984000  0.21273800  0.00473300  1
  C  621  1  0.81721800  0.11998500  0.97948200  1
  C  622  1  0.99519000  0.23335900  0.04591800  1
  C  625  1  0.64053900  0.33927600  0.53906300  1
  C  626  1  0.66343500  0.33443200  0.52090900  1
  C  627  1  0.68001800  0.35960400  0.51142100  1
  C  628  1  0.67380200  0.38984500  0.51892800  1
  C  629  1  0.65089500  0.39494600  0.53717100  1
  C  630  1  0.63492500  0.36954900  0.54698300  1
  C  632  1  0.69042800  0.41422200  0.50755400  1
  C  633  1  0.68414300  0.42498400  0.48320400  1
  C  634  1  0.70043700  0.45061600  0.47411000  1
  C  635  1  0.72253200  0.46626900  0.48843800  1
  C  636  1  0.72877400  0.45510800  0.51264300  1
  C  637  1  0.71300900  0.42920000  0.52168100  1
  C  653  1  0.62052400  0.31597700  0.54591600  1
  C  654  1  0.73410500  0.49446800  0.48056600  1
  C  657  1  0.38538400  0.68534500  0.53936800  1
  C  658  1  0.36245200  0.69017700  0.52124200  1
  C  659  1  0.34584600  0.66499500  0.51180500  1
  C  660  1  0.35208500  0.63477000  0.51933700  1
  C  661  1  0.37503100  0.62967800  0.53754300  1
  C  662  1  0.39101400  0.65508400  0.54731100  1
  C  664  1  0.33548100  0.61038100  0.50798500  1
  C  665  1  0.34182100  0.59959000  0.48365600  1
  C  666  1  0.32559100  0.57391000  0.47459500  1
  C  667  1  0.30352800  0.55823800  0.48894100  1
  C  668  1  0.29722500  0.56943100  0.51312600  1
  C  669  1  0.31292300  0.59539400  0.52213100  1
  C  685  1  0.40540600  0.70864700  0.54618500  1
  C  686  1  0.29200900  0.53002300  0.48107900  1
  C  689  1  0.68602700  0.63982300  0.48557700  1
  C  690  1  0.69088000  0.66279200  0.50366800  1
  C  691  1  0.66570800  0.67940200  0.51312300  1
  C  692  1  0.63546500  0.67313800  0.50564300  1
  C  693  1  0.63035700  0.65016000  0.48746400  1
  C  694  1  0.65575200  0.63416800  0.47768000  1
  C  696  1  0.61108800  0.68975100  0.51701800  1
  C  697  1  0.60038100  0.68348200  0.54138500  1
  C  698  1  0.57473100  0.69973700  0.55048000  1
  C  699  1  0.55900500  0.72176600  0.53614000  1
  C  700  1  0.57012000  0.72800300  0.51191800  1
  C  701  1  0.59604800  0.71227500  0.50287400  1
  C  717  1  0.70931500  0.61978300  0.47875900  1
  C  718  1  0.53082100  0.73332600  0.54405400  1
  C  721  1  0.33999200  0.38467200  0.48602700  1
  C  722  1  0.33515300  0.36182900  0.50422500  1
  C  723  1  0.36032200  0.34523700  0.51370000  1
  C  724  1  0.39055100  0.35140300  0.50613600  1
  C  725  1  0.39565000  0.37426200  0.48785800  1
  C  726  1  0.37025300  0.39023700  0.47805900  1
  C  728  1  0.41493200  0.33477200  0.51749000  1
  C  729  1  0.42578900  0.34113700  0.54179700  1
  C  730  1  0.45144400  0.32485400  0.55085400  1
  C  731  1  0.46702300  0.30270700  0.53652900  1
  C  732  1  0.45576500  0.29638800  0.51236600  1
  C  733  1  0.42983200  0.31213900  0.50336600  1
  C  749  1  0.31670600  0.40469700  0.47916800  1
  C  750  1  0.49523900  0.29114100  0.54435800  1
  C  753  1  0.14171500  0.30646000  0.55197300  1
  C  754  1  0.15548000  0.30618000  0.57582100  1
  C  755  1  0.16164000  0.33329900  0.58906000  1
  C  756  1  0.15378800  0.36188000  0.57840900  1
  C  757  1  0.13700400  0.36236300  0.55582800  1
  C  758  1  0.13219400  0.33514100  0.54187100  1
  C  761  1  0.13740100  0.27771600  0.53918900  1
  C  762  1  0.16219300  0.25868500  0.53140700  1
  C  763  1  0.15591800  0.23016400  0.51960400  1
  C  764  1  0.12530300  0.22060200  0.51523600  1
  C  765  1  0.10103600  0.24112400  0.52045900  1
  C  766  1  0.10722800  0.26841400  0.53335600  1
  C  783  1  0.02079500  0.71908900  0.55175300  1
  C  784  1  0.00756602  0.71913700  0.57578500  1
  C  785  1  0.00180302  0.69189700  0.58897800  1
  C  786  1  0.00959502  0.66340300  0.57811200  1
  C  787  1  0.02518700  0.66310400  0.55495600  1
  C  788  1  0.02963600  0.69049900  0.54112900  1
  C  791  1  0.02505900  0.74792900  0.53914500  1
  C  792  1  0.00025202  0.76699800  0.53150100  1
  C  793  1  0.00652602  0.79547400  0.51963500  1
  C  794  1  0.03712900  0.80497400  0.51511900  1
  C  795  1  0.06139500  0.78442100  0.52026500  1
  C  796  1  0.05521800  0.75712000  0.53314700  1
  C  813  1  0.37499900  0.95226500  0.36164900  1
  C  814  1  0.37473900  0.93848700  0.33780300  1
  C  815  1  0.40187200  0.93225900  0.32459800  1
  C  816  1  0.43044100  0.94009700  0.33527200  1
  C  817  1  0.43091300  0.95689500  0.35784500  1
  C  818  1  0.40367800  0.96175000  0.37177400  1
  C  821  1  0.34625000  0.95657500  0.37443300  1
  C  822  1  0.32722200  0.93176900  0.38218400  1
  C  823  1  0.29868900  0.93802400  0.39397500  1
  C  824  1  0.28911800  0.96862700  0.39837500  1
  C  825  1  0.30963500  0.99291400  0.39319000  1
  C  826  1  0.33693400  0.98673900  0.38029700  1
  C  843  1  0.78764100  0.07314000  0.36194900  1
  C  844  1  0.78771200  0.08636000  0.33791600  1
  C  845  1  0.76048600  0.09207000  0.32469400  1
  C  846  1  0.73198200  0.08425100  0.33553500  1
  C  847  1  0.73167200  0.06864400  0.35868600  1
  C  848  1  0.75905100  0.06423700  0.37253900  1
  C  851  1  0.81647200  0.06888600  0.37456600  1
  C  852  1  0.83553900  0.09368900  0.38222700  1
  C  853  1  0.86401700  0.08740900  0.39408800  1
  C  854  1  0.87352900  0.05680100  0.39856600  1
  C  855  1  0.85297500  0.03254300  0.39339500  1
  C  856  1  0.82568100  0.03872200  0.38051000  1
  C  873  1  0.64012200  0.21887400  0.05279130  1
  C  874  1  0.65168600  0.22025000  0.07733430  1
  C  875  1  0.65525000  0.19390500  0.09211830  1
  C  876  1  0.64492000  0.16526000  0.08300430  1
  C  877  1  0.63292000  0.16349200  0.05850430  1
  C  878  1  0.63139500  0.18982000  0.04299430  1
  C  881  1  0.63658700  0.24704600  0.03911530  1
  C  882  1  0.66162600  0.26603500  0.03187130  1
  C  883  1  0.65575200  0.29422400  0.01942130  1
  C  884  1  0.62527900  0.30366000  0.01423830  1
  C  885  1  0.60086900  0.28316100  0.01907330  1
  C  886  1  0.60665900  0.25599700  0.03224030  1
  C  903  1  0.52328400  0.80553100  0.05277230  1
  C  904  1  0.51214400  0.80448000  0.07745030  1
  C  905  1  0.50922300  0.83098700  0.09214430  1
  C  906  1  0.51996800  0.85937600  0.08279330  1
  C  907  1  0.53077800  0.86092300  0.05791930  1
  C  908  1  0.53159600  0.83446000  0.04253530  1
  C  911  1  0.52662700  0.77725600  0.03923930  1
  C  912  1  0.50151300  0.75831000  0.03212530  1
  C  913  1  0.50727800  0.73017600  0.01956830  1
  C  914  1  0.53769900  0.72074700  0.01417130  1
  C  915  1  0.56215900  0.74121100  0.01891830  1
  C  916  1  0.55648700  0.76835100  0.03214330  1
  C  933  1  0.87487200  0.57084500  0.86065800  1
  C  934  1  0.87351300  0.58243400  0.83612100  1
  C  935  1  0.89987200  0.58607800  0.82136500  1
  C  936  1  0.92851700  0.57576600  0.83049300  1
  C  937  1  0.93027100  0.56372500  0.85498000  1
  C  938  1  0.90392700  0.56214500  0.87047200  1
  C  941  1  0.84669300  0.56730500  0.87433200  1
  C  942  1  0.82769700  0.59235600  0.88153900  1
  C  943  1  0.79949500  0.58649800  0.89396700  1
  C  944  1  0.79005800  0.55603600  0.89919100  1
  C  945  1  0.81056400  0.53161400  0.89440500  1
  C  946  1  0.83774000  0.53738900  0.88124500  1
  C  963  1  0.28820700  0.45402500  0.86108200  1
  C  964  1  0.28927300  0.44292200  0.83639700  1
  C  965  1  0.26278000  0.44006900  0.82168100  1
  C  966  1  0.23439900  0.45086400  0.83101000  1
  C  967  1  0.23283900  0.46165300  0.85588900  1
  C  968  1  0.25928200  0.46239900  0.87129600  1
  C  971  1  0.31647600  0.45735900  0.87461900  1
  C  972  1  0.33541300  0.43224700  0.88176100  1
  C  973  1  0.36354900  0.43801900  0.89431700  1
  C  974  1  0.37300100  0.46844900  0.89966100  1
  C  975  1  0.35254300  0.49290600  0.89487800  1
  C  976  1  0.32540400  0.48722800  0.88166300  1
  C  993  1  0.09666200  0.43300900  0.55338800  1
  C  994  1  0.09651900  0.45349100  0.57375400  1
  C  995  1  0.09027300  0.48469200  0.56957600  1
  C  996  1  0.08410700  0.49608800  0.54564200  1
  C  997  1  0.08437500  0.47571900  0.52512800  1
  C  998  1  0.09078900  0.44443600  0.52938900  1
  C  1000  1  0.07663100  0.52764600  0.54364900  1
  C  1001  1  0.04604600  0.53829600  0.54514200  1
  C  1002  1  0.04078900  0.57012600  0.54652100  1
  C  1003  1  0.06488200  0.59165400  0.54690100  1
  C  1004  1  0.09529100  0.58077100  0.54506200  1
  C  1005  1  0.10073400  0.54901000  0.54329400  1
  C  1021  1  0.10202600  0.40218600  0.55727100  1
  C  1022  1  0.05893000  0.62194000  0.55318800  1
  C  1025  1  0.50156300  0.99718100  0.36032600  1
  C  1026  1  0.52202100  0.99729700  0.33994500  1
  C  1027  1  0.55323300  0.00351100  0.34409900  1
  C  1028  1  0.56466500  0.00967100  0.36802300  1
  C  1029  1  0.54431900  0.00942400  0.38855200  1
  C  1030  1  0.51302700  0.00304100  0.38431700  1
  C  1032  1  0.59622400  0.01715000  0.36998900  1
  C  1033  1  0.60686400  0.04773900  0.36851600  1
  C  1034  1  0.63869200  0.05300500  0.36712200  1
  C  1035  1  0.66022400  0.02892100  0.36670700  1
  C  1036  1  0.64935300  0.99850600  0.36852100  1
  C  1037  1  0.61759400  0.99305100  0.37030600  1
  C  1053  1  0.47071800  0.99187900  0.35648100  1
  C  1054  1  0.69049900  0.03489600  0.36040700  1
  C  1057  1  0.59189800  0.09367200  0.05084230  1
  C  1058  1  0.58379800  0.07493500  0.07123930  1
  C  1059  1  0.57881500  0.04344300  0.06738730  1
  C  1060  1  0.58127500  0.02999000  0.04369230  1
  C  1061  1  0.58971300  0.04862500  0.02320730  1
  C  1062  1  0.59500800  0.08018200  0.02720430  1
  C  1064  1  0.57523000  0.99801800  0.04184630  1
  C  1065  1  0.54570800  0.98557300  0.04608730  1
  C  1066  1  0.54244700  0.95350600  0.04768130  1
  C  1067  1  0.56743600  0.93322600  0.04515630  1
  C  1068  1  0.59664800  0.94586400  0.04025430  1
  C  1069  1  0.60013200  0.97793600  0.03866730  1
  C  1085  1  0.59669100  0.12470900  0.05425030  1
  C  1086  1  0.56395600  0.90230100  0.05092930  1
  C  1089  1  0.00010902  0.52277100  0.86267600  1
  C  1090  1  0.01889700  0.51478300  0.84228000  1
  C  1091  1  0.05038300  0.50979800  0.84616400  1
  C  1092  1  0.06378100  0.51214600  0.86988700  1
  C  1093  1  0.04509500  0.52047200  0.89037100  1
  C  1094  1  0.01354500  0.52577000  0.88634300  1
  C  1096  1  0.09574900  0.50609900  0.87176600  1
  C  1097  1  0.10821000  0.47659700  0.86746200  1
  C  1098  1  0.14028400  0.47334500  0.86593400  1
  C  1099  1  0.16055500  0.49832000  0.86858500  1
  C  1100  1  0.14789400  0.52751000  0.87354300  1
  C  1101  1  0.11581700  0.53098500  0.87506300  1
  C  1117  1  0.96906500  0.52753200  0.85925700  1
  C  1118  1  0.19151600  0.49488800  0.86291100  1
  C  1121  1  0.17898300  0.34600100  0.65364300  1
  C  1122  1  0.16724500  0.36847500  0.67011600  1
  C  1123  1  0.18438100  0.37738900  0.69113000  1
  C  1124  1  0.21362100  0.36537100  0.69624900  1
  C  1125  1  0.22573700  0.34312300  0.67968700  1
  C  1126  1  0.20822000  0.33385500  0.65884000  1
  C  1128  1  0.22838400  0.37493300  0.71877300  1
  C  1129  1  0.23662200  0.40577300  0.72384200  1
  C  1130  1  0.24648500  0.41386000  0.74802600  1
  C  1131  1  0.24869800  0.39240800  0.76757300  1
  C  1132  1  0.24135800  0.36152800  0.76210500  1
  C  1133  1  0.23138100  0.35333000  0.73804300  1
  C  1149  1  0.16262600  0.33783900  0.63226400  1
  C  1150  1  0.25260300  0.40205600  0.79220500  1
  C  1153  1  0.98421200  0.68001100  0.65389700  1
  C  1154  1  0.99736800  0.66080800  0.67230000  1
  C  1155  1  0.97997300  0.65181600  0.69315700  1
  C  1156  1  0.94923500  0.66063900  0.69635600  1
  C  1157  1  0.93579400  0.67983600  0.67807600  1
  C  1158  1  0.95348300  0.68913300  0.65733600  1
  C  1160  1  0.93398300  0.65082900  0.71856200  1
  C  1161  1  0.92805600  0.61960900  0.72414600  1
  C  1162  1  0.91750200  0.61162600  0.74814800  1
  C  1163  1  0.91251300  0.63352200  0.76702700  1
  C  1164  1  0.91763900  0.66468700  0.76102000  1
  C  1165  1  0.92813400  0.67283000  0.73708300  1
  C  1181  1  0.00062602  0.68748200  0.63231200  1
  C  1182  1  0.90843300  0.62438900  0.79175900  1
  C  1185  1  0.41469900  0.91481100  0.26004700  1
  C  1186  1  0.43724800  0.92652600  0.24363000  1
  C  1187  1  0.44622600  0.90938200  0.22263800  1
  C  1188  1  0.43420100  0.88015300  0.21748400  1
  C  1189  1  0.41188300  0.86806000  0.23399500  1
  C  1190  1  0.40255100  0.88558500  0.25482100  1
  C  1192  1  0.44382500  0.86538800  0.19497200  1
  C  1193  1  0.47467700  0.85714200  0.18995700  1
  C  1194  1  0.48282900  0.84727600  0.16578600  1
  C  1195  1  0.46143200  0.84506200  0.14620000  1
  C  1196  1  0.43053900  0.85241000  0.15161500  1
  C  1197  1  0.42227700  0.86239100  0.17566300  1
  C  1213  1  0.40646000  0.93119600  0.28139600  1
  C  1214  1  0.47114700  0.84115600  0.12158300  1
  C  1217  1  0.74870300  0.10963300  0.25973200  1
  C  1218  1  0.72953300  0.09648500  0.24130100  1
  C  1219  1  0.72063300  0.11387200  0.22041600  1
  C  1220  1  0.72950800  0.14459500  0.21722100  1
  C  1221  1  0.74867500  0.15802800  0.23552600  1
  C  1222  1  0.75788100  0.14034400  0.25629400  1
  C  1224  1  0.71976800  0.15985000  0.19500300  1
  C  1225  1  0.68856800  0.16583400  0.18938900  1
  C  1226  1  0.68064500  0.17637900  0.16537200  1
  C  1227  1  0.70258500  0.18130200  0.14651300  1
  C  1228  1  0.73373100  0.17612300  0.15255500  1
  C  1229  1  0.74181300  0.16563800  0.17650500  1
  C  1245  1  0.75601800  0.09328000  0.28137700  1
  C  1246  1  0.69350000  0.18534500  0.12177200  1
  C  1249  1  0.20836400  0.18513800  0.48277700  1
  C  1250  1  0.23103400  0.19011400  0.46446000  1
  C  1251  1  0.24759200  0.16502500  0.45479700  1
  C  1252  1  0.24159600  0.13473800  0.46231300  1
  C  1253  1  0.21894100  0.12952000  0.48074000  1
  C  1254  1  0.20297400  0.15483000  0.49070300  1
  C  1256  1  0.25819900  0.11044300  0.45078000  1
  C  1257  1  0.25164000  0.09963200  0.42648900  1
  C  1258  1  0.26792700  0.07406700  0.41725300  1
  C  1259  1  0.29028700  0.05851800  0.43137800  1
  C  1260  1  0.29679800  0.06972700  0.45553000  1
  C  1261  1  0.28104100  0.09557300  0.46470100  1
  C  1277  1  0.18840800  0.20837000  0.48989200  1
  C  1278  1  0.30180600  0.03030100  0.42346400  1
  C  1281  1  0.95387300  0.84026400  0.48288300  1
  C  1282  1  0.93116000  0.83525600  0.46460800  1
  C  1283  1  0.91456300  0.86033000  0.45496900  1
  C  1284  1  0.92056700  0.89061600  0.46247900  1
  C  1285  1  0.94326200  0.89586800  0.48086200  1
  C  1286  1  0.95926900  0.87057600  0.49080000  1
  C  1288  1  0.90397900  0.91489600  0.45094300  1
  C  1289  1  0.91064500  0.92574800  0.42668700  1
  C  1290  1  0.89442200  0.95135500  0.41746200  1
  C  1291  1  0.87204400  0.96689400  0.43157600  1
  C  1292  1  0.86542000  0.95563600  0.45568600  1
  C  1293  1  0.88110700  0.92974400  0.46484600  1
  C  1309  1  0.97383400  0.81704700  0.48999800  1
  C  1310  1  0.86062800  0.99514400  0.42367500  1
  C  1313  1  0.25367600  0.88545100  0.43070100  1
  C  1314  1  0.25865500  0.86275400  0.44899300  1
  C  1315  1  0.23356900  0.84616800  0.45863000  1
  C  1316  1  0.20328500  0.85216800  0.45111100  1
  C  1317  1  0.19806200  0.87484900  0.43270600  1
  C  1318  1  0.22337100  0.89084000  0.42276600  1
  C  1320  1  0.17898800  0.83558000  0.46264600  1
  C  1321  1  0.16817500  0.84218200  0.48692800  1
  C  1322  1  0.14258500  0.82593600  0.49616300  1
  C  1323  1  0.12701400  0.80358800  0.48204200  1
  C  1324  1  0.13823100  0.79702700  0.45790400  1
  C  1325  1  0.16410300  0.81273900  0.44873200  1
  C  1341  1  0.27689000  0.90544100  0.42361000  1
  C  1342  1  0.09878300  0.79212400  0.48996900  1
  C  1345  1  0.90883500  0.13994400  0.43093800  1
  C  1346  1  0.90381100  0.16261400  0.44924300  1
  C  1347  1  0.92887300  0.17920300  0.45891400  1
  C  1348  1  0.95916600  0.17323400  0.45140600  1
  C  1349  1  0.96443400  0.15057600  0.43299300  1
  C  1350  1  0.93915300  0.13457700  0.42302500  1
  C  1352  1  0.98343000  0.18984800  0.46294600  1
  C  1353  1  0.99428900  0.18321400  0.48720800  1
  C  1354  1  0.01986200  0.19948500  0.49643900  1
  C  1355  1  0.03536900  0.22188800  0.48232800  1
  C  1356  1  0.02411000  0.22847400  0.45820800  1
  C  1357  1  0.99825300  0.21273800  0.44904300  1
  C  1373  1  0.88563100  0.11998500  0.42379200  1
  C  1374  1  0.06360300  0.23335900  0.49022800  1
  C  1377  1  0.70895200  0.33927600  0.98337300  1
  C  1378  1  0.73184800  0.33443200  0.96521900  1
  C  1379  1  0.74843100  0.35960400  0.95573100  1
  C  1380  1  0.74221500  0.38984500  0.96323800  1
  C  1381  1  0.71930800  0.39494600  0.98148100  1
  C  1382  1  0.70333800  0.36954900  0.99129300  1
  C  1384  1  0.75884100  0.41422200  0.95186400  1
  C  1385  1  0.75255600  0.42498400  0.92751400  1
  C  1386  1  0.76885000  0.45061600  0.91842000  1
  C  1387  1  0.79094500  0.46626900  0.93274800  1
  C  1388  1  0.79718700  0.45510800  0.95695300  1
  C  1389  1  0.78142200  0.42920000  0.96599100  1
  C  1405  1  0.68893700  0.31597700  0.99022600  1
  C  1406  1  0.80251800  0.49446800  0.92487600  1
  C  1409  1  0.45379700  0.68534500  0.98367800  1
  C  1410  1  0.43086500  0.69017700  0.96555200  1
  C  1411  1  0.41425900  0.66499500  0.95611500  1
  C  1412  1  0.42049800  0.63477000  0.96364700  1
  C  1413  1  0.44344400  0.62967800  0.98185300  1
  C  1414  1  0.45942700  0.65508400  0.99162100  1
  C  1416  1  0.40389400  0.61038100  0.95229500  1
  C  1417  1  0.41023400  0.59959000  0.92796600  1
  C  1418  1  0.39400400  0.57391000  0.91890500  1
  C  1419  1  0.37194100  0.55823800  0.93325100  1
  C  1420  1  0.36563800  0.56943100  0.95743600  1
  C  1421  1  0.38133600  0.59539400  0.96644100  1
  C  1437  1  0.47381900  0.70864700  0.99049500  1
  C  1438  1  0.36042200  0.53002300  0.92538900  1
  C  1441  1  0.75444000  0.63982300  0.92988700  1
  C  1442  1  0.75929300  0.66279200  0.94797800  1
  C  1443  1  0.73412100  0.67940200  0.95743300  1
  C  1444  1  0.70387800  0.67313800  0.94995300  1
  C  1445  1  0.69877000  0.65016000  0.93177400  1
  C  1446  1  0.72416500  0.63416800  0.92199000  1
  C  1448  1  0.67950100  0.68975100  0.96132800  1
  C  1449  1  0.66879400  0.68348200  0.98569500  1
  C  1450  1  0.64314400  0.69973700  0.99479000  1
  C  1451  1  0.62741800  0.72176600  0.98045000  1
  C  1452  1  0.63853300  0.72800300  0.95622800  1
  C  1453  1  0.66446100  0.71227500  0.94718400  1
  C  1469  1  0.77772800  0.61978300  0.92306900  1
  C  1470  1  0.59923400  0.73332600  0.98836400  1
  C  1473  1  0.40840500  0.38467200  0.93033700  1
  C  1474  1  0.40356600  0.36182900  0.94853500  1
  C  1475  1  0.42873500  0.34523700  0.95801000  1
  C  1476  1  0.45896400  0.35140300  0.95044600  1
  C  1477  1  0.46406300  0.37426200  0.93216800  1
  C  1478  1  0.43866600  0.39023700  0.92236900  1
  C  1480  1  0.48334500  0.33477200  0.96180000  1
  C  1481  1  0.49420200  0.34113700  0.98610700  1
  C  1482  1  0.51985700  0.32485400  0.99516400  1
  C  1483  1  0.53543600  0.30270700  0.98083900  1
  C  1484  1  0.52417800  0.29638800  0.95667600  1
  C  1485  1  0.49824500  0.31213900  0.94767600  1
  C  1501  1  0.38511900  0.40469700  0.92347800  1
  C  1502  1  0.56365200  0.29114100  0.98866800  1
  N  8  1  0.09411800  0.38856300  0.14524600  1
  N  15  1  0.05059400  0.19213000  0.06189000  1
  N  17  1  0.05114800  0.33724900  0.07451200  1
  N  18  1  0.12333800  0.26769500  0.09020200  1
  N  27  1  0.00404900  0.23486600  0.06872900  1
  N  28  1  0.11002100  0.21149200  0.06791900  1
  N  29  1  0.05768500  0.38937500  0.10405400  1
  N  30  1  0.10724900  0.33299100  0.16686400  1
  N  38  1  0.93334700  0.63666700  0.14529500  1
  N  45  1  0.97498100  0.83341800  0.06170800  1
  N  47  1  0.97291000  0.68875000  0.07341400  1
  N  48  1  0.90228700  0.75807300  0.09049400  1
  N  57  1  0.02153900  0.79064700  0.06847800  1
  N  58  1  0.91558900  0.81413000  0.06798200  1
  N  59  1  0.96620800  0.63611500  0.10195100  1
  N  60  1  0.91939500  0.69219100  0.16680100  1
  N  68  1  0.38871800  0.93129000  0.87986600  1
  N  75  1  0.19221800  0.97488700  0.96308300  1
  N  77  1  0.33737400  0.97437000  0.95051600  1
  N  78  1  0.26782100  0.90221400  0.93473800  1
  N  87  1  0.23494200  0.02147900  0.95632900  1
  N  88  1  0.21159300  0.91549600  0.95699000  1
  N  89  1  0.38951400  0.96776800  0.92102000  1
  N  90  1  0.33318700  0.91819300  0.85818900  1
  N  98  1  0.63683600  0.09206800  0.87971900  1
  N  105  1  0.83355300  0.05051800  0.96337200  1
  N  107  1  0.68886900  0.05255500  0.95163300  1
  N  108  1  0.75818900  0.12323800  0.93463000  1
  N  117  1  0.79077000  0.00398600  0.95654800  1
  N  118  1  0.81424900  0.10992900  0.95715700  1
  N  119  1  0.63626600  0.05919300  0.92305100  1
  N  120  1  0.69240100  0.10607400  0.85825900  1
  N  128  1  0.57801400  0.13981400  0.65336200  1
  N  135  1  0.55084100  0.33204700  0.56059400  1
  N  137  1  0.55367500  0.18677700  0.57468200  1
  N  138  1  0.62260100  0.25727600  0.59188200  1
  N  147  1  0.50399800  0.28950500  0.56717500  1
  N  148  1  0.61008600  0.31283400  0.56811300  1
  N  149  1  0.55496400  0.13614800  0.60634600  1
  N  150  1  0.59885300  0.19588800  0.67065100  1
  N  158  1  0.45142800  0.88473000  0.65330400  1
  N  165  1  0.47520300  0.69239900  0.56041200  1
  N  167  1  0.47145400  0.83718600  0.57394300  1
  N  168  1  0.40376000  0.76706700  0.59235200  1
  N  177  1  0.52215100  0.73487200  0.56689700  1
  N  178  1  0.41605800  0.71162300  0.56832800  1
  N  179  1  0.46974600  0.88841100  0.60473200  1
  N  180  1  0.42852500  0.82937700  0.67063400  1
  N  188  1  0.88557000  0.57733000  0.37154500  1
  N  195  1  0.69324500  0.55004000  0.46419300  1
  N  197  1  0.83855400  0.55284300  0.45016400  1
  N  198  1  0.76804100  0.62174200  0.43287800  1
  N  207  1  0.73579300  0.50317100  0.45773200  1
  N  208  1  0.71245000  0.60924900  0.45659300  1
  N  209  1  0.88919800  0.55420700  0.41854000  1
  N  210  1  0.82948700  0.59813700  0.35422300  1
  N  218  1  0.14065300  0.45079800  0.37185200  1
  N  225  1  0.33293400  0.47438000  0.46480400  1
  N  227  1  0.18812800  0.47064500  0.45127100  1
  N  228  1  0.25822900  0.40290900  0.43293200  1
  N  237  1  0.29046600  0.52131800  0.45824700  1
  N  238  1  0.31366900  0.41521200  0.45698600  1
  N  239  1  0.13693600  0.46905500  0.42044100  1
  N  240  1  0.19599600  0.42782100  0.35456100  1
  N  257  1  0.95328200  0.51906100  0.10180800  1
  N  260  1  0.01014300  0.48522400  0.05731500  1
  N  263  1  0.03434900  0.44268200  0.15369400  1
  N  264  1  0.05146400  0.60175400  0.10131500  1
  N  289  1  0.51920900  0.07208700  0.92326400  1
  N  292  1  0.48544500  0.01523900  0.96773900  1
  N  295  1  0.44276200  0.99107600  0.87139200  1
  N  296  1  0.60192700  0.97392700  0.92361200  1
  N  321  1  0.45204600  0.00332200  0.60464100  1
  N  324  1  0.52386800  0.03737200  0.55551400  1
  N  327  1  0.51262800  0.08771900  0.65096100  1
  N  328  1  0.55374400  0.92629300  0.59321100  1
  N  353  1  0.02206000  0.45135900  0.42017300  1
  N  356  1  0.98787700  0.52292800  0.46947100  1
  N  359  1  0.93775300  0.51212600  0.37391300  1
  N  360  1  0.09904000  0.55300900  0.43209200  1
  N  385  1  0.16674200  0.42797600  0.26195200  1
  N  388  1  0.18558100  0.33088800  0.23852400  1
  N  391  1  0.07025700  0.38249000  0.22097200  1
  N  392  1  0.17468500  0.33916600  0.33671100  1
  N  417  1  0.86408800  0.59697200  0.26296300  1
  N  420  1  0.83777600  0.68898700  0.23517900  1
  N  423  1  0.95929100  0.65000500  0.22530400  1
  N  424  1  0.84483200  0.68741800  0.33503600  1
  N  449  1  0.42842000  0.85860600  0.76326600  1
  N  452  1  0.33122100  0.83981300  0.78650900  1
  N  455  1  0.38286200  0.95508400  0.80419000  1
  N  456  1  0.33981400  0.85067400  0.68834900  1
  N  481  1  0.59748200  0.16144500  0.76193100  1
  N  484  1  0.68945900  0.18761700  0.78980400  1
  N  487  1  0.65025200  0.06617300  0.79968100  1
  N  488  1  0.68808600  0.18045100  0.68993800  1
  N  513  1  0.16107600  0.11222000  0.96776700  1
  N  516  1  0.14280300  0.10104200  0.04430800  1
  N  519  1  0.16822100  0.22015600  0.01162600  1
  N  520  1  0.25001100  0.05449000  0.02632900  1
  N  545  1  0.86441400  0.91317000  0.96799100  1
  N  548  1  0.88257500  0.92435500  0.04441300  1
  N  551  1  0.85714400  0.80521200  0.01178100  1
  N  552  1  0.77534300  0.97086200  0.02645800  1
  N  577  1  0.11236700  0.86433000  0.05702300  1
  N  580  1  0.10117200  0.88257800  0.98051800  1
  N  583  1  0.22028100  0.85715300  0.01321600  1
  N  584  1  0.05456700  0.77539500  0.99850000  1
  N  609  1  0.91332700  0.16101200  0.05728200  1
  N  612  1  0.92451200  0.14288300  0.98081800  1
  N  615  1  0.80534400  0.16818400  0.01344500  1
  N  616  1  0.97089900  0.25014700  0.99880900  1
  N  641  1  0.66225400  0.41228900  0.46859000  1
  N  644  1  0.64292900  0.42338100  0.54499100  1
  N  647  1  0.66922000  0.30444000  0.51234700  1
  N  648  1  0.75015300  0.47044000  0.52792200  1
  N  673  1  0.36369300  0.61229800  0.46903200  1
  N  676  1  0.38302100  0.60125200  0.54536900  1
  N  679  1  0.35666000  0.72015100  0.51264500  1
  N  680  1  0.27586400  0.55408800  0.52841100  1
  N  705  1  0.61314200  0.66164900  0.55601700  1
  N  708  1  0.60191800  0.64214700  0.47968100  1
  N  711  1  0.72087200  0.66861600  0.51220800  1
  N  712  1  0.55473100  0.74933200  0.49663300  1
  N  737  1  0.41316900  0.36308400  0.55639700  1
  N  740  1  0.42407800  0.38218200  0.47999000  1
  N  743  1  0.30517400  0.35610600  0.51284700  1
  N  744  1  0.47102600  0.27495400  0.49709200  1
  N  760  1  0.16253100  0.38856300  0.58955600  1
  N  767  1  0.11900700  0.19213000  0.50620000  1
  N  769  1  0.11956100  0.33724900  0.51882200  1
  N  770  1  0.19175100  0.26769500  0.53451200  1
  N  779  1  0.07246200  0.23486600  0.51303900  1
  N  780  1  0.17843400  0.21149200  0.51222900  1
  N  781  1  0.12609800  0.38937500  0.54836400  1
  N  782  1  0.17566200  0.33299100  0.61117400  1
  N  790  1  0.00176002  0.63666700  0.58960500  1
  N  797  1  0.04339400  0.83341800  0.50601800  1
  N  799  1  0.04132300  0.68875000  0.51772400  1
  N  800  1  0.97070000  0.75807300  0.53480400  1
  N  809  1  0.08995200  0.79064700  0.51278800  1
  N  810  1  0.98400200  0.81413000  0.51229200  1
  N  811  1  0.03462100  0.63611500  0.54626100  1
  N  812  1  0.98780800  0.69219100  0.61111100  1
  N  820  1  0.45713100  0.93129000  0.32417600  1
  N  827  1  0.26063100  0.97488700  0.40739300  1
  N  829  1  0.40578700  0.97437000  0.39482600  1
  N  830  1  0.33623400  0.90221400  0.37904800  1
  N  839  1  0.30335500  0.02147900  0.40063900  1
  N  840  1  0.28000600  0.91549600  0.40130000  1
  N  841  1  0.45792700  0.96776800  0.36533000  1
  N  842  1  0.40160000  0.91819300  0.30249900  1
  N  850  1  0.70524900  0.09206800  0.32402900  1
  N  857  1  0.90196600  0.05051800  0.40768200  1
  N  859  1  0.75728200  0.05255500  0.39594300  1
  N  860  1  0.82660200  0.12323800  0.37894000  1
  N  869  1  0.85918300  0.00398600  0.40085800  1
  N  870  1  0.88266200  0.10992900  0.40146700  1
  N  871  1  0.70467900  0.05919300  0.36736100  1
  N  872  1  0.76081400  0.10607400  0.30256900  1
  N  880  1  0.64642700  0.13981400  0.09767230  1
  N  887  1  0.61925400  0.33204700  0.00490433  1
  N  889  1  0.62208800  0.18677700  0.01899230  1
  N  890  1  0.69101400  0.25727600  0.03619230  1
  N  899  1  0.57241100  0.28950500  0.01148530  1
  N  900  1  0.67849900  0.31283400  0.01242330  1
  N  901  1  0.62337700  0.13614800  0.05065630  1
  N  902  1  0.66726600  0.19588800  0.11496100  1
  N  910  1  0.51984100  0.88473000  0.09761430  1
  N  917  1  0.54361600  0.69239900  0.00472233  1
  N  919  1  0.53986700  0.83718600  0.01825330  1
  N  920  1  0.47217300  0.76706700  0.03666230  1
  N  929  1  0.59056400  0.73487200  0.01120730  1
  N  930  1  0.48447100  0.71162300  0.01263830  1
  N  931  1  0.53815900  0.88841100  0.04904230  1
  N  932  1  0.49693800  0.82937700  0.11494400  1
  N  940  1  0.95398300  0.57733000  0.81585500  1
  N  947  1  0.76165800  0.55004000  0.90850300  1
  N  949  1  0.90696700  0.55284300  0.89447400  1
  N  950  1  0.83645400  0.62174200  0.87718800  1
  N  959  1  0.80420600  0.50317100  0.90204200  1
  N  960  1  0.78086300  0.60924900  0.90090300  1
  N  961  1  0.95761100  0.55420700  0.86285000  1
  N  962  1  0.89790000  0.59813700  0.79853300  1
  N  970  1  0.20906600  0.45079800  0.81616200  1
  N  977  1  0.40134700  0.47438000  0.90911400  1
  N  979  1  0.25654100  0.47064500  0.89558100  1
  N  980  1  0.32664200  0.40290900  0.87724200  1
  N  989  1  0.35887900  0.52131800  0.90255700  1
  N  990  1  0.38208200  0.41521200  0.90129600  1
  N  991  1  0.20534900  0.46905500  0.86475100  1
  N  992  1  0.26440900  0.42782100  0.79887100  1
  N  1009  1  0.02169500  0.51906100  0.54611800  1
  N  1012  1  0.07855600  0.48522400  0.50162500  1
  N  1015  1  0.10276200  0.44268200  0.59800400  1
  N  1016  1  0.11987700  0.60175400  0.54562500  1
  N  1041  1  0.58762200  0.07208700  0.36757400  1
  N  1044  1  0.55385800  0.01523900  0.41204900  1
  N  1047  1  0.51117500  0.99107600  0.31570200  1
  N  1048  1  0.67034000  0.97392700  0.36792200  1
  N  1073  1  0.52045900  0.00332200  0.04895130  1
  N  1076  1  0.59228100  0.03737200  0.99982400  1
  N  1079  1  0.58104100  0.08771900  0.09527130  1
  N  1080  1  0.62215700  0.92629300  0.03752130  1
  N  1105  1  0.09047300  0.45135900  0.86448300  1
  N  1108  1  0.05629000  0.52292800  0.91378100  1
  N  1111  1  0.00616602  0.51212600  0.81822300  1
  N  1112  1  0.16745300  0.55300900  0.87640200  1
  N  1137  1  0.23515500  0.42797600  0.70626200  1
  N  1140  1  0.25399400  0.33088800  0.68283400  1
  N  1143  1  0.13867000  0.38249000  0.66528200  1
  N  1144  1  0.24309800  0.33916600  0.78102100  1
  N  1169  1  0.93250100  0.59697200  0.70727300  1
  N  1172  1  0.90618900  0.68898700  0.67948900  1
  N  1175  1  0.02770400  0.65000500  0.66961400  1
  N  1176  1  0.91324500  0.68741800  0.77934600  1
  N  1201  1  0.49683300  0.85860600  0.20757600  1
  N  1204  1  0.39963400  0.83981300  0.23081900  1
  N  1207  1  0.45127500  0.95508400  0.24850000  1
  N  1208  1  0.40822700  0.85067400  0.13265900  1
  N  1233  1  0.66589500  0.16144500  0.20624100  1
  N  1236  1  0.75787200  0.18761700  0.23411400  1
  N  1239  1  0.71866500  0.06617300  0.24399100  1
  N  1240  1  0.75649900  0.18045100  0.13424800  1
  N  1265  1  0.22948900  0.11222000  0.41207700  1
  N  1268  1  0.21121600  0.10104200  0.48861800  1
  N  1271  1  0.23663400  0.22015600  0.45593600  1
  N  1272  1  0.31842400  0.05449000  0.47063900  1
  N  1297  1  0.93282700  0.91317000  0.41230100  1
  N  1300  1  0.95098800  0.92435500  0.48872300  1
  N  1303  1  0.92555700  0.80521200  0.45609100  1
  N  1304  1  0.84375600  0.97086200  0.47076800  1
  N  1329  1  0.18078000  0.86433000  0.50133300  1
  N  1332  1  0.16958500  0.88257800  0.42482800  1
  N  1335  1  0.28869400  0.85715300  0.45752600  1
  N  1336  1  0.12298000  0.77539500  0.44281000  1
  N  1361  1  0.98174000  0.16101200  0.50159200  1
  N  1364  1  0.99292500  0.14288300  0.42512800  1
  N  1367  1  0.87375700  0.16818400  0.45775500  1
  N  1368  1  0.03931200  0.25014700  0.44311900  1
  N  1393  1  0.73066700  0.41228900  0.91290000  1
  N  1396  1  0.71134200  0.42338100  0.98930100  1
  N  1399  1  0.73763300  0.30444000  0.95665700  1
  N  1400  1  0.81856600  0.47044000  0.97223200  1
  N  1425  1  0.43210600  0.61229800  0.91334200  1
  N  1428  1  0.45143400  0.60125200  0.98967900  1
  N  1431  1  0.42507300  0.72015100  0.95695500  1
  N  1432  1  0.34427700  0.55408800  0.97272100  1
  N  1457  1  0.68155500  0.66164900  0.00032733  1
  N  1460  1  0.67033100  0.64214700  0.92399100  1
  N  1463  1  0.78928500  0.66861600  0.95651800  1
  N  1464  1  0.62314400  0.74933200  0.94094300  1
  N  1489  1  0.48158200  0.36308400  0.00070733  1
  N  1492  1  0.49249100  0.38218200  0.92430000  1
  N  1495  1  0.37358700  0.35610600  0.95715700  1
  N  1496  1  0.53943900  0.27495400  0.94140200  1
  O  265  1  0.06870900  0.59709300  0.11951200  1
  O  266  1  0.05750400  0.45532000  0.16280300  1
  O  267  1  0.06701400  0.60042900  0.08180700  1
  O  268  1  0.01216300  0.44694000  0.16800700  1
  O  297  1  0.59725200  0.95670500  0.90540200  1
  O  298  1  0.45538000  0.96792300  0.86226000  1
  O  299  1  0.60062700  0.95834700  0.94310600  1
  O  300  1  0.44701500  0.01326900  0.85708500  1
  O  329  1  0.57368400  0.93134000  0.60941600  1
  O  330  1  0.53101000  0.07576300  0.66595400  1
  O  331  1  0.56569800  0.92906000  0.57218800  1
  O  332  1  0.48606100  0.08470200  0.65932900  1
  O  361  1  0.09405100  0.57302300  0.41593700  1
  O  362  1  0.94973600  0.53057500  0.35899000  1
  O  363  1  0.09619400  0.56486500  0.45314500  1
  O  364  1  0.94079700  0.48559500  0.36547700  1
  O  393  1  0.14910900  0.32735200  0.34101700  1
  O  394  1  0.07293800  0.41070400  0.21745700  1
  O  395  1  0.19326000  0.31840800  0.33125500  1
  O  396  1  0.05151800  0.37807300  0.23820900  1
  O  425  1  0.86919600  0.70132000  0.33983600  1
  O  426  1  0.96027000  0.62141300  0.22375800  1
  O  427  1  0.82500400  0.70648700  0.32852700  1
  O  428  1  0.97608000  0.65846600  0.24286700  1
  O  457  1  0.32801500  0.87625200  0.68402100  1
  O  458  1  0.41106200  0.95237500  0.80777800  1
  O  459  1  0.31903700  0.83210200  0.69377000  1
  O  460  1  0.37853100  0.97382900  0.78694400  1
  O  489  1  0.70194500  0.15605300  0.68517100  1
  O  490  1  0.62165300  0.06525100  0.80117800  1
  O  491  1  0.70718500  0.20024700  0.69645100  1
  O  492  1  0.65872300  0.04934500  0.78214700  1
  O  521  1  0.27162500  0.07177000  0.03237300  1
  O  522  1  0.16314000  0.22256400  0.98881000  1
  O  523  1  0.23791100  0.04406100  0.04566000  1
  O  524  1  0.19523200  0.22818000  0.01585000  1
  O  553  1  0.75368800  0.95359300  0.03241900  1
  O  554  1  0.86217700  0.80280600  0.98896000  1
  O  555  1  0.78738500  0.98122000  0.04583800  1
  O  556  1  0.83014600  0.79716900  0.01604300  1
  O  585  1  0.07182600  0.75375400  0.99248500  1
  O  586  1  0.22267000  0.86220400  0.03603700  1
  O  587  1  0.04416600  0.78747900  0.97915200  1
  O  588  1  0.22832100  0.83015300  0.00897300  1
  O  617  1  0.95359900  0.27177100  0.99282800  1
  O  618  1  0.80292400  0.16310600  0.03625900  1
  O  619  1  0.98128800  0.23810200  0.97943900  1
  O  620  1  0.79728900  0.19518500  0.00921400  1
  O  649  1  0.77176000  0.45325000  0.53414600  1
  O  650  1  0.66438100  0.30210900  0.48949300  1
  O  651  1  0.73777000  0.48083100  0.54714800  1
  O  652  1  0.69621200  0.29648600  0.51673300  1
  O  681  1  0.25421600  0.57124800  0.53459800  1
  O  682  1  0.36146000  0.72243200  0.48978000  1
  O  683  1  0.28824700  0.54376700  0.54766000  1
  O  684  1  0.32967500  0.72812200  0.51704600  1
  O  713  1  0.57187100  0.77096200  0.49037600  1
  O  714  1  0.72321200  0.66386400  0.53507500  1
  O  715  1  0.54433500  0.73690600  0.47742800  1
  O  716  1  0.72881500  0.69559600  0.50775600  1
  O  745  1  0.45379700  0.25334000  0.49095500  1
  O  746  1  0.30290800  0.36100600  0.53569900  1
  O  747  1  0.48134700  0.28727300  0.47781500  1
  O  748  1  0.29717200  0.32911200  0.50852200  1
  O  1017  1  0.13712200  0.59709300  0.56382200  1
  O  1018  1  0.12591700  0.45532000  0.60711300  1
  O  1019  1  0.13542700  0.60042900  0.52611700  1
  O  1020  1  0.08057600  0.44694000  0.61231700  1
  O  1049  1  0.66566500  0.95670500  0.34971200  1
  O  1050  1  0.52379300  0.96792300  0.30657000  1
  O  1051  1  0.66904000  0.95834700  0.38741600  1
  O  1052  1  0.51542800  0.01326900  0.30139500  1
  O  1081  1  0.64209700  0.93134000  0.05372630  1
  O  1082  1  0.59942300  0.07576300  0.11026400  1
  O  1083  1  0.63411100  0.92906000  0.01649830  1
  O  1084  1  0.55447400  0.08470200  0.10363900  1
  O  1113  1  0.16246400  0.57302300  0.86024700  1
  O  1114  1  0.01814900  0.53057500  0.80330000  1
  O  1115  1  0.16460700  0.56486500  0.89745500  1
  O  1116  1  0.00921002  0.48559500  0.80978700  1
  O  1145  1  0.21752200  0.32735200  0.78532700  1
  O  1146  1  0.14135100  0.41070400  0.66176700  1
  O  1147  1  0.26167300  0.31840800  0.77556500  1
  O  1148  1  0.11993100  0.37807300  0.68251900  1
  O  1177  1  0.93760900  0.70132000  0.78414600  1
  O  1178  1  0.02868300  0.62141300  0.66806800  1
  O  1179  1  0.89341700  0.70648700  0.77283700  1
  O  1180  1  0.04449300  0.65846600  0.68717700  1
  O  1209  1  0.39642800  0.87625200  0.12833100  1
  O  1210  1  0.47947500  0.95237500  0.25208800  1
  O  1211  1  0.38745000  0.83210200  0.13808000  1
  O  1212  1  0.44694400  0.97382900  0.23125400  1
  O  1241  1  0.77035800  0.15605300  0.12948100  1
  O  1242  1  0.69006600  0.06525100  0.24548800  1
  O  1243  1  0.77559800  0.20024700  0.14076100  1
  O  1244  1  0.72713600  0.04934500  0.22645700  1
  O  1273  1  0.34003800  0.07177000  0.47668300  1
  O  1274  1  0.23155300  0.22256400  0.43312000  1
  O  1275  1  0.30632400  0.04406100  0.48997000  1
  O  1276  1  0.26364500  0.22818000  0.46016000  1
  O  1305  1  0.82210100  0.95359300  0.47672900  1
  O  1306  1  0.93059000  0.80280600  0.43327000  1
  O  1307  1  0.85579800  0.98122000  0.49014800  1
  O  1308  1  0.89855900  0.79716900  0.46035300  1
  O  1337  1  0.14023900  0.75375400  0.43679500  1
  O  1338  1  0.29108300  0.86220400  0.48034700  1
  O  1339  1  0.11257900  0.78747900  0.42346200  1
  O  1340  1  0.29673400  0.83015300  0.45328300  1
  O  1369  1  0.02201200  0.27177100  0.43713800  1
  O  1370  1  0.87133700  0.16310600  0.48056900  1
  O  1371  1  0.04970100  0.23810200  0.42374900  1
  O  1372  1  0.86570200  0.19518500  0.45352400  1
  O  1401  1  0.84017300  0.45325000  0.97845600  1
  O  1402  1  0.73279400  0.30210900  0.93380300  1
  O  1403  1  0.80618300  0.48083100  0.99145800  1
  O  1404  1  0.76462500  0.29648600  0.96104300  1
  O  1433  1  0.32262900  0.57124800  0.97890800  1
  O  1434  1  0.42987300  0.72243200  0.93409000  1
  O  1435  1  0.35666000  0.54376700  0.99197000  1
  O  1436  1  0.39808800  0.72812200  0.96135600  1
  O  1465  1  0.64028400  0.77096200  0.93468600  1
  O  1466  1  0.79162500  0.66386400  0.97938500  1
  O  1467  1  0.61274800  0.73690600  0.92173800  1
  O  1468  1  0.79722800  0.69559600  0.95206600  1
  O  1497  1  0.52221000  0.25334000  0.93526500  1
  O  1498  1  0.37132100  0.36100600  0.98000900  1
  O  1499  1  0.54976000  0.28727300  0.92212500  1
  O  1500  1  0.36558500  0.32911200  0.95283200  1
