# generated using pymatgen
data_H32C49(N3O2)4
_symmetry_space_group_name_H-M   'P 1'
_cell_length_a   38.86030000
_cell_length_b   53.35500000
_cell_length_c   53.35500000
_cell_angle_alpha   90.00000000
_cell_angle_beta   90.00000000
_cell_angle_gamma   90.00000000
_symmetry_Int_Tables_number   1
_chemical_formula_structural   H32C49(N3O2)4
_chemical_formula_sum   'H256 C392 N96 O64'
_cell_volume   110625.79315831
_cell_formula_units_Z   8
loop_
 _symmetry_equiv_pos_site_id
 _symmetry_equiv_pos_as_xyz
  1  'x, y, z'
loop_
 _atom_site_type_symbol
 _atom_site_label
 _atom_site_symmetry_multiplicity
 _atom_site_fract_x
 _atom_site_fract_y
 _atom_site_fract_z
 _atom_site_occupancy
  H  25  1  0.22446600  0.17859900  0.08581200  1
  H  26  1  0.23571300  0.14604800  0.11601400  1
  H  27  1  0.23580600  0.11301500  0.14882400  1
  H  28  1  0.22440200  0.08347400  0.18202500  1
  H  29  1  0.11763700  0.08927200  0.16827900  1
  H  30  1  0.11769800  0.16443200  0.09089700  1
  H  31  1  0.13280300  0.16342800  0.16790600  1
  H  32  1  0.02640400  0.16917700  0.18311000  1
  H  33  1  0.01420800  0.13934000  0.15035600  1
  H  34  1  0.13066800  0.08802100  0.09061100  1
  H  35  1  0.01341600  0.10629300  0.11765300  1
  H  36  1  0.02374600  0.07391500  0.08712900  1
  H  39  1  0.14643600  0.07391300  0.21034400  1
  H  41  1  0.10101100  0.04706900  0.07230800  1
  H  43  1  0.10462300  0.17884800  0.21044900  1
  H  45  1  0.14744900  0.20603500  0.07350200  1
  H  70  1  0.72530100  0.58352000  0.17878900  1
  H  71  1  0.73603400  0.61130200  0.14430500  1
  H  72  1  0.73599300  0.63751700  0.10626300  1
  H  73  1  0.72523400  0.66550600  0.07190700  1
  H  74  1  0.61817400  0.66091800  0.08518300  1
  H  75  1  0.61807100  0.58987000  0.16699600  1
  H  76  1  0.63141800  0.58345000  0.09157800  1
  H  77  1  0.52427000  0.57104900  0.08577800  1
  H  78  1  0.51342400  0.60650500  0.11262400  1
  H  79  1  0.63188200  0.66666667  0.16060600  1
  H  80  1  0.51376600  0.64574100  0.13771500  1
  H  81  1  0.52505300  0.68101600  0.16464300  1
  H  84  1  0.64577200  0.68101400  0.04570000  1
  H  86  1  0.60238400  0.70877300  0.17664000  1
  H  88  1  0.60040200  0.54146200  0.07584900  1
  H  90  1  0.64503900  0.56875500  0.20544500  1
  H  115  1  0.52504200  0.07468200  0.58665000  1
  H  116  1  0.51576300  0.10580300  0.61863600  1
  H  117  1  0.51774500  0.13785800  0.65235100  1
  H  118  1  0.53115200  0.16657100  0.68584000  1
  H  119  1  0.63697400  0.16145000  0.66832000  1
  H  120  1  0.63187100  0.08943800  0.58800500  1
  H  121  1  0.62252500  0.08506300  0.66380800  1
  H  122  1  0.72989900  0.07320300  0.66779300  1
  H  123  1  0.73939800  0.10760100  0.63928000  1
  H  124  1  0.61839200  0.16614800  0.59242100  1
  H  125  1  0.73767600  0.14518500  0.61169000  1
  H  126  1  0.72495400  0.17947700  0.58380100  1
  H  129  1  0.61059300  0.17603500  0.71166500  1
  H  131  1  0.64765100  0.20810000  0.57542100  1
  H  133  1  0.65521900  0.04292000  0.67845700  1
  H  135  1  0.60189200  0.04877300  0.56949700  1
  H  160  1  0.02812700  0.67910400  0.66792800  1
  H  161  1  0.01588500  0.64468900  0.64010500  1
  H  162  1  0.01461200  0.60700000  0.61268100  1
  H  163  1  0.02456700  0.57269200  0.58414600  1
  H  164  1  0.13185500  0.58473800  0.58883000  1
  H  165  1  0.13483400  0.66578600  0.66030200  1
  H  166  1  0.11678200  0.66082300  0.58423800  1
  H  167  1  0.22264900  0.66639500  0.56703000  1
  H  168  1  0.23611700  0.63788000  0.60069200  1
  H  169  1  0.12198800  0.58888000  0.66461600  1
  H  170  1  0.23819300  0.60606700  0.63464900  1
  H  171  1  0.22900000  0.57493000  0.66666667  1
  H  174  1  0.09972300  0.54272900  0.57355800  1
  H  176  1  0.15216600  0.54844000  0.68326700  1
  H  178  1  0.14308800  0.67544700  0.54101400  1
  H  180  1  0.10542800  0.70767500  0.67712500  1
  H  205  1  0.27314300  0.82221200  0.41696400  1
  H  206  1  0.26249700  0.85745500  0.38976300  1
  H  207  1  0.26299600  0.89575300  0.36312600  1
  H  208  1  0.27460400  0.93062900  0.33566100  1
  H  209  1  0.38149200  0.91754800  0.34227000  1
  H  210  1  0.38029800  0.83459500  0.41151200  1
  H  211  1  0.36726400  0.91263000  0.41726900  1
  H  212  1  0.47420900  0.91664300  0.43124400  1
  H  213  1  0.48504300  0.88818500  0.39727700  1
  H  214  1  0.36736700  0.84102700  0.33592900  1
  H  215  1  0.48526700  0.86189300  0.35932000  1
  H  216  1  0.47466700  0.83424000  0.32476400  1
  H  219  1  0.35084400  0.95995300  0.32679000  1
  H  221  1  0.39402700  0.81971500  0.29790100  1
  H  223  1  0.39512600  0.93283500  0.45697700  1
  H  225  1  0.34871800  0.79211300  0.42587400  1
  H  250  1  0.78246200  0.92184000  0.82006400  1
  H  251  1  0.76810300  0.89103400  0.85137100  1
  H  252  1  0.76493500  0.85666200  0.88271000  1
  H  253  1  0.77320600  0.82310200  0.91234700  1
  H  254  1  0.88058800  0.83554300  0.91126800  1
  H  255  1  0.88810000  0.91348700  0.83693000  1
  H  256  1  0.87039200  0.84148200  0.83193700  1
  H  257  1  0.97720100  0.82876400  0.82441200  1
  H  258  1  0.98818900  0.85514900  0.86025900  1
  H  259  1  0.87101000  0.91294000  0.91280900  1
  H  260  1  0.98784100  0.88318600  0.89754700  1
  H  261  1  0.97719300  0.91348900  0.93002000  1
  H  264  1  0.84865600  0.79446900  0.92774800  1
  H  266  1  0.89811000  0.93249700  0.95329400  1
  H  268  1  0.90127000  0.82616800  0.79111600  1
  H  270  1  0.86351100  0.93163500  0.79529400  1
  H  295  1  0.97577800  0.32323700  0.33545700  1
  H  296  1  0.98666500  0.35559400  0.36596600  1
  H  297  1  0.98634900  0.38838500  0.39913200  1
  H  298  1  0.97453200  0.41788800  0.43230400  1
  H  299  1  0.86787800  0.41152700  0.41835800  1
  H  300  1  0.86882800  0.33656300  0.34086200  1
  H  301  1  0.88146000  0.41291900  0.34095200  1
  H  302  1  0.77465200  0.42756600  0.33798300  1
  H  303  1  0.76421000  0.39493000  0.36820500  1
  H  304  1  0.88361400  0.33752000  0.41808100  1
  H  305  1  0.76497600  0.36161200  0.40069200  1
  H  306  1  0.77727200  0.33189400  0.43354300  1
  H  309  1  0.89643700  0.42701700  0.46046700  1
  H  311  1  0.85610500  0.32215700  0.46051400  1
  H  313  1  0.85198600  0.45416200  0.32316600  1
  H  315  1  0.89928100  0.29518500  0.32326700  1
  H  340  1  0.47259600  0.41995700  0.92683200  1
  H  341  1  0.48485700  0.38731700  0.89736900  1
  H  342  1  0.48644800  0.35272000  0.86665900  1
  H  343  1  0.47685400  0.31931400  0.83705200  1
  H  344  1  0.36977900  0.33296800  0.83939300  1
  H  345  1  0.36615300  0.41321300  0.91185300  1
  H  346  1  0.38161800  0.33964200  0.91900500  1
  H  347  1  0.27468100  0.32821900  0.92756300  1
  H  348  1  0.26368800  0.35423300  0.89145000  1
  H  349  1  0.38112400  0.41066300  0.83782000  1
  H  350  1  0.26398700  0.38204900  0.85399500  1
  H  351  1  0.27468400  0.41239200  0.82154600  1
  H  354  1  0.40127900  0.29096400  0.82361200  1
  H  356  1  0.35330200  0.43071300  0.79752400  1
  H  358  1  0.35028800  0.32570100  0.96055100  1
  H  360  1  0.38873600  0.43958000  0.94660100  1
  H  367  1  0.90906400  0.00473100  0.95916600  1
  H  374  1  0.09871200  0.03468300  0.00284300  1
  H  375  1  0.01268000  0.05979900  0.04349400  1
  H  376  1  0.98994600  0.95330300  0.94951500  1
  H  384  1  0.07247200  0.08582100  0.03834000  1
  H  385  1  0.10870600  0.06652200  0.03422700  1
  H  387  1  0.93687400  0.96232400  0.91587700  1
  H  388  1  0.89844700  0.96976800  0.93154700  1
  H  395  1  0.40836600  0.74654700  0.29002200  1
  H  402  1  0.60040500  0.72393400  0.24633500  1
  H  403  1  0.51625200  0.69243400  0.20812100  1
  H  404  1  0.48616200  0.80054500  0.29901800  1
  H  412  1  0.57936000  0.67046200  0.21289500  1
  H  413  1  0.61306800  0.69228600  0.21541000  1
  H  415  1  0.43347900  0.78849000  0.33333333  1
  H  416  1  0.39550900  0.78150900  0.31700300  1
  H  423  1  0.83238200  0.23839800  0.44969200  1
  H  430  1  0.64977100  0.22997100  0.51034200  1
  H  431  1  0.73029300  0.18475100  0.53744500  1
  H  432  1  0.78169000  0.30400000  0.47342100  1
  H  440  1  0.66486400  0.17025800  0.53733500  1
  H  441  1  0.63421300  0.19441700  0.53622500  1
  H  443  1  0.83463600  0.28369400  0.42495900  1
  H  444  1  0.86375100  0.28150100  0.45015100  1
  H  451  1  0.34537100  0.50298600  0.79274300  1
  H  458  1  0.15544700  0.53734200  0.75272000  1
  H  459  1  0.24114100  0.56013500  0.71034400  1
  H  460  1  0.26256100  0.45361800  0.80432800  1
  H  468  1  0.18259400  0.58748400  0.71612600  1
  H  469  1  0.14574000  0.56897600  0.72102100  1
  H  471  1  0.31766900  0.46072200  0.83643700  1
  H  472  1  0.35563000  0.46758300  0.81990400  1
  H  479  1  0.58839500  0.26011100  0.70104800  1
  H  486  1  0.40452600  0.27207200  0.75793800  1
  H  487  1  0.48597900  0.31347200  0.78937100  1
  H  488  1  0.53549800  0.19516800  0.72403900  1
  H  496  1  0.42150200  0.33017000  0.78749300  1
  H  497  1  0.38955700  0.30699700  0.78489400  1
  H  499  1  0.59022200  0.21472800  0.67631500  1
  H  500  1  0.61865700  0.21666900  0.70192300  1
  H  507  1  0.16610700  0.75955200  0.55164800  1
  H  514  1  0.34865400  0.76988700  0.49141000  1
  H  515  1  0.26722700  0.81394600  0.46381000  1
  H  516  1  0.21758400  0.69437000  0.52766900  1
  H  524  1  0.33270500  0.82934500  0.46496900  1
  H  525  1  0.36354300  0.80525200  0.46506400  1
  H  527  1  0.16378900  0.71431700  0.57607700  1
  H  528  1  0.13519500  0.71617500  0.55055800  1
  H  535  1  0.65713600  0.49564400  0.21246000  1
  H  542  1  0.84834200  0.46759100  0.25391100  1
  H  543  1  0.76362500  0.44004500  0.29446000  1
  H  544  1  0.73681900  0.54809500  0.20304800  1
  H  552  1  0.82438400  0.41542300  0.28887800  1
  H  553  1  0.85979800  0.43552600  0.28479800  1
  H  555  1  0.68336100  0.53756900  0.16919100  1
  H  556  1  0.64531400  0.53082200  0.18555700  1
  H  563  1  0.40449000  0.00567800  0.46301400  1
  H  570  1  0.59670200  0.03715800  0.50028900  1
  H  571  1  0.51252800  0.06246800  0.54285100  1
  H  572  1  0.48605900  0.95562700  0.44990000  1
  H  580  1  0.57222700  0.08820900  0.53686100  1
  H  581  1  0.60815300  0.06885200  0.53161800  1
  H  583  1  0.42979400  0.96392300  0.41860700  1
  H  584  1  0.39260900  0.97040600  0.43614700  1
  H  591  1  0.91716300  0.74088500  0.79858900  1
  H  598  1  0.10290600  0.72875500  0.74302300  1
  H  599  1  0.02131500  0.68628200  0.71332200  1
  H  600  1  0.97408200  0.80541300  0.77997900  1
  H  608  1  0.08627100  0.67002500  0.71502200  1
  H  609  1  0.11777400  0.69359000  0.71644300  1
  H  611  1  0.91575800  0.78465700  0.82522200  1
  H  612  1  0.88894400  0.78540900  0.79862800  1
  H  619  1  0.33699700  0.24011400  0.95395900  1
  H  626  1  0.15087100  0.22513900  0.00756000  1
  H  627  1  0.23330000  0.18533400  0.03965500  1
  H  628  1  0.27798600  0.30395500  0.97148000  1
  H  636  1  0.16936600  0.16742000  0.03725500  1
  H  637  1  0.13673000  0.19005700  0.03455700  1
  H  639  1  0.33744700  0.28360200  0.92684500  1
  H  640  1  0.36392200  0.28507900  0.95359200  1
  H  647  1  0.08488300  0.26277400  0.19988400  1
  H  654  1  0.90166100  0.27615000  0.25785000  1
  H  655  1  0.98410800  0.31714000  0.28841300  1
  H  656  1  0.03033900  0.19828900  0.22209500  1
  H  664  1  0.91997800  0.33430000  0.28714100  1
  H  665  1  0.88756200  0.31147600  0.28459000  1
  H  667  1  0.08424800  0.21733100  0.17435300  1
  H  668  1  0.11391900  0.21914300  0.19923500  1
  H  675  1  0.65570500  0.75394800  0.03883900  1
  H  682  1  0.84725100  0.78302500  0.99798300  1
  H  683  1  0.76225600  0.80881800  0.95657200  1
  H  684  1  0.73674400  0.70316600  0.05089500  1
  H  692  1  0.82314900  0.83401000  0.96208600  1
  H  693  1  0.85850600  0.81371900  0.96567700  1
  H  695  1  0.68158000  0.71252000  0.08316600  1
  H  696  1  0.64399400  0.71887200  0.06603200  1
  H  703  1  0.41583600  0.51223900  0.95059300  1
  H  710  1  0.60105300  0.52381800  0.00790800  1
  H  711  1  0.51769600  0.56230700  0.04026400  1
  H  712  1  0.48140200  0.44987000  0.95720900  1
  H  720  1  0.58276700  0.58012600  0.03848400  1
  H  721  1  0.61456600  0.55673500  0.03728300  1
  H  723  1  0.44025400  0.46449300  0.91497700  1
  H  724  1  0.40093900  0.47575100  0.92642300  1
  H  731  1  0.83596400  0.01457700  0.80635600  1
  H  738  1  0.65496900  0.02241700  0.74417000  1
  H  739  1  0.73602100  0.06645900  0.71592200  1
  H  740  1  0.78781500  0.94850900  0.78115100  1
  H  748  1  0.67048900  0.08145900  0.71645600  1
  H  749  1  0.63983300  0.05723400  0.71711700  1
  H  751  1  0.83822900  0.96877000  0.83079400  1
  H  752  1  0.86836000  0.97223700  0.80641500  1
  H  759  1  0.16872800  0.99013400  0.19981600  1
  H  766  1  0.35095500  0.98108000  0.26101200  1
  H  767  1  0.26959700  0.93696200  0.28863100  1
  H  768  1  0.22039700  0.05561600  0.22276100  1
  H  776  1  0.33516700  0.92195500  0.28844000  1
  H  777  1  0.36582900  0.94615700  0.28791500  1
  H  779  1  0.16763800  0.03537400  0.17450800  1
  H  780  1  0.13801700  0.03338500  0.19941500  1
  H  787  1  0.91710300  0.51105800  0.44863100  1
  H  794  1  0.10022100  0.52260700  0.50796000  1
  H  795  1  0.01840500  0.56576900  0.53639600  1
  H  796  1  0.97021400  0.44639700  0.47219600  1
  H  804  1  0.08358800  0.58145100  0.53587100  1
  H  805  1  0.11476500  0.55758000  0.53498500  1
  H  807  1  0.91568300  0.46553500  0.42423200  1
  H  808  1  0.88703200  0.46740500  0.44974200  1
  C  1  1  0.09998800  0.11072500  0.11433700  1
  C  2  1  0.06611700  0.11596000  0.12169600  1
  C  3  1  0.06651000  0.13442900  0.13995300  1
  C  4  1  0.10068500  0.14122500  0.14473800  1
  C  5  1  0.10787800  0.15894900  0.16374200  1
  C  6  1  0.08050400  0.16935000  0.17791600  1
  C  7  1  0.04627300  0.16212000  0.17271400  1
  C  8  1  0.03901400  0.14479600  0.15359800  1
  C  9  1  0.03796500  0.10270800  0.11180700  1
  C  10  1  0.04415600  0.08381400  0.09405600  1
  C  11  1  0.07791800  0.07855100  0.08576900  1
  C  12  1  0.10605800  0.09209000  0.09599800  1
  C  13  1  0.14908500  0.14149600  0.11388700  1
  C  14  1  0.18316300  0.13623900  0.12071400  1
  C  15  1  0.18324300  0.11794100  0.13914900  1
  C  16  1  0.14919400  0.11118400  0.14444400  1
  C  17  1  0.21107500  0.10764500  0.15248900  1
  C  18  1  0.20428400  0.09049600  0.17185800  1
  C  19  1  0.17017200  0.08338500  0.17761500  1
  C  20  1  0.14245900  0.09368100  0.16373000  1
  C  21  1  0.14247300  0.16020200  0.09573100  1
  C  22  1  0.17030200  0.17379600  0.08514700  1
  C  23  1  0.20430400  0.16851900  0.09287500  1
  C  24  1  0.21101900  0.14953900  0.11044000  1
  C  37  1  0.12473200  0.12616900  0.12903700  1
  C  46  1  0.60048700  0.64200500  0.13943000  1
  C  47  1  0.56638500  0.63588800  0.13352300  1
  C  48  1  0.56623900  0.61533300  0.11771800  1
  C  49  1  0.60027900  0.60863100  0.11229200  1
  C  50  1  0.60669400  0.58831600  0.09593400  1
  C  51  1  0.57864700  0.57449000  0.08600500  1
  C  52  1  0.54463100  0.58107800  0.09260300  1
  C  53  1  0.53815100  0.60175200  0.10817900  1
  C  54  1  0.53851400  0.65001200  0.14257700  1
  C  55  1  0.54526400  0.67059700  0.15820300  1
  C  56  1  0.57928300  0.67652900  0.16540700  1
  C  57  1  0.60712600  0.66220600  0.15588200  1
  C  58  1  0.64916100  0.61140800  0.14250800  1
  C  59  1  0.68320100  0.61682100  0.13582100  1
  C  60  1  0.68322500  0.63283700  0.11544700  1
  C  61  1  0.64920500  0.63878200  0.10918900  1
  C  62  1  0.71127600  0.64230200  0.10181700  1
  C  63  1  0.70480700  0.65860600  0.08173800  1
  C  64  1  0.67088500  0.66603700  0.07571900  1
  C  65  1  0.64285700  0.65587300  0.08944100  1
  C  66  1  0.64280000  0.59450700  0.16242000  1
  C  67  1  0.67084700  0.58387600  0.17579000  1
  C  68  1  0.70482800  0.59072800  0.16924400  1
  C  69  1  0.71129200  0.60692000  0.14908300  1
  C  82  1  0.62479500  0.62519700  0.12591100  1
  C  91  1  0.65090400  0.14193200  0.61315900  1
  C  92  1  0.68531400  0.13589800  0.61820400  1
  C  93  1  0.68635900  0.11615100  0.63504100  1
  C  94  1  0.65264300  0.10970700  0.64168100  1
  C  95  1  0.64703600  0.08994900  0.65887700  1
  C  96  1  0.67553000  0.07647900  0.66859900  1
  C  97  1  0.70922300  0.08299900  0.66111000  1
  C  98  1  0.71490700  0.10304400  0.64454700  1
  C  99  1  0.71267900  0.14938400  0.60749100  1
  C  100  1  0.70510800  0.16934400  0.59125100  1
  C  101  1  0.67070800  0.17533000  0.58514500  1
  C  102  1  0.64339200  0.16156000  0.59620300  1
  C  103  1  0.60202600  0.11108600  0.61323000  1
  C  104  1  0.56848800  0.11576300  0.62166800  1
  C  105  1  0.56966900  0.13321700  0.64087300  1
  C  106  1  0.60403100  0.13982900  0.64523700  1
  C  107  1  0.54269800  0.14305400  0.65542900  1
  C  108  1  0.55066000  0.15975600  0.67494000  1
  C  109  1  0.58506800  0.16687500  0.67966800  1
  C  110  1  0.61192000  0.15691500  0.66465900  1
  C  111  1  0.60745800  0.09324200  0.59402900  1
  C  112  1  0.57903800  0.07984900  0.58405800  1
  C  113  1  0.54561600  0.08455900  0.59334500  1
  C  114  1  0.54003700  0.10271700  0.61195800  1
  C  127  1  0.62738300  0.12576800  0.62814500  1
  C  136  1  0.15181000  0.61077700  0.63958800  1
  C  137  1  0.18536800  0.61563100  0.63128900  1
  C  138  1  0.18417600  0.63306200  0.61205100  1
  C  139  1  0.14978800  0.63948500  0.60753800  1
  C  140  1  0.14185700  0.65644500  0.58801200  1
  C  141  1  0.16870500  0.66647000  0.57304500  1
  C  142  1  0.20314800  0.65954800  0.57792100  1
  C  143  1  0.21114700  0.64298600  0.59754800  1
  C  144  1  0.21389200  0.60282300  0.64120100  1
  C  145  1  0.20836100  0.58463700  0.65979600  1
  C  146  1  0.17489900  0.57965500  0.66886700  1
  C  147  1  0.14641300  0.59286300  0.65873900  1
  C  148  1  0.10267900  0.64145400  0.63940400  1
  C  149  1  0.06835500  0.63538200  0.63410200  1
  C  150  1  0.06757700  0.61559400  0.61731400  1
  C  151  1  0.10139500  0.60921000  0.61089700  1
  C  152  1  0.03918400  0.60247000  0.60759100  1
  C  153  1  0.04513300  0.58248300  0.59101100  1
  C  154  1  0.07893500  0.57606600  0.58370200  1
  C  155  1  0.10727200  0.58953200  0.59366300  1
  C  156  1  0.10990100  0.66116800  0.65633200  1
  C  157  1  0.08239600  0.67495600  0.66712000  1
  C  158  1  0.04810500  0.66893600  0.66072500  1
  C  159  1  0.04080700  0.64888200  0.64453900  1
  C  172  1  0.12643600  0.62534000  0.62455800  1
  C  181  1  0.39839400  0.86228800  0.36069200  1
  C  182  1  0.43239800  0.86755900  0.36757200  1
  C  183  1  0.43232800  0.88373500  0.38781000  1
  C  184  1  0.39829400  0.88995800  0.39376300  1
  C  185  1  0.39193200  0.90735400  0.41324100  1
  C  186  1  0.41993000  0.91750000  0.42702100  1
  C  187  1  0.45382100  0.90974200  0.42136300  1
  C  188  1  0.46033400  0.89317200  0.40151200  1
  C  189  1  0.46054000  0.85756300  0.35445200  1
  C  190  1  0.45414200  0.84144500  0.33422500  1
  C  191  1  0.42018000  0.83474600  0.32745400  1
  C  192  1  0.39209200  0.84547100  0.34070100  1
  C  193  1  0.34931000  0.85981300  0.39071100  1
  C  194  1  0.31532500  0.86634400  0.38489200  1
  C  195  1  0.31562000  0.88660300  0.36865900  1
  C  196  1  0.34979700  0.89286300  0.36313200  1
  C  197  1  0.28783100  0.90020200  0.35867900  1
  C  198  1  0.29474800  0.92051400  0.34271000  1
  C  199  1  0.32891200  0.92676000  0.33618600  1
  C  200  1  0.35665500  0.91286800  0.34647900  1
  C  201  1  0.35560000  0.83954600  0.40717800  1
  C  202  1  0.32750100  0.82570900  0.41702000  1
  C  203  1  0.29354100  0.83230200  0.41027500  1
  C  204  1  0.28718300  0.85283700  0.39446500  1
  C  217  1  0.37395200  0.87626600  0.37705900  1
  C  226  1  0.90170500  0.88841500  0.89099200  1
  C  227  1  0.93549500  0.88036400  0.88655400  1
  C  228  1  0.93552300  0.86337900  0.86690800  1
  C  229  1  0.90159100  0.85970000  0.85891500  1
  C  230  1  0.89501900  0.84383300  0.83823600  1
  C  231  1  0.92288300  0.83243900  0.82540500  1
  C  232  1  0.95690500  0.83661700  0.83375300  1
  C  233  1  0.96343900  0.85190100  0.85467200  1
  C  234  1  0.96333300  0.88933200  0.90075900  1
  C  235  1  0.95693800  0.90698900  0.91969800  1
  C  236  1  0.92335100  0.91618000  0.92404500  1
  C  237  1  0.89549000  0.90668000  0.90967900  1
  C  238  1  0.85441000  0.89121000  0.85874800  1
  C  239  1  0.81983200  0.88479100  0.86253400  1
  C  240  1  0.81804900  0.86556500  0.87994200  1
  C  241  1  0.85144000  0.85944700  0.88768600  1
  C  242  1  0.78916800  0.85239200  0.88879200  1
  C  243  1  0.79415000  0.83280100  0.90599900  1
  C  244  1  0.82745400  0.82673400  0.91470900  1
  C  245  1  0.85632200  0.84010900  0.90546000  1
  C  246  1  0.86287600  0.90943300  0.84053000  1
  C  247  1  0.83637300  0.92083000  0.82621700  1
  C  248  1  0.80172300  0.91408500  0.83055600  1
  C  249  1  0.79318800  0.89617700  0.84882200  1
  C  262  1  0.87729400  0.87497500  0.87417700  1
  C  271  1  0.85141900  0.35958200  0.39485300  1
  C  272  1  0.81724100  0.36642700  0.39014500  1
  C  273  1  0.81683900  0.38493700  0.37193300  1
  C  274  1  0.85070400  0.39012800  0.36453600  1
  C  275  1  0.85684100  0.40888400  0.34634800  1
  C  276  1  0.82876100  0.42262200  0.33633200  1
  C  277  1  0.79500200  0.41746400  0.34469500  1
  C  278  1  0.78874600  0.39842400  0.36227900  1
  C  279  1  0.78978800  0.35614300  0.40389800  1
  C  280  1  0.79709900  0.33886800  0.42305100  1
  C  281  1  0.83134700  0.33165600  0.42821900  1
  C  282  1  0.85867100  0.34191900  0.41389600  1
  C  283  1  0.89996500  0.35949800  0.36403000  1
  C  284  1  0.93398700  0.36489900  0.37090400  1
  C  285  1  0.93387100  0.38315600  0.38938400  1
  C  286  1  0.89974900  0.38972900  0.39464500  1
  C  287  1  0.96155200  0.39361300  0.40276600  1
  C  288  1  0.95452200  0.41074300  0.42211400  1
  C  289  1  0.92031700  0.41767800  0.42779700  1
  C  290  1  0.89276200  0.40724000  0.41386700  1
  C  291  1  0.89355500  0.34089600  0.34573300  1
  C  292  1  0.92154000  0.32758900  0.33500700  1
  C  293  1  0.95549700  0.33306700  0.34270100  1
  C  294  1  0.96200000  0.35192800  0.36043900  1
  C  307  1  0.87545400  0.37467500  0.37918800  1
  C  316  1  0.35034500  0.38624700  0.85969800  1
  C  317  1  0.31647000  0.37856800  0.86444400  1
  C  318  1  0.31641300  0.36175400  0.88423400  1
  C  319  1  0.35039100  0.35780300  0.89200100  1
  C  320  1  0.35695100  0.34218000  0.91286800  1
  C  321  1  0.32904800  0.33127200  0.92607100  1
  C  322  1  0.29499300  0.33570000  0.91794000  1
  C  323  1  0.28845400  0.35076400  0.89686100  1
  C  324  1  0.28857500  0.38787700  0.85051800  1
  C  325  1  0.29499000  0.40555700  0.83160200  1
  C  326  1  0.32867200  0.41444500  0.82704100  1
  C  327  1  0.35660100  0.40456200  0.84107000  1
  C  328  1  0.39838900  0.38869100  0.89134500  1
  C  329  1  0.43261900  0.38149600  0.88735100  1
  C  330  1  0.43356100  0.36214600  0.87009500  1
  C  331  1  0.39988400  0.35655900  0.86265200  1
  C  332  1  0.46200100  0.34873200  0.86085100  1
  C  333  1  0.45626500  0.32928100  0.84362300  1
  C  334  1  0.42266000  0.32361900  0.83529200  1
  C  335  1  0.39425600  0.33729700  0.84489700  1
  C  336  1  0.39109300  0.40802700  0.90870000  1
  C  337  1  0.41839600  0.42002200  0.92175800  1
  C  338  1  0.45258000  0.41192800  0.91746000  1
  C  339  1  0.45999100  0.39285900  0.90020100  1
  C  352  1  0.37475300  0.37260800  0.87634500  1
  C  361  1  0.94525600  0.97612400  0.95199700  1
  C  362  1  0.97951200  0.96909600  0.95713200  1
  C  364  1  0.98988700  0.00594500  0.98209000  1
  C  365  1  0.95535600  0.01386700  0.97787300  1
  C  366  1  0.93353900  0.99869900  0.96285300  1
  C  368  1  0.01487700  0.01979600  0.99621400  1
  C  369  1  0.05096300  0.01945800  0.99146800  1
  C  370  1  0.07287200  0.03450600  0.00652300  1
  C  371  1  0.05978900  0.04967900  0.02598400  1
  C  372  1  0.02393700  0.04901500  0.02999200  1
  C  383  1  0.08211400  0.06671700  0.04096500  1
  C  386  1  0.92391000  0.96138900  0.93407700  1
  C  389  1  0.44277900  0.77637100  0.29686400  1
  C  390  1  0.47659500  0.78438800  0.29167100  1
  C  392  1  0.48933800  0.74753400  0.26737300  1
  C  393  1  0.45522600  0.73864300  0.27151200  1
  C  394  1  0.43243400  0.75333900  0.28623200  1
  C  396  1  0.51540500  0.73436800  0.25365200  1
  C  397  1  0.55146800  0.73678400  0.25794600  1
  C  398  1  0.57453300  0.72252100  0.24306100  1
  C  399  1  0.56260300  0.70599800  0.22433500  1
  C  400  1  0.52669200  0.70437100  0.22096700  1
  C  411  1  0.58633600  0.69003700  0.20937300  1
  C  414  1  0.42085600  0.79024300  0.31508800  1
  C  417  1  0.81188500  0.27377600  0.45929500  1
  C  418  1  0.78452300  0.28500600  0.47264400  1
  C  420  1  0.76122700  0.24513900  0.48487900  1
  C  421  1  0.78835500  0.23264200  0.47215400  1
  C  422  1  0.81312600  0.24730400  0.45929000  1
  C  424  1  0.73467300  0.23251400  0.49826600  1
  C  425  1  0.69936700  0.23932700  0.49704400  1
  C  426  1  0.67528100  0.22532100  0.51128900  1
  C  427  1  0.68570500  0.20511700  0.52661600  1
  C  428  1  0.72114000  0.19936600  0.52705500  1
  C  439  1  0.66074900  0.19011700  0.54156100  1
  C  442  1  0.83815100  0.28817500  0.44481900  1
  C  445  1  0.30817300  0.47530100  0.80075300  1
  C  446  1  0.27336600  0.46917600  0.79649700  1
  C  448  1  0.26365700  0.50627100  0.77177000  1
  C  449  1  0.29869800  0.51334100  0.77520400  1
  C  450  1  0.32045100  0.49760500  0.78967300  1
  C  452  1  0.23881100  0.52065000  0.75805800  1
  C  453  1  0.20289800  0.52116200  0.76343200  1
  C  454  1  0.18114500  0.53656300  0.74861600  1
  C  455  1  0.19423400  0.55126200  0.72879800  1
  C  456  1  0.22989700  0.54976500  0.72417600  1
  C  467  1  0.17215200  0.56855200  0.71392900  1
  C  470  1  0.32970900  0.45982800  0.81790100  1
  C  473  1  0.56676100  0.22499300  0.71031000  1
  C  474  1  0.53878900  0.21411900  0.72328600  1
  C  476  1  0.51628300  0.25425700  0.73530500  1
  C  477  1  0.54400300  0.26642300  0.72297100  1
  C  478  1  0.56867300  0.25145000  0.71036500  1
  C  480  1  0.48981100  0.26723300  0.74837400  1
  C  481  1  0.45426600  0.26158900  0.74582300  1
  C  482  1  0.43020500  0.27584900  0.75983100  1
  C  483  1  0.44092300  0.29510400  0.77623100  1
  C  484  1  0.47661300  0.29964800  0.77802500  1
  C  495  1  0.41604700  0.31033600  0.79098300  1
  C  498  1  0.59308400  0.21024500  0.69623100  1
  C  501  1  0.18705700  0.72434100  0.54194200  1
  C  502  1  0.21458000  0.71334100  0.52857500  1
  C  504  1  0.23741000  0.75340100  0.51652300  1
  C  505  1  0.21013300  0.76567700  0.52928700  1
  C  506  1  0.18550800  0.75080500  0.54205800  1
  C  508  1  0.26374200  0.76627100  0.50315200  1
  C  509  1  0.29919000  0.75989500  0.50451500  1
  C  510  1  0.32303900  0.77417700  0.49032900  1
  C  511  1  0.31222600  0.79422400  0.47493600  1
  C  512  1  0.27665800  0.79950100  0.47432100  1
  C  523  1  0.33687600  0.80962800  0.46015400  1
  C  526  1  0.16077900  0.70972400  0.55619700  1
  C  529  1  0.69257900  0.52479600  0.20548600  1
  C  530  1  0.72676000  0.53211500  0.21046900  1
  C  532  1  0.73835300  0.49495800  0.23461900  1
  C  533  1  0.70389100  0.48675500  0.23064900  1
  C  534  1  0.68150000  0.50193800  0.21610500  1
  C  536  1  0.76396500  0.48114700  0.24814500  1
  C  537  1  0.79996100  0.48217400  0.24312800  1
  C  538  1  0.82254200  0.46720600  0.25772100  1
  C  539  1  0.81018700  0.45142200  0.27693900  1
  C  540  1  0.77436900  0.45131500  0.28114300  1
  C  551  1  0.83327500  0.43470200  0.29163300  1
  C  554  1  0.67088000  0.53919600  0.18752300  1
  C  557  1  0.44087700  0.97762700  0.45435100  1
  C  558  1  0.47571400  0.97120200  0.45796300  1
  C  560  1  0.48695200  0.00818100  0.48249500  1
  C  561  1  0.45192400  0.01557400  0.47970600  1
  C  562  1  0.42938700  0.00003200  0.46567000  1
  C  564  1  0.51259300  0.02227800  0.49571700  1
  C  565  1  0.54844400  0.02195100  0.49007000  1
  C  566  1  0.57102300  0.03704900  0.50453400  1
  C  567  1  0.55881500  0.05226900  0.52425100  1
  C  568  1  0.52316400  0.05166900  0.52909800  1
  C  579  1  0.58185100  0.06903300  0.53893200  1
  C  582  1  0.41856100  0.96254500  0.43738400  1
  C  585  1  0.94079300  0.77580000  0.79146100  1
  C  586  1  0.96985700  0.78653900  0.77971900  1
  C  588  1  0.99118900  0.74639900  0.76643000  1
  C  589  1  0.96234000  0.73442600  0.77757300  1
  C  590  1  0.93769800  0.74944600  0.79015100  1
  C  592  1  0.01770900  0.73337300  0.75334800  1
  C  593  1  0.05328600  0.73918300  0.75546100  1
  C  594  1  0.07722800  0.72484100  0.74140900  1
  C  595  1  0.06644200  0.70524600  0.72543900  1
  C  596  1  0.03078200  0.70045700  0.72415700  1
  C  607  1  0.09121500  0.68978700  0.71080300  1
  C  610  1  0.91449100  0.79051300  0.80557400  1
  C  613  1  0.31227500  0.27473700  0.96054700  1
  C  614  1  0.28275900  0.28515600  0.97198600  1
  C  616  1  0.26244000  0.24485100  0.98557000  1
  C  617  1  0.29175300  0.23319700  0.97475200  1
  C  618  1  0.31612200  0.24845300  0.96217600  1
  C  620  1  0.23612400  0.23153600  0.99856100  1
  C  621  1  0.20039900  0.23648800  0.99574700  1
  C  622  1  0.17664900  0.22186700  0.00967700  1
  C  623  1  0.18777900  0.20286600  0.02622900  1
  C  624  1  0.22358400  0.19899500  0.02827900  1
  C  635  1  0.16325000  0.18714000  0.04079200  1
  C  638  1  0.33831200  0.28969700  0.94642900  1
  C  641  1  0.06243000  0.22784700  0.20880500  1
  C  642  1  0.03424200  0.21719200  0.22171300  1
  C  644  1  0.01288500  0.25747700  0.23438300  1
  C  645  1  0.04085600  0.26941100  0.22210500  1
  C  646  1  0.06504100  0.25426500  0.20920400  1
  C  648  1  0.98674800  0.27065300  0.24764300  1
  C  649  1  0.95108200  0.26525500  0.24540300  1
  C  650  1  0.92741500  0.27975300  0.25952800  1
  C  651  1  0.93861100  0.29902200  0.27574400  1
  C  652  1  0.97438600  0.30330800  0.27724100  1
  C  663  1  0.91415200  0.31452200  0.29060100  1
  C  666  1  0.08799600  0.21291200  0.19420300  1
  C  669  1  0.69184800  0.72559800  0.04708100  1
  C  670  1  0.72643300  0.71879900  0.04292600  1
  C  672  1  0.73754700  0.75547400  0.01794000  1
  C  673  1  0.70276400  0.76324400  0.02126000  1
  C  674  1  0.68039900  0.74803100  0.03579300  1
  C  676  1  0.76301800  0.76916700  0.00415600  1
  C  677  1  0.79902400  0.76850300  0.00921200  1
  C  678  1  0.82145000  0.78312400  0.99415400  1
  C  679  1  0.80891100  0.79824900  0.97447800  1
  C  680  1  0.77309300  0.79806600  0.97028600  1
  C  691  1  0.83177500  0.81467200  0.95929900  1
  C  694  1  0.66985100  0.71088200  0.06457200  1
  C  697  1  0.44415000  0.47845900  0.95127500  1
  C  698  1  0.47426300  0.46773500  0.96139800  1
  C  700  1  0.49011500  0.50585700  0.98242500  1
  C  701  1  0.45952800  0.51753900  0.97355800  1
  C  702  1  0.43697600  0.50353100  0.95800400  1
  C  704  1  0.51604100  0.51815900  0.99690700  1
  C  705  1  0.55193100  0.51329800  0.99455500  1
  C  706  1  0.57521200  0.52700600  0.00974900  1
  C  707  1  0.56359100  0.54520100  0.02696900  1
  C  708  1  0.52776000  0.54913100  0.02849400  1
  C  719  1  0.58775400  0.56031100  0.04243000  1
  C  722  1  0.42390300  0.46509400  0.93167600  1
  C  725  1  0.81667200  0.97900700  0.79613000  1
  C  726  1  0.79006600  0.96752700  0.78218900  1
  C  728  1  0.76620100  0.00716200  0.76989800  1
  C  729  1  0.79258800  0.01992700  0.78314500  1
  C  730  1  0.81724300  0.00549100  0.79637100  1
  C  732  1  0.73984300  0.01958700  0.75619000  1
  C  733  1  0.70448500  0.01298500  0.75758200  1
  C  734  1  0.68053500  0.02686900  0.74310200  1
  C  735  1  0.69120700  0.04670300  0.72738800  1
  C  736  1  0.72671600  0.05219000  0.72673600  1
  C  747  1  0.66649300  0.06159900  0.71217100  1
  C  750  1  0.84284000  0.96484300  0.81093400  1
  C  753  1  0.18970200  0.02546100  0.20905300  1
  C  754  1  0.21722800  0.03664000  0.22226800  1
  C  756  1  0.23986600  0.99675200  0.23503900  1
  C  757  1  0.21260000  0.98430500  0.22242300  1
  C  758  1  0.18808000  0.99900300  0.20934500  1
  C  760  1  0.26616600  0.98409700  0.24864800  1
  C  761  1  0.30157500  0.99061900  0.24742200  1
  C  762  1  0.32537300  0.97665100  0.26195300  1
  C  763  1  0.31454500  0.95677300  0.27755200  1
  C  764  1  0.27902800  0.95130200  0.27798100  1
  C  775  1  0.33914800  0.94179900  0.29280700  1
  C  778  1  0.16377500  0.03991700  0.19431900  1
  C  781  1  0.93884000  0.47606600  0.45822700  1
  C  782  1  0.96678700  0.46533600  0.47134500  1
  C  784  1  0.98904300  0.50560400  0.48316200  1
  C  785  1  0.96135900  0.51762700  0.47062900  1
  C  786  1  0.93680200  0.50251100  0.45807900  1
  C  788  1  0.01531000  0.51866600  0.49637000  1
  C  789  1  0.05082100  0.51253100  0.49480100  1
  C  790  1  0.07457200  0.52678100  0.50909000  1
  C  791  1  0.06357100  0.54652200  0.52479100  1
  C  792  1  0.02795300  0.55160200  0.52556500  1
  C  803  1  0.08803700  0.56161200  0.54001700  1
  C  806  1  0.91272600  0.46114100  0.44416100  1
  N  38  1  0.16524500  0.06747100  0.19845700  1
  N  40  1  0.08152100  0.05925600  0.06779800  1
  N  42  1  0.08586100  0.18541600  0.19859100  1
  N  44  1  0.16599600  0.19356400  0.06781300  1
  N  83  1  0.66714600  0.68420600  0.05655500  1
  N  85  1  0.58347000  0.69661900  0.18237000  1
  N  87  1  0.58266200  0.55415400  0.06934200  1
  N  89  1  0.66706900  0.56592300  0.19520000  1
  N  128  1  0.59117700  0.18269300  0.70043500  1
  N  130  1  0.66556100  0.19568500  0.56863100  1
  N  132  1  0.67220600  0.05602700  0.68521000  1
  N  134  1  0.58221700  0.06101100  0.56559100  1
  N  173  1  0.08253900  0.55576800  0.56694200  1
  N  175  1  0.17181600  0.56068400  0.68722300  1
  N  177  1  0.16255900  0.68214200  0.55217300  1
  N  179  1  0.08723500  0.69534100  0.68365300  1
  N  218  1  0.33342800  0.94728100  0.31979800  1
  N  220  1  0.41637900  0.81703500  0.30781200  1
  N  222  1  0.41625500  0.93599800  0.44586600  1
  N  224  1  0.33144100  0.80480700  0.43300900  1
  N  263  1  0.82996000  0.80721400  0.93249900  1
  N  265  1  0.91980800  0.93498800  0.94259800  1
  N  267  1  0.91846700  0.81816100  0.80334000  1
  N  269  1  0.84312000  0.93736700  0.80611600  1
  N  308  1  0.91507300  0.43365600  0.44854300  1
  N  310  1  0.83687200  0.31573400  0.44898300  1
  N  312  1  0.83251600  0.44201500  0.31850200  1
  N  314  1  0.91746600  0.30792100  0.31753900  1
  N  353  1  0.41937400  0.30379000  0.81793600  1
  N  355  1  0.33222600  0.43352300  0.80878600  1
  N  357  1  0.33345600  0.31729400  0.94832300  1
  N  359  1  0.41341700  0.43940000  0.93971700  1
  N  363  1  0.99978900  0.98388000  0.97152700  1
  N  373  1  0.00357200  0.03452700  0.01534500  1
  N  377  1  0.06467100  0.00525900  0.97140500  1
  N  378  1  0.94351300  0.03710800  0.98731700  1
  N  391  1  0.49778800  0.77005500  0.27758200  1
  N  401  1  0.50523600  0.71828500  0.23530500  1
  N  405  1  0.56421900  0.75228400  0.27737800  1
  N  406  1  0.44471600  0.71497500  0.26229600  1
  N  419  1  0.76083100  0.27062900  0.48451300  1
  N  429  1  0.74367700  0.21291700  0.51320400  1
  N  433  1  0.68862600  0.25899700  0.48106600  1
  N  434  1  0.78963700  0.20614000  0.47165000  1
  N  447  1  0.25317400  0.48446600  0.78257500  1
  N  457  1  0.25010500  0.53494300  0.73859600  1
  N  461  1  0.18926400  0.50741100  0.78383100  1
  N  462  1  0.31121000  0.53627600  0.76547300  1
  N  475  1  0.51516900  0.22878500  0.73488100  1
  N  485  1  0.49914200  0.28592300  0.76432900  1
  N  489  1  0.44340600  0.24282800  0.72883300  1
  N  490  1  0.54591700  0.29290600  0.72262000  1
  N  503  1  0.23812400  0.72791300  0.51677800  1
  N  513  1  0.25435700  0.78570000  0.48812300  1
  N  517  1  0.31026300  0.74040300  0.52058700  1
  N  518  1  0.20855200  0.79216900  0.52988300  1
  N  531  1  0.74759100  0.51731600  0.22439300  1
  N  541  1  0.75336800  0.46578800  0.26698500  1
  N  545  1  0.81296600  0.49700700  0.22327100  1
  N  546  1  0.69268700  0.46322900  0.23979000  1
  N  559  1  0.49663800  0.98628400  0.47150800  1
  N  569  1  0.50217300  0.03709400  0.51504100  1
  N  573  1  0.56128800  0.00762500  0.46979100  1
  N  574  1  0.44014600  0.03864600  0.48959400  1
  N  587  1  0.99331000  0.77180200  0.76803900  1
  N  597  1  0.00839500  0.71434000  0.73779600  1
  N  601  1  0.06440300  0.75816500  0.77211700  1
  N  602  1  0.95915400  0.70801200  0.77687400  1
  N  615  1  0.25957900  0.27019200  0.98367200  1
  N  625  1  0.24579000  0.21308800  0.01469200  1
  N  629  1  0.18903300  0.25492100  0.97857000  1
  N  630  1  0.29563300  0.20684300  0.97574900  1
  N  643  1  0.01109800  0.23203300  0.23359000  1
  N  653  1  0.99652600  0.28935800  0.26343900  1
  N  657  1  0.93970000  0.24649200  0.22859300  1
  N  658  1  0.04346900  0.29586400  0.22204100  1
  N  671  1  0.74718200  0.73356200  0.02890900  1
  N  681  1  0.75226400  0.78388000  0.98485200  1
  N  685  1  0.81219400  0.75436600  0.02951400  1
  N  686  1  0.69111700  0.78635700  0.01138600  1
  N  699  1  0.49547800  0.48150700  0.97603200  1
  N  709  1  0.50600800  0.53580900  0.01379800  1
  N  713  1  0.56429300  0.49593900  0.97662100  1
  N  714  1  0.45292500  0.54308100  0.97884500  1
  N  727  1  0.76636900  0.98167200  0.77004000  1
  N  737  1  0.74911700  0.03879700  0.74084900  1
  N  741  1  0.69362300  0.99366700  0.77394100  1
  N  742  1  0.79324400  0.04643800  0.78371500  1
  N  755  1  0.24066800  0.02222700  0.23434700  1
  N  765  1  0.25677000  0.96481900  0.26386700  1
  N  769  1  0.31269500  0.00996400  0.23118500  1
  N  770  1  0.21096500  0.95780900  0.22222700  1
  N  783  1  0.99022900  0.48013300  0.48293100  1
  N  793  1  0.00573700  0.53782800  0.51166900  1
  N  797  1  0.06201700  0.49324000  0.47852900  1
  N  798  1  0.95933900  0.54410100  0.47003300  1
  O  379  1  0.08586300  0.98919700  0.97906100  1
  O  380  1  0.91821000  0.03425800  0.00170200  1
  O  381  1  0.93516000  0.05184200  0.96997500  1
  O  382  1  0.07916400  0.01895800  0.95541600  1
  O  407  1  0.58361600  0.76915800  0.26898100  1
  O  408  1  0.41945900  0.71695200  0.24772000  1
  O  409  1  0.43693500  0.70022300  0.27976200  1
  O  410  1  0.58034100  0.73986700  0.29358800  1
  O  435  1  0.67393000  0.27612200  0.49317800  1
  O  436  1  0.81701400  0.19814300  0.48129900  1
  O  437  1  0.78741600  0.19785600  0.44966500  1
  O  438  1  0.66845100  0.25119700  0.46439700  1
  O  463  1  0.16719500  0.49175900  0.77665300  1
  O  464  1  0.33570300  0.53280300  0.75049200  1
  O  465  1  0.32102700  0.55077500  0.78260300  1
  O  466  1  0.17582700  0.52153500  0.79994000  1
  O  491  1  0.42704800  0.22578000  0.73987400  1
  O  492  1  0.57327400  0.30050400  0.73261900  1
  O  493  1  0.54439100  0.30131000  0.70065000  1
  O  494  1  0.42467300  0.25181900  0.71187300  1
  O  519  1  0.32545800  0.72343900  0.50857500  1
  O  520  1  0.18110200  0.80004500  0.52024000  1
  O  521  1  0.21066000  0.80039200  0.55189800  1
  O  522  1  0.33013700  0.74850000  0.53730900  1
  O  547  1  0.83377400  0.51324900  0.23110100  1
  O  548  1  0.66761200  0.46556800  0.25447800  1
  O  549  1  0.68428500  0.44871900  0.22227300  1
  O  550  1  0.82764200  0.48387800  0.20689500  1
  O  575  1  0.58278500  0.99159400  0.47705400  1
  O  576  1  0.41609600  0.03543900  0.50500800  1
  O  577  1  0.43002800  0.05319700  0.47260000  1
  O  578  1  0.57509900  0.02121800  0.45339700  1
  O  603  1  0.08046900  0.77513400  0.76072900  1
  O  604  1  0.93198800  0.70147700  0.76589400  1
  O  605  1  0.95923400  0.69874600  0.79852500  1
  O  606  1  0.08346500  0.74942700  0.78901700  1
  O  631  1  0.17195400  0.27173300  0.98939400  1
  O  632  1  0.32284900  0.20081200  0.98695000  1
  O  633  1  0.29605000  0.19736300  0.95419400  1
  O  634  1  0.17084000  0.24547700  0.96154200  1
  O  659  1  0.92330500  0.22960200  0.23984600  1
  O  660  1  0.07108600  0.30296700  0.23202300  1
  O  661  1  0.04200500  0.30454100  0.20017600  1
  O  662  1  0.92083000  0.25552400  0.21173600  1
  O  687  1  0.83317700  0.73800800  0.02218700  1
  O  688  1  0.66653100  0.78327600  0.99640100  1
  O  689  1  0.68181200  0.80114100  0.02842500  1
  O  690  1  0.82673100  0.76808000  0.04547300  1
  O  715  1  0.58085000  0.47847200  0.98683300  1
  O  716  1  0.42499200  0.54573700  0.99040800  1
  O  717  1  0.45199400  0.55605500  0.95919800  1
  O  718  1  0.58320500  0.50634400  0.96059600  1
  O  743  1  0.67871600  0.97640700  0.76216100  1
  O  744  1  0.82073300  0.05477500  0.77452900  1
  O  745  1  0.79016400  0.05464900  0.80567100  1
  O  746  1  0.67354900  0.00188400  0.79047500  1
  O  771  1  0.32756100  0.02715700  0.24308900  1
  O  772  1  0.18344600  0.95011700  0.23191300  1
  O  773  1  0.21316000  0.94925100  0.20034500  1
  O  774  1  0.33286200  0.00176100  0.21470500  1
  O  799  1  0.07739300  0.47623500  0.49035900  1
  O  800  1  0.93190000  0.55173800  0.47988200  1
  O  801  1  0.96097100  0.55231600  0.44799500  1
  O  802  1  0.08176500  0.50158200  0.46185000  1
