# generated using pymatgen
data_H28C45N8
_symmetry_space_group_name_H-M   'P 1'
_cell_length_a   55.79330000
_cell_length_b   63.98615000
_cell_length_c   63.98610000
_cell_angle_alpha   60.00007755
_cell_angle_beta   90.00000000
_cell_angle_gamma   90.00000000
_symmetry_Int_Tables_number   1
_chemical_formula_structural   H28C45N8
_chemical_formula_sum   'H672 C1080 N192'
_cell_volume   197826.57888136
_cell_formula_units_Z   24
loop_
 _symmetry_equiv_pos_site_id
 _symmetry_equiv_pos_as_xyz
  1  'x, y, z'
loop_
 _atom_site_type_symbol
 _atom_site_label
 _atom_site_symmetry_multiplicity
 _atom_site_fract_x
 _atom_site_fract_y
 _atom_site_fract_z
 _atom_site_occupancy
  H  26  1  0.81464600  0.13140500  0.42485200  1
  H  27  1  0.85491900  0.14497400  0.41685300  1
  H  28  1  0.81894100  0.12576600  0.49328300  1
  H  29  1  0.85941000  0.13933100  0.48533600  1
  H  30  1  0.90704400  0.13093800  0.48804200  1
  H  31  1  0.93005800  0.09483500  0.50409000  1
  H  32  1  0.92198400  0.09440400  0.43884900  1
  H  33  1  0.89924900  0.13062600  0.42264500  1
  H  34  1  0.92642500  0.17119300  0.41432400  1
  H  35  1  0.93299400  0.20443800  0.37510900  1
  H  36  1  0.86010800  0.22358700  0.37033700  1
  H  37  1  0.85349600  0.19052100  0.40949600  1
  H  38  1  0.85361200  0.18684500  0.45035000  1
  H  39  1  0.92782600  0.17286500  0.45401100  1
  H  40  1  0.93506800  0.20559300  0.46068400  1
  H  45  1  0.86087100  0.21915800  0.45732900  1
  H  71  1  0.81452600  0.42419200  0.48926800  1
  H  72  1  0.85478600  0.41619100  0.48372500  1
  H  73  1  0.81888300  0.49268800  0.42657600  1
  H  74  1  0.85935800  0.48473500  0.42096800  1
  H  75  1  0.90701200  0.48742200  0.42657400  1
  H  76  1  0.93002100  0.50347800  0.44662400  1
  H  77  1  0.92183500  0.43829200  0.51232700  1
  H  78  1  0.89910700  0.42208100  0.49231400  1
  H  79  1  0.92634500  0.41366600  0.46016200  1
  H  80  1  0.93290300  0.37442900  0.46617300  1
  H  81  1  0.86004900  0.36974700  0.45162300  1
  H  82  1  0.85346100  0.40891300  0.44549600  1
  H  83  1  0.85350700  0.44978400  0.40838500  1
  H  84  1  0.92774000  0.45331900  0.41872300  1
  H  85  1  0.93496400  0.45994000  0.37933900  1
  H  90  1  0.86075900  0.45671300  0.36910600  1
  H  116  1  0.81465300  0.48874900  0.13184100  1
  H  117  1  0.85491200  0.48315800  0.14541900  1
  H  118  1  0.81883300  0.42582000  0.12643800  1
  H  119  1  0.85928800  0.42017700  0.14000700  1
  H  120  1  0.90688700  0.42599000  0.13143600  1
  H  121  1  0.92990500  0.44604400  0.09533800  1
  H  122  1  0.92203500  0.51166400  0.09504900  1
  H  123  1  0.89929400  0.49164200  0.13126300  1
  H  124  1  0.92636300  0.45929800  0.17187700  1
  H  125  1  0.93289700  0.46525600  0.20513300  1
  H  126  1  0.85995000  0.45109700  0.22408500  1
  H  127  1  0.85338300  0.44501800  0.19100600  1
  H  128  1  0.85358700  0.40775400  0.18749100  1
  H  129  1  0.92776500  0.41803300  0.17338000  1
  H  130  1  0.93504000  0.37866800  0.20614100  1
  H  135  1  0.86086200  0.36848800  0.21985600  1
  H  161  1  0.31464000  0.89816200  0.60601300  1
  H  162  1  0.35490100  0.88458800  0.61399500  1
  H  163  1  0.31886500  0.90372000  0.53761500  1
  H  164  1  0.35933000  0.89014700  0.54554700  1
  H  165  1  0.40695200  0.89862400  0.54280200  1
  H  166  1  0.42998000  0.93471800  0.52675800  1
  H  167  1  0.42198300  0.93510300  0.59202900  1
  H  168  1  0.39923300  0.89889100  0.60822900  1
  H  169  1  0.42638300  0.85833000  0.61653000  1
  H  170  1  0.43294500  0.82509600  0.65576700  1
  H  171  1  0.36004500  0.80597900  0.66054700  1
  H  172  1  0.35344400  0.83903400  0.62137400  1
  H  173  1  0.35358900  0.84265400  0.58054000  1
  H  174  1  0.42779000  0.85671600  0.57680300  1
  H  175  1  0.43505300  0.82399100  0.57012500  1
  H  180  1  0.36086400  0.81034600  0.57355600  1
  H  206  1  0.31452600  0.60537300  0.54156200  1
  H  207  1  0.35477100  0.61339900  0.54714200  1
  H  208  1  0.31891100  0.53685200  0.60420600  1
  H  209  1  0.35935500  0.54481100  0.60985200  1
  H  210  1  0.40707400  0.54215100  0.60431200  1
  H  211  1  0.43009700  0.52609200  0.58427400  1
  H  212  1  0.42180000  0.59122000  0.51853300  1
  H  213  1  0.39905900  0.60743400  0.53853500  1
  H  214  1  0.42633100  0.61591600  0.57060700  1
  H  215  1  0.43289800  0.65514800  0.56461900  1
  H  216  1  0.36009200  0.65976800  0.57934700  1
  H  217  1  0.35348900  0.62060800  0.58545400  1
  H  218  1  0.35347300  0.57964200  0.62252600  1
  H  219  1  0.42771700  0.57633400  0.61209400  1
  H  220  1  0.43495800  0.56974700  0.65145500  1
  H  225  1  0.36073500  0.57274800  0.66179600  1
  H  251  1  0.31462100  0.54084100  0.89892300  1
  H  252  1  0.35488900  0.54642400  0.88536000  1
  H  253  1  0.31884900  0.60368300  0.90448200  1
  H  254  1  0.35931400  0.60931700  0.89092500  1
  H  255  1  0.40692700  0.60355800  0.89941200  1
  H  256  1  0.42993400  0.58349100  0.93551400  1
  H  257  1  0.42197200  0.51786300  0.93583400  1
  H  258  1  0.39924200  0.53789900  0.89961300  1
  H  259  1  0.42635800  0.57018500  0.85902500  1
  H  260  1  0.43290000  0.56423700  0.82576200  1
  H  261  1  0.35999200  0.57857300  0.80669600  1
  H  262  1  0.35341700  0.58464000  0.83978000  1
  H  263  1  0.35360200  0.62183700  0.84338900  1
  H  264  1  0.42778300  0.61147800  0.85744600  1
  H  265  1  0.43506700  0.65085500  0.82470700  1
  H  270  1  0.36089000  0.66110900  0.81106900  1
  H  296  1  0.13292000  0.53860100  0.60341900  1
  H  297  1  0.09260100  0.54559000  0.61012100  1
  H  298  1  0.13426400  0.60579800  0.53891800  1
  H  299  1  0.09384100  0.61277600  0.54547600  1
  H  300  1  0.04831100  0.60559200  0.53929000  1
  H  301  1  0.02556100  0.58690000  0.52155500  1
  H  302  1  0.02343700  0.52245300  0.58856300  1
  H  303  1  0.04615800  0.54092500  0.60626400  1
  H  304  1  0.02339000  0.57558500  0.61303200  1
  H  305  1  0.01689700  0.56918600  0.65239500  1
  H  306  1  0.09116600  0.57474600  0.66059900  1
  H  307  1  0.09769100  0.58131800  0.62128300  1
  H  308  1  0.09711800  0.62125400  0.58316400  1
  H  309  1  0.02367500  0.61510900  0.57148500  1
  H  310  1  0.01708900  0.65447300  0.56526400  1
  H  315  1  0.09052700  0.66049300  0.57669800  1
  H  341  1  0.13303600  0.90306500  0.53913900  1
  H  342  1  0.09276600  0.88920800  0.54618400  1
  H  343  1  0.13425300  0.90057200  0.60623800  1
  H  344  1  0.09390400  0.88687400  0.61327800  1
  H  345  1  0.04832200  0.90005400  0.60620900  1
  H  346  1  0.02557900  0.93648500  0.58751300  1
  H  347  1  0.02365600  0.93404600  0.52299300  1
  H  348  1  0.04636800  0.89786500  0.54147400  1
  H  349  1  0.02350700  0.85645200  0.57606600  1
  H  350  1  0.01700100  0.82350200  0.56965200  1
  H  351  1  0.09123200  0.80957000  0.57543500  1
  H  352  1  0.09778300  0.84230700  0.58201800  1
  H  353  1  0.09731500  0.84069900  0.62187800  1
  H  354  1  0.02381500  0.85830300  0.61564200  1
  H  355  1  0.01723200  0.82514400  0.65497900  1
  H  360  1  0.09073000  0.80788500  0.66110700  1
  H  386  1  0.13290300  0.60267400  0.90387400  1
  H  387  1  0.09261900  0.60943600  0.89001500  1
  H  388  1  0.13436100  0.53828500  0.90096700  1
  H  389  1  0.09399700  0.54490500  0.88727300  1
  H  390  1  0.04851200  0.53867700  0.90077400  1
  H  391  1  0.02574200  0.52095000  0.93718700  1
  H  392  1  0.02339600  0.58801700  0.93449000  1
  H  393  1  0.04613900  0.60571500  0.89832700  1
  H  394  1  0.02350200  0.61236100  0.85689100  1
  H  395  1  0.01699900  0.65170500  0.82392300  1
  H  396  1  0.09128700  0.66005000  0.81031400  1
  H  397  1  0.09783700  0.62073600  0.84307100  1
  H  398  1  0.09721500  0.58263400  0.84113700  1
  H  399  1  0.02380400  0.57075700  0.85907700  1
  H  400  1  0.01721900  0.56450800  0.82595600  1
  H  405  1  0.09062800  0.57614600  0.80837700  1
  H  431  1  0.63292400  0.49105100  0.42744900  1
  H  432  1  0.59262200  0.48404600  0.42070700  1
  H  433  1  0.63426800  0.42383900  0.49192100  1
  H  434  1  0.59386500  0.41683500  0.48532400  1
  H  435  1  0.54834700  0.42399600  0.49152200  1
  H  436  1  0.52561200  0.44266800  0.50928800  1
  H  437  1  0.52346300  0.50714100  0.44229700  1
  H  438  1  0.54616800  0.48868700  0.42456800  1
  H  439  1  0.52340200  0.45401000  0.41780400  1
  H  440  1  0.51689000  0.46045800  0.37842800  1
  H  441  1  0.59115500  0.45498500  0.37015600  1
  H  442  1  0.59770100  0.44836000  0.40948400  1
  H  443  1  0.59718100  0.40841100  0.44760000  1
  H  444  1  0.52372600  0.41446700  0.45933200  1
  H  445  1  0.51717900  0.37511400  0.46552300  1
  H  450  1  0.59062100  0.36917400  0.45403500  1
  H  476  1  0.63296300  0.12639600  0.49172300  1
  H  477  1  0.59263100  0.14009500  0.48473600  1
  H  478  1  0.63437900  0.12939300  0.42438800  1
  H  479  1  0.59396800  0.14291700  0.41741800  1
  H  480  1  0.54847600  0.12937500  0.42473300  1
  H  481  1  0.52574400  0.09293800  0.44341800  1
  H  482  1  0.52341800  0.09560000  0.50780900  1
  H  483  1  0.54612500  0.13178100  0.48934100  1
  H  484  1  0.52347900  0.17324700  0.45455800  1
  H  485  1  0.51697300  0.20621200  0.46093600  1
  H  486  1  0.59126100  0.21980400  0.45569200  1
  H  487  1  0.59780300  0.18705200  0.44913400  1
  H  488  1  0.59716900  0.18903400  0.40908100  1
  H  489  1  0.52377600  0.17109400  0.41511900  1
  H  490  1  0.51718100  0.20426500  0.37578400  1
  H  495  1  0.59058700  0.22184500  0.36986900  1
  H  521  1  0.63290100  0.42687100  0.12701800  1
  H  522  1  0.59261100  0.42011800  0.14083500  1
  H  523  1  0.63436500  0.49121200  0.13000900  1
  H  524  1  0.59399100  0.48460500  0.14366200  1
  H  525  1  0.54851400  0.49085500  0.13010700  1
  H  526  1  0.52574300  0.50859800  0.09369200  1
  H  527  1  0.52338900  0.44154400  0.09636300  1
  H  528  1  0.54613000  0.42383200  0.13252500  1
  H  529  1  0.52348100  0.41718300  0.17397300  1
  H  530  1  0.51696900  0.37781600  0.20691100  1
  H  531  1  0.59125800  0.36943200  0.22050000  1
  H  532  1  0.59781400  0.40876800  0.18777600  1
  H  533  1  0.59718800  0.44683900  0.18977200  1
  H  534  1  0.52379300  0.45880100  0.17178300  1
  H  535  1  0.51721500  0.46506100  0.20490200  1
  H  540  1  0.59061200  0.45333900  0.22252500  1
  H  551  1  0.88983900  0.27597400  0.35020100  1
  H  552  1  0.86921400  0.31041400  0.34631200  1
  H  553  1  0.86973200  0.34821300  0.30846000  1
  H  554  1  0.89088900  0.35157700  0.27449600  1
  H  556  1  0.93563200  0.34232500  0.24407600  1
  H  558  1  0.93433300  0.24425800  0.34145100  1
  H  569  1  0.88970700  0.34955000  0.41949100  1
  H  570  1  0.86909000  0.34566100  0.38893400  1
  H  571  1  0.86963500  0.30781700  0.38897300  1
  H  572  1  0.89081500  0.27386100  0.41956000  1
  H  574  1  0.93560400  0.24343700  0.45929900  1
  H  576  1  0.93424200  0.34088100  0.45979600  1
  H  587  1  0.88947700  0.41880000  0.27656600  1
  H  588  1  0.86878200  0.38830100  0.31098500  1
  H  589  1  0.86933300  0.38833700  0.34879300  1
  H  590  1  0.89059000  0.41887200  0.35218400  1
  H  592  1  0.93549000  0.45851300  0.34291000  1
  H  594  1  0.93416100  0.45891900  0.24503800  1
  H  605  1  0.38970700  0.75354800  0.68073000  1
  H  606  1  0.36911500  0.71907600  0.68465400  1
  H  607  1  0.36970400  0.68128100  0.72250800  1
  H  608  1  0.39090600  0.67794900  0.75643600  1
  H  610  1  0.43564800  0.68733200  0.78688100  1
  H  612  1  0.43427300  0.78516300  0.68930600  1
  H  623  1  0.38980500  0.67997800  0.61141700  1
  H  624  1  0.36920100  0.68386500  0.64197900  1
  H  625  1  0.36973500  0.72171700  0.64192700  1
  H  626  1  0.39088600  0.75567900  0.61131800  1
  H  628  1  0.43561900  0.78613000  0.57155600  1
  H  630  1  0.43427500  0.68872300  0.57093300  1
  H  641  1  0.38952200  0.61079100  0.75428700  1
  H  642  1  0.36879900  0.64127800  0.71988100  1
  H  643  1  0.36931500  0.64123300  0.68207800  1
  H  644  1  0.39056900  0.61070400  0.67867600  1
  H  646  1  0.43548100  0.57110400  0.68791100  1
  H  648  1  0.43419200  0.57063100  0.78582700  1
  H  659  1  0.06270700  0.61062500  0.67978500  1
  H  660  1  0.08416100  0.64052900  0.68409000  1
  H  661  1  0.08388000  0.64015500  0.72211200  1
  H  662  1  0.06214600  0.60988900  0.75581000  1
  H  664  1  0.01643800  0.57100500  0.78575700  1
  H  666  1  0.01675000  0.57219400  0.68767900  1
  H  677  1  0.06281300  0.75461100  0.61118800  1
  H  678  1  0.08428300  0.72040600  0.64107800  1
  H  679  1  0.08393000  0.68273500  0.64074800  1
  H  680  1  0.06210100  0.67927800  0.61054400  1
  H  682  1  0.01633800  0.68818700  0.57173600  1
  H  684  1  0.01680700  0.78514300  0.57282500  1
  H  695  1  0.06291800  0.67913100  0.75520700  1
  H  696  1  0.08450000  0.68344600  0.72106000  1
  H  697  1  0.08422700  0.72145100  0.68339400  1
  H  698  1  0.06237700  0.75512200  0.67988600  1
  H  700  1  0.01651500  0.78496600  0.68865300  1
  H  702  1  0.01685600  0.68703900  0.78572500  1
  H  713  1  0.56266300  0.41905300  0.35107600  1
  H  714  1  0.58411900  0.38911100  0.34683400  1
  H  715  1  0.58385200  0.38942300  0.30884200  1
  H  716  1  0.56213000  0.41966700  0.27511200  1
  H  718  1  0.51642800  0.45851300  0.24512600  1
  H  720  1  0.51673800  0.45754000  0.34310500  1
  H  731  1  0.56290500  0.27491000  0.41966600  1
  H  732  1  0.58442900  0.30907500  0.38978700  1
  H  733  1  0.58411900  0.34675800  0.39009100  1
  H  734  1  0.56228500  0.35026800  0.42026100  1
  H  736  1  0.51644400  0.34141100  0.45902900  1
  H  738  1  0.51683800  0.24448600  0.45793900  1
  H  749  1  0.56289800  0.35037100  0.27560300  1
  H  750  1  0.58440400  0.34608500  0.30977800  1
  H  751  1  0.58405600  0.30810900  0.34747200  1
  H  752  1  0.56219500  0.27444100  0.35098600  1
  H  754  1  0.51639600  0.24454200  0.34217500  1
  H  756  1  0.51682600  0.34253400  0.24517200  1
  H  767  1  0.68320900  0.16385200  0.45408400  1
  H  768  1  0.70404500  0.20134700  0.43171900  1
  H  769  1  0.74579200  0.20198400  0.42099700  1
  H  770  1  0.76677100  0.16513700  0.43282500  1
  H  772  1  0.77684800  0.11183400  0.44250100  1
  H  774  1  0.67242100  0.10944200  0.49317600  1
  H  785  1  0.68308600  0.45364900  0.42755900  1
  H  786  1  0.70390900  0.43140600  0.41227800  1
  H  787  1  0.74566100  0.42067000  0.42231100  1
  H  788  1  0.76666000  0.43236000  0.44742900  1
  H  790  1  0.77673000  0.44171900  0.49121400  1
  H  792  1  0.67236600  0.49254900  0.44263200  1
  H  803  1  0.68314300  0.42697200  0.16438100  1
  H  804  1  0.70399700  0.41171500  0.20188600  1
  H  805  1  0.74575600  0.42174700  0.20254700  1
  H  806  1  0.76673400  0.44683500  0.16571800  1
  H  808  1  0.77680500  0.49061300  0.11240700  1
  H  810  1  0.67238700  0.44208700  0.11032900  1
  H  821  1  0.18308900  0.86589900  0.57652000  1
  H  822  1  0.20387300  0.82834900  0.59875300  1
  H  823  1  0.24562300  0.82759400  0.60951800  1
  H  824  1  0.26665800  0.86437400  0.59787000  1
  H  826  1  0.27680100  0.91765400  0.58842300  1
  H  828  1  0.17247100  0.91971600  0.53764200  1
  H  839  1  0.18316800  0.57612100  0.60320200  1
  H  840  1  0.20404100  0.59844000  0.61836300  1
  H  841  1  0.24579700  0.60912300  0.60828600  1
  H  842  1  0.26674600  0.59730300  0.58324400  1
  H  844  1  0.27675900  0.58775500  0.53958700  1
  H  846  1  0.17233800  0.53707600  0.58801100  1
  H  857  1  0.18309000  0.60268300  0.86656600  1
  H  858  1  0.20391000  0.61805600  0.82902900  1
  H  859  1  0.24566600  0.60805300  0.82829200  1
  H  860  1  0.26667200  0.58287500  0.86507800  1
  H  862  1  0.27675600  0.53897300  0.91830200  1
  H  864  1  0.17239700  0.58765900  0.92036300  1
  H  875  1  0.97024800  0.06692700  0.45262000  1
  H  876  1  0.98522500  0.05648500  0.42415600  1
  H  877  1  0.00082100  0.01643700  0.43752500  1
  H  878  1  0.00154000  0.98686900  0.47948700  1
  H  880  1  0.98813200  0.95854500  0.51986900  1
  H  882  1  0.96106300  0.06582100  0.50820000  1
  H  893  1  0.97014100  0.45203400  0.52604400  1
  H  894  1  0.98510000  0.42358100  0.56496100  1
  H  895  1  0.00067600  0.43696200  0.59163600  1
  H  896  1  0.00139500  0.47893000  0.57922300  1
  H  898  1  0.98796500  0.51932400  0.56713700  1
  H  900  1  0.96099300  0.50760200  0.47154600  1
  H  911  1  0.97027200  0.52534600  0.06754000  1
  H  912  1  0.98527100  0.56424100  0.05711600  1
  H  913  1  0.00084300  0.59093800  0.01706400  1
  H  914  1  0.00151100  0.57857300  0.98747100  1
  H  916  1  0.98801700  0.56653600  0.95912600  1
  H  918  1  0.96099100  0.47090700  0.06639000  1
  H  929  1  0.47020500  0.96263100  0.57823500  1
  H  930  1  0.48515700  0.97310700  0.60668300  1
  H  931  1  0.50072900  0.01316700  0.59329100  1
  H  932  1  0.50144900  0.04271400  0.55132100  1
  H  934  1  0.48800200  0.07101600  0.51091200  1
  H  936  1  0.46102300  0.96369900  0.52266200  1
  H  947  1  0.47017700  0.57750300  0.50485700  1
  H  948  1  0.48513700  0.60596400  0.46594300  1
  H  949  1  0.50071800  0.59259000  0.43926200  1
  H  950  1  0.50143500  0.55062300  0.45166600  1
  H  952  1  0.48799600  0.51023100  0.46374300  1
  H  954  1  0.46101100  0.52193200  0.55934100  1
  H  965  1  0.47022200  0.50414600  0.96335800  1
  H  966  1  0.48522900  0.46524900  0.97379900  1
  H  967  1  0.50081700  0.43857300  0.01385100  1
  H  968  1  0.50150100  0.45096200  0.04342500  1
  H  970  1  0.48800000  0.46302000  0.07175800  1
  H  972  1  0.46098200  0.55861100  0.96447700  1
  H  998  1  0.81464600  0.92823620  0.09665580  1
  H  999  1  0.85491900  0.94180520  0.08865680  1
  H  1000  1  0.81894100  0.92259720  0.16508680  1
  H  1001  1  0.85941000  0.93616220  0.15713980  1
  H  1002  1  0.90704400  0.92776920  0.15984580  1
  H  1003  1  0.93005800  0.89166600  0.17589400  1
  H  1004  1  0.92198400  0.89123500  0.11065300  1
  H  1005  1  0.89924900  0.92745720  0.09444880  1
  H  1006  1  0.92642500  0.96802420  0.08612780  1
  H  1007  1  0.93299400  0.00126900  0.04691300  1
  H  1008  1  0.86010800  0.02041800  0.04214100  1
  H  1009  1  0.85349600  0.98735220  0.08129980  1
  H  1010  1  0.85361200  0.98367620  0.12215380  1
  H  1011  1  0.92782600  0.96969620  0.12581480  1
  H  1012  1  0.93506800  0.00242400  0.13248800  1
  H  1017  1  0.86087100  0.01598900  0.12913300  1
  H  1043  1  0.81452600  0.22102300  0.16107200  1
  H  1044  1  0.85478600  0.21302200  0.15552900  1
  H  1045  1  0.81888300  0.28951900  0.09838000  1
  H  1046  1  0.85935800  0.28156600  0.09277200  1
  H  1047  1  0.90701200  0.28425300  0.09837800  1
  H  1048  1  0.93002100  0.30030900  0.11842800  1
  H  1049  1  0.92183500  0.23512300  0.18413100  1
  H  1050  1  0.89910700  0.21891200  0.16411800  1
  H  1051  1  0.92634500  0.21049700  0.13196600  1
  H  1052  1  0.93290300  0.17126000  0.13797700  1
  H  1053  1  0.86004900  0.16657800  0.12342700  1
  H  1054  1  0.85346100  0.20574400  0.11730000  1
  H  1055  1  0.85350700  0.24661500  0.08018900  1
  H  1056  1  0.92774000  0.25015000  0.09052700  1
  H  1057  1  0.93496400  0.25677100  0.05114300  1
  H  1062  1  0.86075900  0.25354400  0.04091000  1
  H  1088  1  0.81465300  0.28558000  0.80364500  1
  H  1089  1  0.85491200  0.27998900  0.81722300  1
  H  1090  1  0.81883300  0.22265100  0.79824200  1
  H  1091  1  0.85928800  0.21700800  0.81181100  1
  H  1092  1  0.90688700  0.22282100  0.80324000  1
  H  1093  1  0.92990500  0.24287500  0.76714200  1
  H  1094  1  0.92203500  0.30849500  0.76685300  1
  H  1095  1  0.89929400  0.28847300  0.80306700  1
  H  1096  1  0.92636300  0.25612900  0.84368100  1
  H  1097  1  0.93289700  0.26208700  0.87693700  1
  H  1098  1  0.85995000  0.24792800  0.89588900  1
  H  1099  1  0.85338300  0.24184900  0.86281000  1
  H  1100  1  0.85358700  0.20458500  0.85929500  1
  H  1101  1  0.92776500  0.21486400  0.84518400  1
  H  1102  1  0.93504000  0.17549900  0.87794500  1
  H  1107  1  0.86086200  0.16531900  0.89166000  1
  H  1133  1  0.31464000  0.69499300  0.27781660  1
  H  1134  1  0.35490100  0.68141900  0.28579860  1
  H  1135  1  0.31886500  0.70055100  0.20941860  1
  H  1136  1  0.35933000  0.68697800  0.21735060  1
  H  1137  1  0.40695200  0.69545500  0.21460560  1
  H  1138  1  0.42998000  0.73154900  0.19856160  1
  H  1139  1  0.42198300  0.73193400  0.26383259  1
  H  1140  1  0.39923300  0.69572200  0.28003260  1
  H  1141  1  0.42638300  0.65516100  0.28833360  1
  H  1142  1  0.43294500  0.62192700  0.32757060  1
  H  1143  1  0.36004500  0.60281000  0.33235060  1
  H  1144  1  0.35344400  0.63586500  0.29317760  1
  H  1145  1  0.35358900  0.63948500  0.25234400  1
  H  1146  1  0.42779000  0.65354700  0.24860660  1
  H  1147  1  0.43505300  0.62082200  0.24192900  1
  H  1152  1  0.36086400  0.60717700  0.24536000  1
  H  1178  1  0.31452600  0.40220400  0.21336600  1
  H  1179  1  0.35477100  0.41023000  0.21894600  1
  H  1180  1  0.31891100  0.33368300  0.27601000  1
  H  1181  1  0.35935500  0.34164200  0.28165600  1
  H  1182  1  0.40707400  0.33898200  0.27611600  1
  H  1183  1  0.43009700  0.32292300  0.25607800  1
  H  1184  1  0.42180000  0.38805100  0.19033700  1
  H  1185  1  0.39905900  0.40426500  0.21033900  1
  H  1186  1  0.42633100  0.41274700  0.24241100  1
  H  1187  1  0.43289800  0.45197900  0.23642300  1
  H  1188  1  0.36009200  0.45659900  0.25115100  1
  H  1189  1  0.35348900  0.41743900  0.25725800  1
  H  1190  1  0.35347300  0.37647300  0.29433000  1
  H  1191  1  0.42771700  0.37316500  0.28389800  1
  H  1192  1  0.43495800  0.36657800  0.32325900  1
  H  1197  1  0.36073500  0.36957900  0.33360000  1
  H  1223  1  0.31462100  0.33767200  0.57072660  1
  H  1224  1  0.35488900  0.34325500  0.55716360  1
  H  1225  1  0.31884900  0.40051400  0.57628560  1
  H  1226  1  0.35931400  0.40614800  0.56272860  1
  H  1227  1  0.40692700  0.40038900  0.57121560  1
  H  1228  1  0.42993400  0.38032200  0.60731760  1
  H  1229  1  0.42197200  0.31469400  0.60763760  1
  H  1230  1  0.39924200  0.33473000  0.57141660  1
  H  1231  1  0.42635800  0.36701600  0.53082900  1
  H  1232  1  0.43290000  0.36106800  0.49756600  1
  H  1233  1  0.35999200  0.37540400  0.47850000  1
  H  1234  1  0.35341700  0.38147100  0.51158400  1
  H  1235  1  0.35360200  0.41866800  0.51519260  1
  H  1236  1  0.42778300  0.40830900  0.52924960  1
  H  1237  1  0.43506700  0.44768600  0.49651060  1
  H  1242  1  0.36089000  0.45794000  0.48287260  1
  H  1268  1  0.13292000  0.33543200  0.27522300  1
  H  1269  1  0.09260100  0.34242100  0.28192500  1
  H  1270  1  0.13426400  0.40262900  0.21072200  1
  H  1271  1  0.09384100  0.40960700  0.21728000  1
  H  1272  1  0.04831100  0.40242300  0.21109400  1
  H  1273  1  0.02556100  0.38373100  0.19335900  1
  H  1274  1  0.02343700  0.31928400  0.26036700  1
  H  1275  1  0.04615800  0.33775600  0.27806800  1
  H  1276  1  0.02339000  0.37241600  0.28483600  1
  H  1277  1  0.01689700  0.36601700  0.32419900  1
  H  1278  1  0.09116600  0.37157700  0.33240300  1
  H  1279  1  0.09769100  0.37814900  0.29308700  1
  H  1280  1  0.09711800  0.41808500  0.25496800  1
  H  1281  1  0.02367500  0.41194000  0.24328900  1
  H  1282  1  0.01708900  0.45130400  0.23706800  1
  H  1287  1  0.09052700  0.45732400  0.24850200  1
  H  1313  1  0.13303600  0.69989600  0.21094260  1
  H  1314  1  0.09276600  0.68603900  0.21798760  1
  H  1315  1  0.13425300  0.69740300  0.27804160  1
  H  1316  1  0.09390400  0.68370500  0.28508160  1
  H  1317  1  0.04832200  0.69688500  0.27801260  1
  H  1318  1  0.02557900  0.73331600  0.25931659  1
  H  1319  1  0.02365600  0.73087700  0.19479660  1
  H  1320  1  0.04636800  0.69469600  0.21327760  1
  H  1321  1  0.02350700  0.65328300  0.24786960  1
  H  1322  1  0.01700100  0.62033300  0.24145600  1
  H  1323  1  0.09123200  0.60640100  0.24723900  1
  H  1324  1  0.09778300  0.63913800  0.25382200  1
  H  1325  1  0.09731500  0.63753000  0.29368160  1
  H  1326  1  0.02381500  0.65513400  0.28744560  1
  H  1327  1  0.01723200  0.62197500  0.32678260  1
  H  1332  1  0.09073000  0.60471600  0.33291060  1
  H  1358  1  0.13290300  0.39950500  0.57567760  1
  H  1359  1  0.09261900  0.40626700  0.56181860  1
  H  1360  1  0.13436100  0.33511600  0.57277060  1
  H  1361  1  0.09399700  0.34173600  0.55907660  1
  H  1362  1  0.04851200  0.33550800  0.57257760  1
  H  1363  1  0.02574200  0.31778100  0.60899060  1
  H  1364  1  0.02339600  0.38484800  0.60629359  1
  H  1365  1  0.04613900  0.40254600  0.57013060  1
  H  1366  1  0.02350200  0.40919200  0.52869460  1
  H  1367  1  0.01699900  0.44853600  0.49572660  1
  H  1368  1  0.09128700  0.45688100  0.48211760  1
  H  1369  1  0.09783700  0.41756700  0.51487460  1
  H  1370  1  0.09721500  0.37946500  0.51294100  1
  H  1371  1  0.02380400  0.36758800  0.53088100  1
  H  1372  1  0.01721900  0.36133900  0.49776000  1
  H  1377  1  0.09062800  0.37297700  0.48018100  1
  H  1403  1  0.63292400  0.28788200  0.09925300  1
  H  1404  1  0.59262200  0.28087700  0.09251100  1
  H  1405  1  0.63426800  0.22067000  0.16372500  1
  H  1406  1  0.59386500  0.21366600  0.15712800  1
  H  1407  1  0.54834700  0.22082700  0.16332600  1
  H  1408  1  0.52561200  0.23949900  0.18109200  1
  H  1409  1  0.52346300  0.30397200  0.11410100  1
  H  1410  1  0.54616800  0.28551800  0.09637200  1
  H  1411  1  0.52340200  0.25084100  0.08960800  1
  H  1412  1  0.51689000  0.25728900  0.05023200  1
  H  1413  1  0.59115500  0.25181600  0.04196000  1
  H  1414  1  0.59770100  0.24519100  0.08128800  1
  H  1415  1  0.59718100  0.20524200  0.11940400  1
  H  1416  1  0.52372600  0.21129800  0.13113600  1
  H  1417  1  0.51717900  0.17194500  0.13732700  1
  H  1422  1  0.59062100  0.16600500  0.12583900  1
  H  1448  1  0.63296300  0.92322720  0.16352680  1
  H  1449  1  0.59263100  0.93692620  0.15653980  1
  H  1450  1  0.63437900  0.92622420  0.09619180  1
  H  1451  1  0.59396800  0.93974820  0.08922180  1
  H  1452  1  0.54847600  0.92620620  0.09653680  1
  H  1453  1  0.52574400  0.88976900  0.11522200  1
  H  1454  1  0.52341800  0.89243100  0.17961300  1
  H  1455  1  0.54612500  0.92861220  0.16114480  1
  H  1456  1  0.52347900  0.97007820  0.12636180  1
  H  1457  1  0.51697300  0.00304300  0.13274000  1
  H  1458  1  0.59126100  0.01663500  0.12749600  1
  H  1459  1  0.59780300  0.98388320  0.12093780  1
  H  1460  1  0.59716900  0.98586520  0.08088480  1
  H  1461  1  0.52377600  0.96792520  0.08692280  1
  H  1462  1  0.51718100  0.00109600  0.04758800  1
  H  1467  1  0.59058700  0.01867600  0.04167300  1
  H  1493  1  0.63290100  0.22370200  0.79882200  1
  H  1494  1  0.59261100  0.21694900  0.81263900  1
  H  1495  1  0.63436500  0.28804300  0.80181300  1
  H  1496  1  0.59399100  0.28143600  0.81546600  1
  H  1497  1  0.54851400  0.28768600  0.80191100  1
  H  1498  1  0.52574300  0.30542900  0.76549600  1
  H  1499  1  0.52338900  0.23837500  0.76816700  1
  H  1500  1  0.54613000  0.22066300  0.80432900  1
  H  1501  1  0.52348100  0.21401400  0.84577700  1
  H  1502  1  0.51696900  0.17464700  0.87871500  1
  H  1503  1  0.59125800  0.16626300  0.89230400  1
  H  1504  1  0.59781400  0.20559900  0.85958000  1
  H  1505  1  0.59718800  0.24367000  0.86157600  1
  H  1506  1  0.52379300  0.25563200  0.84358700  1
  H  1507  1  0.51721500  0.26189200  0.87670600  1
  H  1512  1  0.59061200  0.25017000  0.89432900  1
  H  1523  1  0.88983900  0.07280500  0.02200500  1
  H  1524  1  0.86921400  0.10724500  0.01811600  1
  H  1525  1  0.86973200  0.14504400  0.98026400  1
  H  1526  1  0.89088900  0.14840800  0.94630000  1
  H  1528  1  0.93563200  0.13915600  0.91588000  1
  H  1530  1  0.93433300  0.04108900  0.01325500  1
  H  1541  1  0.88970700  0.14638100  0.09129500  1
  H  1542  1  0.86909000  0.14249200  0.06073800  1
  H  1543  1  0.86963500  0.10464800  0.06077700  1
  H  1544  1  0.89081500  0.07069200  0.09136400  1
  H  1546  1  0.93560400  0.04026800  0.13110300  1
  H  1548  1  0.93424200  0.13771200  0.13160000  1
  H  1559  1  0.88947700  0.21563100  0.94837000  1
  H  1560  1  0.86878200  0.18513200  0.98278900  1
  H  1561  1  0.86933300  0.18516800  0.02059700  1
  H  1562  1  0.89059000  0.21570300  0.02398800  1
  H  1564  1  0.93549000  0.25534400  0.01471400  1
  H  1566  1  0.93416100  0.25575000  0.91684200  1
  H  1577  1  0.38970700  0.55037900  0.35253360  1
  H  1578  1  0.36911500  0.51590700  0.35645800  1
  H  1579  1  0.36970400  0.47811200  0.39431200  1
  H  1580  1  0.39090600  0.47478000  0.42823960  1
  H  1582  1  0.43564800  0.48416300  0.45868460  1
  H  1584  1  0.43427300  0.58199400  0.36110960  1
  H  1595  1  0.38980500  0.47680900  0.28322100  1
  H  1596  1  0.36920100  0.48069600  0.31378300  1
  H  1597  1  0.36973500  0.51854800  0.31373100  1
  H  1598  1  0.39088600  0.55251000  0.28312200  1
  H  1600  1  0.43561900  0.58296100  0.24336000  1
  H  1602  1  0.43427500  0.48555400  0.24273700  1
  H  1613  1  0.38952200  0.40762200  0.42609100  1
  H  1614  1  0.36879900  0.43810900  0.39168500  1
  H  1615  1  0.36931500  0.43806400  0.35388200  1
  H  1616  1  0.39056900  0.40753500  0.35048000  1
  H  1618  1  0.43548100  0.36793500  0.35971500  1
  H  1620  1  0.43419200  0.36746200  0.45763100  1
  H  1631  1  0.06270700  0.40745600  0.35158900  1
  H  1632  1  0.08416100  0.43736000  0.35589400  1
  H  1633  1  0.08388000  0.43698600  0.39391600  1
  H  1634  1  0.06214600  0.40672000  0.42761400  1
  H  1636  1  0.01643800  0.36783600  0.45756100  1
  H  1638  1  0.01675000  0.36902500  0.35948300  1
  H  1649  1  0.06281300  0.55144200  0.28299200  1
  H  1650  1  0.08428300  0.51723700  0.31288200  1
  H  1651  1  0.08393000  0.47956600  0.31255200  1
  H  1652  1  0.06210100  0.47610900  0.28234800  1
  H  1654  1  0.01633800  0.48501800  0.24354000  1
  H  1656  1  0.01680700  0.58197400  0.24462900  1
  H  1667  1  0.06291800  0.47596200  0.42701060  1
  H  1668  1  0.08450000  0.48027700  0.39286400  1
  H  1669  1  0.08422700  0.51828200  0.35519800  1
  H  1670  1  0.06237700  0.55195300  0.35168960  1
  H  1672  1  0.01651500  0.58179700  0.36045660  1
  H  1674  1  0.01685600  0.48387000  0.45752860  1
  H  1685  1  0.56266300  0.21588400  0.02288000  1
  H  1686  1  0.58411900  0.18594200  0.01863800  1
  H  1687  1  0.58385200  0.18625400  0.98064600  1
  H  1688  1  0.56213000  0.21649800  0.94691600  1
  H  1690  1  0.51642800  0.25534400  0.91693000  1
  H  1692  1  0.51673800  0.25437100  0.01490900  1
  H  1703  1  0.56290500  0.07174100  0.09147000  1
  H  1704  1  0.58442900  0.10590600  0.06159100  1
  H  1705  1  0.58411900  0.14358900  0.06189500  1
  H  1706  1  0.56228500  0.14709900  0.09206500  1
  H  1708  1  0.51644400  0.13824200  0.13083300  1
  H  1710  1  0.51683800  0.04131700  0.12974300  1
  H  1721  1  0.56289800  0.14720200  0.94740700  1
  H  1722  1  0.58440400  0.14291600  0.98158200  1
  H  1723  1  0.58405600  0.10494000  0.01927600  1
  H  1724  1  0.56219500  0.07127200  0.02279000  1
  H  1726  1  0.51639600  0.04137300  0.01397900  1
  H  1728  1  0.51682600  0.13936500  0.91697600  1
  H  1739  1  0.68320900  0.96068320  0.12588780  1
  H  1740  1  0.70404500  0.99817819  0.10352281  1
  H  1741  1  0.74579200  0.99881519  0.09280081  1
  H  1742  1  0.76677100  0.96196820  0.10462880  1
  H  1744  1  0.77684800  0.90866520  0.11430480  1
  H  1746  1  0.67242100  0.90627320  0.16497980  1
  H  1757  1  0.68308600  0.25048000  0.09936300  1
  H  1758  1  0.70390900  0.22823700  0.08408200  1
  H  1759  1  0.74566100  0.21750100  0.09411500  1
  H  1760  1  0.76666000  0.22919100  0.11923300  1
  H  1762  1  0.77673000  0.23855000  0.16301800  1
  H  1764  1  0.67236600  0.28938000  0.11443600  1
  H  1775  1  0.68314300  0.22380300  0.83618500  1
  H  1776  1  0.70399700  0.20854600  0.87369000  1
  H  1777  1  0.74575600  0.21857800  0.87435100  1
  H  1778  1  0.76673400  0.24366600  0.83752200  1
  H  1780  1  0.77680500  0.28744400  0.78421100  1
  H  1782  1  0.67238700  0.23891800  0.78213300  1
  H  1793  1  0.18308900  0.66273000  0.24832360  1
  H  1794  1  0.20387300  0.62518000  0.27055700  1
  H  1795  1  0.24562300  0.62442500  0.28132160  1
  H  1796  1  0.26665800  0.66120500  0.26967360  1
  H  1798  1  0.27680100  0.71448500  0.26022660  1
  H  1800  1  0.17247100  0.71654700  0.20944560  1
  H  1811  1  0.18316800  0.37295200  0.27500600  1
  H  1812  1  0.20404100  0.39527100  0.29016700  1
  H  1813  1  0.24579700  0.40595400  0.28009000  1
  H  1814  1  0.26674600  0.39413400  0.25504800  1
  H  1816  1  0.27675900  0.38458600  0.21139100  1
  H  1818  1  0.17233800  0.33390700  0.25981500  1
  H  1829  1  0.18309000  0.39951400  0.53836960  1
  H  1830  1  0.20391000  0.41488700  0.50083260  1
  H  1831  1  0.24566600  0.40488400  0.50009560  1
  H  1832  1  0.26667200  0.37970600  0.53688160  1
  H  1834  1  0.27675600  0.33580400  0.59010560  1
  H  1836  1  0.17239700  0.38449000  0.59216660  1
  H  1847  1  0.97024800  0.86375800  0.12442360  1
  H  1848  1  0.98522500  0.85331600  0.09595960  1
  H  1849  1  0.00082100  0.81326800  0.10932860  1
  H  1850  1  0.00154000  0.78370000  0.15129060  1
  H  1852  1  0.98813200  0.75537600  0.19167260  1
  H  1854  1  0.96106300  0.86265200  0.18000400  1
  H  1865  1  0.97014100  0.24886500  0.19784800  1
  H  1866  1  0.98510000  0.22041200  0.23676500  1
  H  1867  1  0.00067600  0.23379300  0.26344000  1
  H  1868  1  0.00139500  0.27576100  0.25102700  1
  H  1870  1  0.98796500  0.31615500  0.23894100  1
  H  1872  1  0.96099300  0.30443300  0.14335000  1
  H  1883  1  0.97027200  0.32217700  0.73934400  1
  H  1884  1  0.98527100  0.36107200  0.72892000  1
  H  1885  1  0.00084300  0.38776900  0.68886800  1
  H  1886  1  0.00151100  0.37540400  0.65927500  1
  H  1888  1  0.98801700  0.36336700  0.63092959  1
  H  1890  1  0.96099100  0.26773800  0.73819400  1
  H  1901  1  0.47020500  0.75946200  0.25003900  1
  H  1902  1  0.48515700  0.76993800  0.27848700  1
  H  1903  1  0.50072900  0.80999800  0.26509500  1
  H  1904  1  0.50144900  0.83954500  0.22312500  1
  H  1906  1  0.48800200  0.86784700  0.18271600  1
  H  1908  1  0.46102300  0.76053000  0.19446560  1
  H  1919  1  0.47017700  0.37433400  0.17666100  1
  H  1920  1  0.48513700  0.40279500  0.13774700  1
  H  1921  1  0.50071800  0.38942100  0.11106600  1
  H  1922  1  0.50143500  0.34745400  0.12347000  1
  H  1924  1  0.48799600  0.30706200  0.13554700  1
  H  1926  1  0.46101100  0.31876300  0.23114500  1
  H  1937  1  0.47022200  0.30097700  0.63516160  1
  H  1938  1  0.48522900  0.26208000  0.64560260  1
  H  1939  1  0.50081700  0.23540400  0.68565460  1
  H  1940  1  0.50150100  0.24779300  0.71522860  1
  H  1942  1  0.48800000  0.25985100  0.74356200  1
  H  1944  1  0.46098200  0.35544200  0.63628059  1
  C  1  1  0.89858300  0.21512100  0.46048300  1
  C  2  1  0.91770800  0.20095700  0.45986800  1
  C  3  1  0.91331200  0.18141800  0.45607000  1
  C  4  1  0.88975000  0.17485000  0.45305300  1
  C  5  1  0.87085200  0.18926300  0.45408600  1
  C  6  1  0.87508400  0.20870900  0.45795767  1
  C  7  1  0.88551100  0.15786300  0.44296300  1
  C  8  1  0.88884500  0.17595900  0.41598300  1
  C  9  1  0.87016600  0.19219400  0.40221000  1
  C  10  1  0.87402800  0.21198100  0.37900100  1
  C  11  1  0.89703200  0.21696700  0.36859200  1
  C  12  1  0.91590000  0.20104200  0.38173800  1
  C  13  1  0.91185500  0.18114000  0.40493600  1
  C  14  1  0.90201300  0.13588800  0.45287400  1
  C  15  1  0.86096500  0.14557300  0.44941700  1
  C  16  1  0.84786400  0.14075200  0.43324200  1
  C  17  1  0.82411600  0.13227300  0.43808100  1
  C  18  1  0.81293800  0.12708300  0.45996100  1
  C  19  1  0.82660400  0.12915900  0.47734000  1
  C  20  1  0.85043000  0.13744000  0.47244800  1
  C  21  1  0.91077600  0.12412700  0.47696600  1
  C  22  1  0.92426500  0.10264000  0.48661700  1
  C  23  1  0.92889800  0.09147300  0.47276400  1
  C  24  1  0.91943200  0.10228600  0.44921700  1
  C  25  1  0.90616600  0.12384600  0.43961700  1
  C  46  1  0.89847400  0.45975800  0.37002100  1
  C  47  1  0.91760700  0.45912600  0.38480100  1
  C  48  1  0.91321900  0.45541600  0.40810600  1
  C  49  1  0.88965800  0.45242400  0.41768700  1
  C  50  1  0.87075100  0.45348700  0.40223800  1
  C  51  1  0.87497300  0.45734300  0.37892200  1
  C  52  1  0.88542600  0.44234300  0.44476400  1
  C  53  1  0.88878400  0.41536300  0.45367000  1
  C  54  1  0.87010900  0.40159900  0.45117900  1
  C  55  1  0.87395900  0.37837700  0.45462600  1
  C  56  1  0.89695000  0.36794100  0.46010500  1
  C  57  1  0.91582100  0.38108900  0.46287600  1
  C  58  1  0.91178400  0.40429700  0.45955000  1
  C  59  1  0.90193900  0.45227200  0.45680200  1
  C  60  1  0.86087900  0.44879300  0.45060400  1
  C  61  1  0.84777000  0.43261300  0.47159000  1
  C  62  1  0.82402100  0.43745800  0.47522800  1
  C  63  1  0.81283800  0.45933000  0.45851900  1
  C  64  1  0.82652900  0.47672100  0.43909600  1
  C  65  1  0.85036400  0.47183800  0.43572900  1
  C  66  1  0.91072100  0.47635500  0.44446800  1
  C  67  1  0.92420800  0.48601300  0.45630000  1
  C  68  1  0.92881400  0.47217500  0.48132700  1
  C  69  1  0.91930800  0.44864700  0.49407000  1
  C  70  1  0.90604500  0.43904300  0.48211200  1
  C  91  1  0.89856700  0.36937900  0.21577900  1
  C  92  1  0.91767400  0.38411600  0.20153200  1
  C  93  1  0.91325600  0.40742000  0.18195100  1
  C  94  1  0.88969500  0.41703000  0.17541200  1
  C  95  1  0.87082600  0.40159500  0.18991000  1
  C  96  1  0.87506100  0.37827600  0.20935700  1
  C  97  1  0.88545000  0.44410100  0.15843400  1
  C  98  1  0.88876300  0.45299400  0.17652100  1
  C  99  1  0.87006400  0.45057800  0.19272300  1
  C  100  1  0.87389700  0.45398800  0.21252300  1
  C  101  1  0.89690700  0.45932300  0.21758100  1
  C  102  1  0.91580300  0.46206200  0.20169800  1
  C  103  1  0.91177700  0.45877200  0.18179100  1
  C  104  1  0.90197000  0.45616500  0.13647500  1
  C  105  1  0.86091000  0.44993000  0.14613500  1
  C  106  1  0.84784200  0.47096600  0.14123800  1
  C  107  1  0.82411400  0.47465300  0.13269800  1
  C  108  1  0.81289000  0.45791700  0.12760000  1
  C  109  1  0.82651500  0.43838900  0.12979200  1
  C  110  1  0.85033900  0.43498600  0.13807900  1
  C  111  1  0.91065300  0.44386600  0.12465200  1
  C  112  1  0.92414800  0.45570300  0.10316600  1
  C  113  1  0.92885800  0.48070400  0.09205300  1
  C  114  1  0.91943800  0.49342300  0.10290000  1
  C  115  1  0.90616900  0.48145800  0.12445700  1
  C  136  1  0.39857300  0.81441600  0.57037400  1
  C  137  1  0.41768800  0.82857600  0.57101400  1
  C  138  1  0.41328100  0.84813700  0.57477200  1
  C  139  1  0.38971600  0.85468100  0.57781000  1
  C  140  1  0.37083200  0.84023500  0.57681400  1
  C  141  1  0.37507000  0.82081900  0.57289000  1
  C  142  1  0.38546800  0.87166700  0.58789900  1
  C  143  1  0.38880300  0.85357000  0.61487800  1
  C  144  1  0.37011600  0.83735000  0.62865800  1
  C  145  1  0.37397400  0.81756500  0.65187000  1
  C  146  1  0.39698500  0.81255900  0.66226300  1
  C  147  1  0.41586200  0.82846500  0.64910700  1
  C  148  1  0.41181500  0.84838400  0.62592300  1
  C  149  1  0.40196400  0.89364600  0.57798600  1
  C  150  1  0.36091800  0.88395000  0.58144800  1
  C  151  1  0.34783600  0.88880000  0.59761200  1
  C  152  1  0.32409800  0.89731400  0.59276800  1
  C  153  1  0.31289300  0.90246800  0.57091100  1
  C  154  1  0.32652900  0.90030800  0.55356300  1
  C  155  1  0.35036500  0.89205400  0.55843100  1
  C  156  1  0.41070400  0.90542100  0.55388500  1
  C  157  1  0.42418900  0.92691200  0.54423200  1
  C  158  1  0.42886900  0.93804900  0.55810400  1
  C  159  1  0.41940700  0.92723400  0.58165100  1
  C  160  1  0.40614000  0.90567500  0.59125200  1
  C  181  1  0.39846400  0.56984400  0.66081500  1
  C  182  1  0.41759700  0.57047600  0.64603700  1
  C  183  1  0.41319700  0.57420100  0.62272700  1
  C  184  1  0.38962600  0.57712200  0.61317000  1
  C  185  1  0.37073100  0.57602100  0.62864400  1
  C  186  1  0.37495800  0.57218700  0.65195100  1
  C  187  1  0.38542500  0.58721000  0.58609000  1
  C  188  1  0.38878500  0.61419100  0.57718600  1
  C  189  1  0.37012500  0.62793600  0.57973200  1
  C  190  1  0.37397700  0.65116000  0.57628000  1
  C  191  1  0.39696600  0.66160300  0.57077000  1
  C  192  1  0.41582300  0.64847100  0.56795100  1
  C  193  1  0.41177600  0.62527300  0.57125700  1
  C  194  1  0.40193900  0.57727400  0.57406000  1
  C  195  1  0.36087900  0.58077100  0.58023900  1
  C  196  1  0.34774600  0.59698200  0.55928500  1
  C  197  1  0.32401800  0.59211900  0.55561500  1
  C  198  1  0.31286200  0.57020000  0.57225400  1
  C  199  1  0.32655000  0.55282900  0.59169800  1
  C  200  1  0.35038800  0.55770500  0.59506700  1
  C  201  1  0.41075900  0.55320600  0.58641000  1
  C  202  1  0.42423200  0.54353700  0.57458000  1
  C  203  1  0.42882400  0.55736200  0.54954900  1
  C  204  1  0.41928700  0.58087600  0.53679400  1
  C  205  1  0.40601900  0.59048400  0.54874300  1
  C  226  1  0.39859500  0.66021700  0.81515700  1
  C  227  1  0.41770100  0.64542900  0.82934400  1
  C  228  1  0.41327800  0.62211500  0.84890700  1
  C  229  1  0.38971000  0.61252700  0.85546300  1
  C  230  1  0.37084100  0.62799200  0.84100900  1
  C  231  1  0.37508800  0.65131000  0.82156200  1
  C  232  1  0.38545500  0.58545400  0.87242200  1
  C  233  1  0.38877300  0.57657700  0.85432300  1
  C  234  1  0.37009000  0.57905000  0.83808300  1
  C  235  1  0.37392700  0.57564400  0.81828100  1
  C  236  1  0.39693000  0.57025900  0.81325800  1
  C  237  1  0.41581200  0.56746900  0.82917300  1
  C  238  1  0.41177900  0.57075200  0.84908500  1
  C  239  1  0.40196400  0.57337800  0.89438800  1
  C  240  1  0.36090600  0.57962300  0.88470400  1
  C  241  1  0.34781800  0.55861400  0.88954600  1
  C  242  1  0.32407000  0.55496200  0.89802500  1
  C  243  1  0.31286800  0.57166700  0.90317700  1
  C  244  1  0.32650900  0.59115500  0.90105600  1
  C  245  1  0.35034500  0.59453900  0.89280000  1
  C  246  1  0.41067300  0.58567600  0.90620300  1
  C  247  1  0.42415900  0.57383200  0.92769200  1
  C  248  1  0.42883300  0.54882400  0.93881900  1
  C  249  1  0.41939500  0.53610900  0.92797600  1
  C  250  1  0.40613300  0.54808100  0.90641500  1
  C  271  1  0.05331700  0.66162700  0.56969700  1
  C  272  1  0.03425700  0.64807800  0.56787100  1
  C  273  1  0.03829500  0.62481500  0.57131600  1
  C  274  1  0.06145100  0.61409200  0.57649300  1
  C  275  1  0.08030800  0.62830300  0.57795700  1
  C  276  1  0.07647000  0.65159100  0.57429900  1
  C  277  1  0.06503300  0.58703900  0.58597500  1
  C  278  1  0.06145900  0.57760100  0.61303300  1
  C  279  1  0.08060900  0.57734600  0.62786600  1
  C  280  1  0.07681300  0.57366600  0.65119000  1
  C  281  1  0.05350000  0.57069200  0.66067300  1
  C  282  1  0.03415200  0.57059000  0.64647300  1
  C  283  1  0.03811300  0.57413400  0.62318300  1
  C  284  1  0.04820500  0.57600000  0.57526000  1
  C  285  1  0.08944500  0.58085400  0.57959100  1
  C  286  1  0.10083900  0.55835100  0.59471100  1
  C  287  1  0.12462800  0.55397100  0.59064400  1
  C  288  1  0.13747600  0.57152800  0.57044100  1
  C  289  1  0.12541300  0.59268000  0.55370600  1
  C  290  1  0.10159500  0.59685400  0.55783100  1
  C  291  1  0.04238900  0.58834900  0.55028100  1
  C  292  1  0.02908300  0.57731900  0.53968000  1
  C  293  1  0.02112000  0.55327400  0.55357000  1
  C  294  1  0.02761700  0.54035500  0.57821400  1
  C  295  1  0.04107400  0.55140700  0.58865000  1
  C  316  1  0.05348000  0.81361500  0.66215900  1
  C  317  1  0.03441100  0.82898700  0.64862700  1
  C  318  1  0.03844800  0.84882800  0.62537400  1
  C  319  1  0.06161400  0.85442000  0.61466200  1
  C  320  1  0.08048000  0.83878100  0.62889600  1
  C  321  1  0.07664900  0.81912900  0.65217200  1
  C  322  1  0.06515300  0.87199100  0.58760700  1
  C  323  1  0.06157200  0.85436500  0.57817700  1
  C  324  1  0.08071100  0.83975500  0.57796800  1
  C  325  1  0.07689300  0.82008100  0.57434000  1
  C  326  1  0.05358800  0.81364500  0.57125200  1
  C  327  1  0.03425500  0.82799100  0.57109400  1
  C  328  1  0.03822700  0.84772200  0.57466300  1
  C  329  1  0.04831600  0.89373800  0.57657600  1
  C  330  1  0.08955800  0.88457200  0.58140700  1
  C  331  1  0.10099300  0.89187000  0.55894200  1
  C  332  1  0.12473900  0.90042900  0.55452200  1
  C  333  1  0.13752100  0.90328300  0.57198800  1
  C  334  1  0.12543100  0.89885900  0.59313200  1
  C  335  1  0.10164300  0.89046200  0.59734100  1
  C  336  1  0.04243600  0.90632700  0.58895100  1
  C  337  1  0.02914400  0.92796600  0.57791600  1
  C  338  1  0.02126500  0.93816800  0.55384100  1
  C  339  1  0.02779400  0.92646800  0.54090700  1
  C  340  1  0.04124400  0.90497700  0.55196300  1
  C  361  1  0.05343300  0.56904800  0.81430000  1
  C  362  1  0.03438800  0.56714100  0.82972300  1
  C  363  1  0.03842100  0.57062800  0.84951700  1
  C  364  1  0.06156500  0.57587700  0.85502000  1
  C  365  1  0.08041000  0.57740600  0.83930600  1
  C  366  1  0.07656700  0.57376200  0.81966900  1
  C  367  1  0.06513900  0.58536600  0.87258600  1
  C  368  1  0.06158700  0.61242800  0.85495100  1
  C  369  1  0.08074000  0.62728900  0.84042800  1
  C  370  1  0.07692900  0.65059700  0.82076200  1
  C  371  1  0.05361100  0.66006600  0.81422800  1
  C  372  1  0.03426100  0.64582900  0.82849200  1
  C  373  1  0.03822600  0.62253200  0.84822700  1
  C  374  1  0.04830200  0.57467200  0.89433500  1
  C  375  1  0.08954300  0.57897600  0.88516400  1
  C  376  1  0.10090500  0.59407100  0.89259800  1
  C  377  1  0.12465900  0.58996700  0.90113900  1
  C  378  1  0.13750800  0.56974300  0.90384200  1
  C  379  1  0.12549200  0.55305100  0.89932700  1
  C  380  1  0.10171700  0.55723500  0.89089500  1
  C  381  1  0.04253800  0.54968000  0.90699200  1
  C  382  1  0.02920700  0.53908700  0.92860800  1
  C  383  1  0.02117900  0.55299500  0.93872000  1
  C  384  1  0.02761300  0.57765600  0.92695900  1
  C  385  1  0.04108800  0.58808900  0.90548200  1
  C  406  1  0.55340700  0.36802000  0.46101400  1
  C  407  1  0.53434200  0.38153000  0.46289800  1
  C  408  1  0.53836200  0.40478000  0.45950000  1
  C  409  1  0.56150300  0.41553600  0.45428400  1
  C  410  1  0.58036600  0.40136100  0.45276700  1
  C  411  1  0.57655000  0.37807700  0.45640800  1
  C  412  1  0.56506100  0.44258500  0.44482800  1
  C  413  1  0.56147300  0.45204800  0.41776700  1
  C  414  1  0.58062000  0.45236800  0.40290300  1
  C  415  1  0.57680800  0.45605300  0.37957700  1
  C  416  1  0.55349300  0.45906800  0.37008500  1
  C  417  1  0.53414900  0.45910100  0.38432200  1
  C  418  1  0.53812000  0.45547200  0.40764300  1
  C  419  1  0.54822700  0.45360400  0.45555900  1
  C  420  1  0.58946900  0.44876900  0.45122100  1
  C  421  1  0.60085600  0.47128200  0.43611600  1
  C  422  1  0.62462700  0.47568200  0.44021300  1
  C  423  1  0.63747500  0.45812100  0.46041600  1
  C  424  1  0.62541600  0.43696000  0.47713900  1
  C  425  1  0.60161400  0.43276800  0.47298200  1
  C  426  1  0.54240600  0.44123300  0.48053900  1
  C  427  1  0.52911200  0.45225200  0.49115800  1
  C  428  1  0.52117800  0.47631000  0.47728600  1
  C  429  1  0.52764200  0.48923800  0.45263600  1
  C  430  1  0.54109000  0.47819500  0.44218400  1
  C  451  1  0.55338600  0.21595100  0.36870500  1
  C  452  1  0.53434900  0.20048900  0.38218100  1
  C  453  1  0.53839600  0.18064200  0.40543000  1
  C  454  1  0.56153500  0.17512800  0.41619800  1
  C  455  1  0.58036200  0.19088500  0.40202400  1
  C  456  1  0.57653200  0.21053200  0.37874700  1
  C  457  1  0.56510900  0.15755100  0.44324600  1
  C  458  1  0.56156200  0.17515600  0.45270500  1
  C  459  1  0.58070600  0.18969400  0.45303900  1
  C  460  1  0.57690100  0.20936100  0.45668200  1
  C  461  1  0.55358300  0.21590600  0.45959400  1
  C  462  1  0.53423300  0.20163000  0.45965000  1
  C  463  1  0.53820500  0.18190700  0.45606800  1
  C  464  1  0.54827000  0.13580700  0.45429200  1
  C  465  1  0.58951700  0.14497600  0.44941200  1
  C  466  1  0.60090700  0.13754500  0.47192800  1
  C  467  1  0.62467000  0.12902700  0.47634100  1
  C  468  1  0.63753200  0.12645400  0.45874800  1
  C  469  1  0.62550400  0.13096900  0.43754800  1
  C  470  1  0.60169600  0.13930100  0.43336600  1
  C  471  1  0.54251700  0.12314200  0.44196000  1
  C  472  1  0.52921400  0.10150800  0.45298400  1
  C  473  1  0.52122400  0.09136700  0.47701700  1
  C  474  1  0.52763700  0.10313300  0.48991700  1
  C  475  1  0.54108500  0.12462600  0.47886700  1
  C  496  1  0.55342200  0.46046900  0.21658600  1
  C  497  1  0.53437400  0.46235500  0.20117400  1
  C  498  1  0.53840700  0.45890100  0.18136000  1
  C  499  1  0.56154800  0.45362900  0.17587200  1
  C  500  1  0.58038400  0.45206300  0.19160900  1
  C  501  1  0.57655500  0.45575300  0.21122000  1
  C  502  1  0.56512200  0.44415900  0.15829000  1
  C  503  1  0.56156400  0.41709500  0.17590900  1
  C  504  1  0.58071700  0.40221800  0.19041600  1
  C  505  1  0.57689900  0.37890000  0.21006600  1
  C  506  1  0.55357900  0.36944100  0.21659800  1
  C  507  1  0.53422900  0.38370200  0.20236100  1
  C  508  1  0.53819900  0.40699800  0.18262700  1
  C  509  1  0.54829200  0.45486500  0.13653500  1
  C  510  1  0.58953000  0.45056000  0.14571400  1
  C  511  1  0.60089300  0.43548400  0.13825800  1
  C  512  1  0.62464300  0.43960200  0.12970300  1
  C  513  1  0.63750000  0.45980600  0.12704100  1
  C  514  1  0.62548700  0.47647000  0.13160200  1
  C  515  1  0.60170700  0.47228900  0.14001500  1
  C  516  1  0.54252600  0.47985700  0.12389000  1
  C  517  1  0.52921400  0.49046300  0.10226100  1
  C  518  1  0.52119000  0.47656600  0.09213400  1
  C  519  1  0.52763700  0.45190800  0.10388200  1
  C  520  1  0.54107400  0.44145500  0.12538300  1
  C  541  1  0.91563900  0.31615400  0.27160800  1
  C  542  1  0.90260400  0.31488500  0.29136100  1
  C  543  1  0.90227900  0.29249400  0.31376400  1
  C  544  1  0.91498700  0.27244500  0.31531700  1
  C  547  1  0.89001200  0.29137500  0.33374500  1
  C  548  1  0.87796000  0.31156000  0.33172900  1
  C  549  1  0.87826000  0.33343100  0.30982900  1
  C  550  1  0.89062300  0.33514200  0.28992800  1
  C  555  1  0.91899300  0.33663800  0.24940400  1
  C  557  1  0.91779700  0.25015800  0.33585000  1
  C  559  1  0.91556400  0.27097800  0.45787100  1
  C  560  1  0.90252800  0.29072900  0.43938500  1
  C  561  1  0.90219000  0.31312800  0.43937900  1
  C  562  1  0.91488100  0.31468000  0.45788200  1
  C  565  1  0.88990700  0.33310300  0.42052700  1
  C  566  1  0.87785400  0.33108500  0.40236100  1
  C  567  1  0.87817400  0.30919000  0.40237900  1
  C  568  1  0.89054700  0.28929300  0.42056200  1
  C  573  1  0.91895300  0.24878300  0.45957800  1
  C  575  1  0.91770400  0.33521400  0.45963000  1
  C  577  1  0.91543800  0.45711800  0.31678600  1
  C  578  1  0.90235600  0.43866400  0.31550700  1
  C  579  1  0.90201900  0.43865500  0.29311500  1
  C  580  1  0.91474900  0.45712800  0.27307100  1
  C  583  1  0.88968700  0.41983400  0.29197800  1
  C  584  1  0.87759400  0.40169600  0.31215000  1
  C  585  1  0.87791600  0.40171400  0.33402700  1
  C  586  1  0.89033500  0.41986700  0.33575300  1
  C  591  1  0.91883700  0.45880700  0.33728300  1
  C  593  1  0.91761400  0.45883000  0.25081400  1
  C  595  1  0.41563600  0.71341000  0.75928000  1
  C  596  1  0.40258400  0.71465300  0.73954700  1
  C  597  1  0.40222400  0.73703800  0.71713900  1
  C  598  1  0.41489600  0.75711400  0.71556600  1
  C  601  1  0.38993400  0.73813900  0.69717800  1
  C  602  1  0.37790200  0.71793800  0.69921400  1
  C  603  1  0.37824100  0.69607000  0.72111600  1
  C  604  1  0.39061900  0.69437900  0.74100200  1
  C  609  1  0.41900200  0.69294400  0.78149800  1
  C  611  1  0.41773100  0.77936800  0.69500600  1
  C  613  1  0.41561500  0.75856700  0.57299700  1
  C  614  1  0.40258300  0.73881500  0.59148600  1
  C  615  1  0.40224800  0.71641300  0.59149600  1
  C  616  1  0.41494600  0.71485700  0.57299800  1
  C  619  1  0.38998300  0.69643200  0.61036300  1
  C  620  1  0.37794400  0.69844800  0.62853700  1
  C  621  1  0.37825200  0.72034900  0.62850900  1
  C  622  1  0.39061200  0.74024800  0.61031600  1
  C  627  1  0.41897400  0.78077200  0.57127400  1
  C  629  1  0.41774200  0.69433000  0.57123200  1
  C  631  1  0.41543700  0.57246500  0.71405800  1
  C  632  1  0.40236000  0.59091700  0.71534400  1
  C  633  1  0.40204000  0.59092900  0.73773600  1
  C  634  1  0.41479400  0.57246500  0.75776600  1
  C  637  1  0.38971400  0.60975000  0.73887700  1
  C  638  1  0.37759900  0.62787700  0.71871600  1
  C  639  1  0.37790100  0.62785500  0.69684100  1
  C  640  1  0.39031800  0.60970500  0.69510700  1
  C  645  1  0.41883200  0.57078300  0.69355700  1
  C  647  1  0.41764700  0.57074500  0.78003400  1
  C  649  1  0.03635100  0.57232700  0.75819100  1
  C  650  1  0.04976500  0.59059400  0.73861500  1
  C  651  1  0.04991100  0.59083600  0.71609900  1
  C  652  1  0.03664100  0.57280200  0.71425100  1
  C  655  1  0.06258500  0.60946600  0.69629100  1
  C  656  1  0.07514900  0.62723400  0.69856100  1
  C  657  1  0.07498400  0.62702000  0.72055700  1
  C  658  1  0.06227300  0.60902400  0.74030500  1
  C  663  1  0.03304900  0.57045100  0.78046900  1
  C  665  1  0.03338600  0.57156000  0.69349700  1
  C  667  1  0.03626100  0.71444400  0.57302000  1
  C  668  1  0.04974100  0.71577200  0.59124000  1
  C  669  1  0.04993500  0.73806300  0.59145100  1
  C  670  1  0.03665400  0.75794100  0.57342900  1
  C  673  1  0.06265900  0.73925600  0.61004800  1
  C  674  1  0.07522800  0.71921500  0.62781100  1
  C  675  1  0.07502700  0.69742500  0.62761700  1
  C  676  1  0.06227100  0.69566000  0.60965300  1
  C  681  1  0.03295200  0.69403600  0.57115400  1
  C  683  1  0.03343100  0.77995300  0.57216000  1
  C  685  1  0.03642400  0.75748800  0.71498600  1
  C  686  1  0.04992800  0.73793500  0.71635000  1
  C  687  1  0.05007600  0.71543100  0.73864200  1
  C  688  1  0.03670600  0.71357400  0.75847300  1
  C  691  1  0.06282200  0.69563800  0.73986300  1
  C  692  1  0.07545600  0.69791400  0.71985800  1
  C  693  1  0.07530200  0.71990100  0.69806900  1
  C  694  1  0.06251900  0.73963100  0.69627100  1
  C  699  1  0.03312100  0.77974600  0.69456000  1
  C  701  1  0.03348700  0.69284100  0.78049800  1
  C  703  1  0.53633500  0.45725700  0.27266400  1
  C  704  1  0.54974500  0.43900700  0.29225600  1
  C  705  1  0.54988900  0.43880400  0.31475500  1
  C  706  1  0.53660800  0.45685200  0.31656500  1
  C  709  1  0.56255700  0.42019200  0.33458000  1
  C  710  1  0.57512500  0.40240400  0.33234400  1
  C  711  1  0.57496700  0.40258200  0.31036600  1
  C  712  1  0.56226500  0.42056300  0.29060100  1
  C  717  1  0.53303900  0.45909400  0.25040200  1
  C  719  1  0.53336900  0.45816400  0.33728400  1
  C  721  1  0.53639300  0.31514900  0.45777500  1
  C  722  1  0.54986700  0.31379400  0.43956700  1
  C  723  1  0.55003400  0.29149600  0.43936900  1
  C  724  1  0.53672200  0.27164200  0.45738500  1
  C  727  1  0.56276700  0.29027200  0.42079500  1
  C  728  1  0.57537200  0.31028600  0.40304100  1
  C  729  1  0.57519100  0.33208700  0.40321500  1
  C  730  1  0.56242100  0.33388400  0.42115500  1
  C  735  1  0.53306400  0.33558100  0.45959300  1
  C  737  1  0.53346800  0.24963300  0.45865400  1
  C  739  1  0.53631000  0.27204800  0.31586100  1
  C  740  1  0.54981000  0.29160100  0.31450000  1
  C  741  1  0.54999800  0.31409100  0.29219700  1
  C  742  1  0.53669200  0.31592900  0.27233900  1
  C  745  1  0.56274300  0.33388400  0.29097100  1
  C  746  1  0.57533600  0.33162500  0.31099100  1
  C  747  1  0.57513700  0.30965400  0.33279700  1
  C  748  1  0.56236200  0.28992200  0.33459300  1
  C  753  1  0.53300300  0.24979000  0.33628600  1
  C  755  1  0.53345300  0.33666500  0.25032600  1
  C  757  1  0.74931200  0.11911100  0.45908200  1
  C  758  1  0.73745800  0.14152200  0.45124300  1
  C  759  1  0.71265900  0.14118100  0.45704600  1
  C  760  1  0.70083300  0.11848600  0.46984000  1
  C  763  1  0.70080500  0.16339600  0.44987700  1
  C  764  1  0.71288300  0.18550000  0.43682600  1
  C  765  1  0.73703100  0.18586900  0.43063300  1
  C  766  1  0.74920100  0.16411800  0.43776200  1
  C  771  1  0.77300900  0.11686400  0.45450400  1
  C  773  1  0.67694200  0.11568400  0.47605100  1
  C  775  1  0.74921700  0.45846200  0.46737500  1
  C  776  1  0.73735600  0.45071100  0.45273400  1
  C  777  1  0.71255700  0.45653300  0.44729000  1
  C  778  1  0.70074200  0.46925200  0.45727600  1
  C  781  1  0.70068800  0.44944300  0.43219000  1
  C  782  1  0.71275600  0.43645800  0.42305500  1
  C  783  1  0.73690900  0.43026000  0.42884800  1
  C  784  1  0.74909000  0.43730500  0.44353100  1
  C  789  1  0.77290700  0.45384200  0.47421800  1
  C  791  1  0.67685900  0.47549800  0.45386900  1
  C  793  1  0.74925700  0.46674900  0.11968500  1
  C  794  1  0.73740800  0.45212600  0.14208900  1
  C  795  1  0.71260400  0.44668700  0.14173600  1
  C  796  1  0.70077100  0.45665700  0.11904200  1
  C  799  1  0.70074700  0.43160400  0.16393800  1
  C  800  1  0.71283300  0.42248200  0.18604700  1
  C  801  1  0.73699200  0.42827300  0.18642800  1
  C  802  1  0.74915800  0.44294100  0.16468700  1
  C  807  1  0.77295000  0.47358300  0.11743700  1
  C  809  1  0.67687900  0.45326100  0.11622400  1
  C  811  1  0.24926100  0.91044300  0.57179100  1
  C  812  1  0.23738000  0.88806600  0.57951100  1
  C  813  1  0.21258300  0.88847400  0.57366900  1
  C  814  1  0.20079200  0.91119200  0.56095700  1
  C  817  1  0.20069100  0.86630100  0.58073800  1
  C  818  1  0.21273400  0.84416600  0.59372000  1
  C  819  1  0.23688700  0.84373100  0.59993200  1
  C  820  1  0.24909100  0.86544300  0.59291000  1
  C  825  1  0.27296000  0.91263600  0.57641000  1
  C  827  1  0.17692000  0.91406000  0.55467300  1
  C  829  1  0.24923800  0.57109700  0.56343900  1
  C  830  1  0.23740500  0.57892900  0.57802700  1
  C  831  1  0.21260300  0.57314300  0.58349000  1
  C  832  1  0.20075600  0.56037600  0.57357300  1
  C  835  1  0.20076600  0.58030900  0.59854500  1
  C  836  1  0.21286600  0.59333500  0.60761500  1
  C  837  1  0.23702000  0.59950500  0.60179500  1
  C  838  1  0.24917200  0.59238200  0.58715900  1
  C  843  1  0.27293100  0.57566800  0.55659500  1
  C  845  1  0.17686400  0.55416900  0.57699400  1
  C  847  1  0.24923300  0.56281900  0.91113900  1
  C  848  1  0.23737100  0.57750500  0.88875800  1
  C  849  1  0.21257100  0.58293300  0.88915300  1
  C  850  1  0.20075600  0.57289000  0.91186300  1
  C  853  1  0.20069700  0.59806800  0.86697600  1
  C  854  1  0.21276100  0.60725600  0.84485000  1
  C  855  1  0.23691600  0.60147900  0.84442500  1
  C  856  1  0.24910200  0.58676100  0.86614000  1
  C  861  1  0.27292700  0.55599200  0.91334000  1
  C  863  1  0.17687300  0.57628500  0.91471300  1
  C  865  1  0.98587600  0.99181400  0.51714700  1
  C  866  1  0.98520400  0.00884000  0.49197300  1
  C  867  1  0.97559100  0.03241700  0.48406700  1
  C  868  1  0.96647300  0.03775200  0.50170300  1
  C  871  1  0.97604200  0.04965500  0.45903100  1
  C  872  1  0.98502700  0.04378800  0.44211200  1
  C  873  1  0.99406200  0.02063100  0.44984000  1
  C  874  1  0.99430600  0.00338600  0.47452100  1
  C  879  1  0.99412400  0.96833200  0.52690500  1
  C  881  1  0.95640200  0.05939400  0.49748800  1
  C  883  1  0.98575300  0.51657800  0.53660300  1
  C  884  1  0.98508000  0.49140300  0.54476000  1
  C  885  1  0.97547900  0.48348800  0.52909100  1
  C  886  1  0.96637700  0.50111900  0.50611000  1
  C  889  1  0.97593300  0.45845100  0.53689900  1
  C  890  1  0.98490600  0.44153800  0.55969200  1
  C  891  1  0.99392500  0.44927500  0.57512100  1
  C  892  1  0.99416100  0.47395600  0.56767900  1
  C  897  1  0.99398800  0.52634400  0.55032400  1
  C  899  1  0.95632300  0.49689500  0.48868300  1
  C  901  1  0.98581700  0.53599000  0.99239300  1
  C  902  1  0.98516200  0.54412300  0.00943100  1
  C  903  1  0.97555800  0.52844300  0.03301100  1
  C  904  1  0.96644200  0.50547400  0.03833900  1
  C  907  1  0.97603400  0.53622400  0.05026100  1
  C  908  1  0.98503400  0.55900200  0.04440400  1
  C  909  1  0.99404600  0.57444800  0.02123900  1
  C  910  1  0.99426800  0.56702500  0.00398300  1
  C  915  1  0.99404700  0.54972700  0.96890700  1
  C  917  1  0.95635200  0.48805000  0.05997300  1
  C  919  1  0.48581300  0.03772800  0.51367900  1
  C  920  1  0.48513400  0.02071600  0.53885600  1
  C  921  1  0.47553400  0.99713100  0.54677600  1
  C  922  1  0.46643800  0.99177400  0.52914900  1
  C  925  1  0.47598400  0.97990800  0.57181500  1
  C  926  1  0.48494900  0.98579800  0.58872600  1
  C  927  1  0.49396600  0.00896500  0.58098300  1
  C  928  1  0.49421200  0.02619500  0.55629900  1
  C  933  1  0.49404300  0.06121500  0.50391000  1
  C  935  1  0.45637400  0.97012400  0.53337700  1
  C  937  1  0.48578800  0.51297000  0.49427900  1
  C  938  1  0.48511800  0.53814300  0.48612900  1
  C  939  1  0.47551600  0.54605200  0.50180200  1
  C  940  1  0.46640400  0.52841900  0.52477700  1
  C  943  1  0.47597000  0.57108900  0.49400000  1
  C  944  1  0.48494200  0.58800600  0.47120700  1
  C  945  1  0.49396600  0.58027500  0.45577600  1
  C  946  1  0.49421000  0.55559300  0.46321700  1
  C  951  1  0.49402000  0.50321100  0.48055200  1
  C  953  1  0.45634500  0.53264000  0.54220500  1
  C  955  1  0.48580400  0.49355300  0.03848100  1
  C  956  1  0.48515200  0.48541000  0.02145100  1
  C  957  1  0.47554300  0.50108000  0.99787000  1
  C  958  1  0.46641100  0.52404500  0.99253800  1
  C  961  1  0.47601800  0.49328700  0.98063000  1
  C  962  1  0.48501900  0.47050800  0.98649600  1
  C  963  1  0.49404500  0.45507800  0.00965700  1
  C  964  1  0.49426200  0.46250600  0.02690800  1
  C  969  1  0.49403600  0.47982700  0.06196600  1
  C  971  1  0.45634000  0.54146900  0.97089300  1
  C  973  1  0.89858300  0.01195200  0.13228700  1
  C  974  1  0.91770800  0.99778819  0.13167181  1
  C  975  1  0.91331200  0.97824920  0.12787380  1
  C  976  1  0.88975000  0.97168120  0.12485680  1
  C  977  1  0.87085200  0.98609420  0.12588980  1
  C  978  1  0.87508400  0.00554000  0.12976500  1
  C  979  1  0.88551100  0.95469420  0.11476680  1
  C  980  1  0.88884500  0.97279020  0.08778680  1
  C  981  1  0.87016600  0.98902520  0.07401380  1
  C  982  1  0.87402800  0.00881200  0.05080500  1
  C  983  1  0.89703200  0.01379800  0.04039600  1
  C  984  1  0.91590000  0.99787319  0.05354181  1
  C  985  1  0.91185500  0.97797120  0.07673980  1
  C  986  1  0.90201300  0.93271920  0.12467780  1
  C  987  1  0.86096500  0.94240420  0.12122080  1
  C  988  1  0.84786400  0.93758320  0.10504580  1
  C  989  1  0.82411600  0.92910420  0.10988480  1
  C  990  1  0.81293800  0.92391420  0.13176480  1
  C  991  1  0.82660400  0.92599020  0.14914380  1
  C  992  1  0.85043000  0.93427120  0.14425180  1
  C  993  1  0.91077600  0.92095820  0.14876980  1
  C  994  1  0.92426500  0.89947100  0.15842100  1
  C  995  1  0.92889800  0.88830400  0.14456800  1
  C  996  1  0.91943200  0.89911700  0.12102100  1
  C  997  1  0.90616600  0.92067720  0.11142080  1
  C  1018  1  0.89847400  0.25658900  0.04182500  1
  C  1019  1  0.91760700  0.25595700  0.05660500  1
  C  1020  1  0.91321900  0.25224700  0.07991000  1
  C  1021  1  0.88965800  0.24925500  0.08949100  1
  C  1022  1  0.87075100  0.25031800  0.07404200  1
  C  1023  1  0.87497300  0.25417400  0.05072600  1
  C  1024  1  0.88542600  0.23917400  0.11656800  1
  C  1025  1  0.88878400  0.21219400  0.12547400  1
  C  1026  1  0.87010900  0.19843000  0.12298300  1
  C  1027  1  0.87395900  0.17520800  0.12643000  1
  C  1028  1  0.89695000  0.16477200  0.13190900  1
  C  1029  1  0.91582100  0.17792000  0.13468000  1
  C  1030  1  0.91178400  0.20112800  0.13135400  1
  C  1031  1  0.90193900  0.24910300  0.12860600  1
  C  1032  1  0.86087900  0.24562400  0.12240800  1
  C  1033  1  0.84777000  0.22944400  0.14339400  1
  C  1034  1  0.82402100  0.23428900  0.14703200  1
  C  1035  1  0.81283800  0.25616100  0.13032300  1
  C  1036  1  0.82652900  0.27355200  0.11090000  1
  C  1037  1  0.85036400  0.26866900  0.10753300  1
  C  1038  1  0.91072100  0.27318600  0.11627200  1
  C  1039  1  0.92420800  0.28284400  0.12810400  1
  C  1040  1  0.92881400  0.26900600  0.15313100  1
  C  1041  1  0.91930800  0.24547800  0.16587400  1
  C  1042  1  0.90604500  0.23587400  0.15391600  1
  C  1063  1  0.89856700  0.16621000  0.88758300  1
  C  1064  1  0.91767400  0.18094700  0.87333600  1
  C  1065  1  0.91325600  0.20425100  0.85375500  1
  C  1066  1  0.88969500  0.21386100  0.84721600  1
  C  1067  1  0.87082600  0.19842600  0.86171400  1
  C  1068  1  0.87506100  0.17510700  0.88116100  1
  C  1069  1  0.88545000  0.24093200  0.83023800  1
  C  1070  1  0.88876300  0.24982500  0.84832500  1
  C  1071  1  0.87006400  0.24740900  0.86452700  1
  C  1072  1  0.87389700  0.25081900  0.88432700  1
  C  1073  1  0.89690700  0.25615400  0.88938500  1
  C  1074  1  0.91580300  0.25889300  0.87350200  1
  C  1075  1  0.91177700  0.25560300  0.85359500  1
  C  1076  1  0.90197000  0.25299600  0.80827900  1
  C  1077  1  0.86091000  0.24676100  0.81793900  1
  C  1078  1  0.84784200  0.26779700  0.81304200  1
  C  1079  1  0.82411400  0.27148400  0.80450200  1
  C  1080  1  0.81289000  0.25474800  0.79940400  1
  C  1081  1  0.82651500  0.23522000  0.80159600  1
  C  1082  1  0.85033900  0.23181700  0.80988300  1
  C  1083  1  0.91065300  0.24069700  0.79645600  1
  C  1084  1  0.92414800  0.25253400  0.77497000  1
  C  1085  1  0.92885800  0.27753500  0.76385700  1
  C  1086  1  0.91943800  0.29025400  0.77470400  1
  C  1087  1  0.90616900  0.27828900  0.79626100  1
  C  1108  1  0.39857300  0.61124700  0.24217800  1
  C  1109  1  0.41768800  0.62540700  0.24281800  1
  C  1110  1  0.41328100  0.64496800  0.24657600  1
  C  1111  1  0.38971600  0.65151200  0.24961360  1
  C  1112  1  0.37083200  0.63706600  0.24861800  1
  C  1113  1  0.37507000  0.61765000  0.24469400  1
  C  1114  1  0.38546800  0.66849800  0.25970260  1
  C  1115  1  0.38880300  0.65040100  0.28668160  1
  C  1116  1  0.37011600  0.63418100  0.30046160  1
  C  1117  1  0.37397400  0.61439600  0.32367360  1
  C  1118  1  0.39698500  0.60939000  0.33406660  1
  C  1119  1  0.41586200  0.62529600  0.32091060  1
  C  1120  1  0.41181500  0.64521500  0.29772660  1
  C  1121  1  0.40196400  0.69047700  0.24978960  1
  C  1122  1  0.36091800  0.68078100  0.25325160  1
  C  1123  1  0.34783600  0.68563100  0.26941560  1
  C  1124  1  0.32409800  0.69414500  0.26457160  1
  C  1125  1  0.31289300  0.69929900  0.24271460  1
  C  1126  1  0.32652900  0.69713900  0.22536660  1
  C  1127  1  0.35036500  0.68888500  0.23023460  1
  C  1128  1  0.41070400  0.70225200  0.22568860  1
  C  1129  1  0.42418900  0.72374300  0.21603560  1
  C  1130  1  0.42886900  0.73488000  0.22990760  1
  C  1131  1  0.41940700  0.72406500  0.25345460  1
  C  1132  1  0.40614000  0.70250600  0.26305560  1
  C  1153  1  0.39846400  0.36667500  0.33261900  1
  C  1154  1  0.41759700  0.36730700  0.31784100  1
  C  1155  1  0.41319700  0.37103200  0.29453100  1
  C  1156  1  0.38962600  0.37395300  0.28497400  1
  C  1157  1  0.37073100  0.37285200  0.30044800  1
  C  1158  1  0.37495800  0.36901800  0.32375500  1
  C  1159  1  0.38542500  0.38404100  0.25789400  1
  C  1160  1  0.38878500  0.41102200  0.24899000  1
  C  1161  1  0.37012500  0.42476700  0.25153600  1
  C  1162  1  0.37397700  0.44799100  0.24808400  1
  C  1163  1  0.39696600  0.45843400  0.24257400  1
  C  1164  1  0.41582300  0.44530200  0.23975500  1
  C  1165  1  0.41177600  0.42210400  0.24306100  1
  C  1166  1  0.40193900  0.37410500  0.24586400  1
  C  1167  1  0.36087900  0.37760200  0.25204300  1
  C  1168  1  0.34774600  0.39381300  0.23108900  1
  C  1169  1  0.32401800  0.38895000  0.22741900  1
  C  1170  1  0.31286200  0.36703100  0.24405800  1
  C  1171  1  0.32655000  0.34966000  0.26350200  1
  C  1172  1  0.35038800  0.35453600  0.26687100  1
  C  1173  1  0.41075900  0.35003700  0.25821400  1
  C  1174  1  0.42423200  0.34036800  0.24638400  1
  C  1175  1  0.42882400  0.35419300  0.22135300  1
  C  1176  1  0.41928700  0.37770700  0.20859800  1
  C  1177  1  0.40601900  0.38731500  0.22054700  1
  C  1198  1  0.39859500  0.45704800  0.48696060  1
  C  1199  1  0.41770100  0.44226000  0.50114760  1
  C  1200  1  0.41327800  0.41894600  0.52071060  1
  C  1201  1  0.38971000  0.40935800  0.52726660  1
  C  1202  1  0.37084100  0.42482300  0.51281260  1
  C  1203  1  0.37508800  0.44814100  0.49336560  1
  C  1204  1  0.38545500  0.38228500  0.54422560  1
  C  1205  1  0.38877300  0.37340800  0.52612700  1
  C  1206  1  0.37009000  0.37588100  0.50988700  1
  C  1207  1  0.37392700  0.37247500  0.49008500  1
  C  1208  1  0.39693000  0.36709000  0.48506200  1
  C  1209  1  0.41581200  0.36430000  0.50097700  1
  C  1210  1  0.41177900  0.36758300  0.52088900  1
  C  1211  1  0.40196400  0.37020900  0.56619160  1
  C  1212  1  0.36090600  0.37645400  0.55650760  1
  C  1213  1  0.34781800  0.35544500  0.56134960  1
  C  1214  1  0.32407000  0.35179300  0.56982860  1
  C  1215  1  0.31286800  0.36849800  0.57498060  1
  C  1216  1  0.32650900  0.38798600  0.57285960  1
  C  1217  1  0.35034500  0.39137000  0.56460360  1
  C  1218  1  0.41067300  0.38250700  0.57800660  1
  C  1219  1  0.42415900  0.37066300  0.59949560  1
  C  1220  1  0.42883300  0.34565500  0.61062260  1
  C  1221  1  0.41939500  0.33294000  0.59977960  1
  C  1222  1  0.40613300  0.34491200  0.57821860  1
  C  1243  1  0.05331700  0.45845800  0.24150100  1
  C  1244  1  0.03425700  0.44490900  0.23967500  1
  C  1245  1  0.03829500  0.42164600  0.24312000  1
  C  1246  1  0.06145100  0.41092300  0.24829700  1
  C  1247  1  0.08030800  0.42513400  0.24976100  1
  C  1248  1  0.07647000  0.44842200  0.24610300  1
  C  1249  1  0.06503300  0.38387000  0.25777900  1
  C  1250  1  0.06145900  0.37443200  0.28483700  1
  C  1251  1  0.08060900  0.37417700  0.29967000  1
  C  1252  1  0.07681300  0.37049700  0.32299400  1
  C  1253  1  0.05350000  0.36752300  0.33247700  1
  C  1254  1  0.03415200  0.36742100  0.31827700  1
  C  1255  1  0.03811300  0.37096500  0.29498700  1
  C  1256  1  0.04820500  0.37283100  0.24706400  1
  C  1257  1  0.08944500  0.37768500  0.25139500  1
  C  1258  1  0.10083900  0.35518200  0.26651500  1
  C  1259  1  0.12462800  0.35080200  0.26244800  1
  C  1260  1  0.13747600  0.36835900  0.24224500  1
  C  1261  1  0.12541300  0.38951100  0.22551000  1
  C  1262  1  0.10159500  0.39368500  0.22963500  1
  C  1263  1  0.04238900  0.38518000  0.22208500  1
  C  1264  1  0.02908300  0.37415000  0.21148400  1
  C  1265  1  0.02112000  0.35010500  0.22537400  1
  C  1266  1  0.02761700  0.33718600  0.25001800  1
  C  1267  1  0.04107400  0.34823800  0.26045400  1
  C  1288  1  0.05348000  0.61044600  0.33396260  1
  C  1289  1  0.03441100  0.62581800  0.32043060  1
  C  1290  1  0.03844800  0.64565900  0.29717760  1
  C  1291  1  0.06161400  0.65125100  0.28646560  1
  C  1292  1  0.08048000  0.63561200  0.30069960  1
  C  1293  1  0.07664900  0.61596000  0.32397560  1
  C  1294  1  0.06515300  0.66882200  0.25941060  1
  C  1295  1  0.06157200  0.65119600  0.24998060  1
  C  1296  1  0.08071100  0.63658600  0.24977200  1
  C  1297  1  0.07689300  0.61691200  0.24614400  1
  C  1298  1  0.05358800  0.61047600  0.24305600  1
  C  1299  1  0.03425500  0.62482200  0.24289800  1
  C  1300  1  0.03822700  0.64455300  0.24646700  1
  C  1301  1  0.04831600  0.69056900  0.24837960  1
  C  1302  1  0.08955800  0.68140300  0.25321060  1
  C  1303  1  0.10099300  0.68870100  0.23074560  1
  C  1304  1  0.12473900  0.69726000  0.22632560  1
  C  1305  1  0.13752100  0.70011400  0.24379160  1
  C  1306  1  0.12543100  0.69569000  0.26493560  1
  C  1307  1  0.10164300  0.68729300  0.26914460  1
  C  1308  1  0.04243600  0.70315800  0.26075460  1
  C  1309  1  0.02914400  0.72479700  0.24971960  1
  C  1310  1  0.02126500  0.73499900  0.22564460  1
  C  1311  1  0.02779400  0.72329900  0.21271060  1
  C  1312  1  0.04124400  0.70180800  0.22376660  1
  C  1333  1  0.05343300  0.36587900  0.48610400  1
  C  1334  1  0.03438800  0.36397200  0.50152700  1
  C  1335  1  0.03842100  0.36745900  0.52132100  1
  C  1336  1  0.06156500  0.37270800  0.52682400  1
  C  1337  1  0.08041000  0.37423700  0.51111000  1
  C  1338  1  0.07656700  0.37059300  0.49147300  1
  C  1339  1  0.06513900  0.38219700  0.54438960  1
  C  1340  1  0.06158700  0.40925900  0.52675460  1
  C  1341  1  0.08074000  0.42412000  0.51223160  1
  C  1342  1  0.07692900  0.44742800  0.49256560  1
  C  1343  1  0.05361100  0.45689700  0.48603160  1
  C  1344  1  0.03426100  0.44266000  0.50029560  1
  C  1345  1  0.03822600  0.41936300  0.52003060  1
  C  1346  1  0.04830200  0.37150300  0.56613860  1
  C  1347  1  0.08954300  0.37580700  0.55696760  1
  C  1348  1  0.10090500  0.39090200  0.56440160  1
  C  1349  1  0.12465900  0.38679800  0.57294260  1
  C  1350  1  0.13750800  0.36657400  0.57564560  1
  C  1351  1  0.12549200  0.34988200  0.57113060  1
  C  1352  1  0.10171700  0.35406600  0.56269860  1
  C  1353  1  0.04253800  0.34651100  0.57879560  1
  C  1354  1  0.02920700  0.33591800  0.60041160  1
  C  1355  1  0.02117900  0.34982600  0.61052360  1
  C  1356  1  0.02761300  0.37448700  0.59876260  1
  C  1357  1  0.04108800  0.38492000  0.57728560  1
  C  1378  1  0.55340700  0.16485100  0.13281800  1
  C  1379  1  0.53434200  0.17836100  0.13470200  1
  C  1380  1  0.53836200  0.20161100  0.13130400  1
  C  1381  1  0.56150300  0.21236700  0.12608800  1
  C  1382  1  0.58036600  0.19819200  0.12457100  1
  C  1383  1  0.57655000  0.17490800  0.12821200  1
  C  1384  1  0.56506100  0.23941600  0.11663200  1
  C  1385  1  0.56147300  0.24887900  0.08957100  1
  C  1386  1  0.58062000  0.24919900  0.07470700  1
  C  1387  1  0.57680800  0.25288400  0.05138100  1
  C  1388  1  0.55349300  0.25589900  0.04188900  1
  C  1389  1  0.53414900  0.25593200  0.05612600  1
  C  1390  1  0.53812000  0.25230300  0.07944700  1
  C  1391  1  0.54822700  0.25043500  0.12736300  1
  C  1392  1  0.58946900  0.24560000  0.12302500  1
  C  1393  1  0.60085600  0.26811300  0.10792000  1
  C  1394  1  0.62462700  0.27251300  0.11201700  1
  C  1395  1  0.63747500  0.25495200  0.13222000  1
  C  1396  1  0.62541600  0.23379100  0.14894300  1
  C  1397  1  0.60161400  0.22959900  0.14478600  1
  C  1398  1  0.54240600  0.23806400  0.15234300  1
  C  1399  1  0.52911200  0.24908300  0.16296200  1
  C  1400  1  0.52117800  0.27314100  0.14909000  1
  C  1401  1  0.52764200  0.28606900  0.12444000  1
  C  1402  1  0.54109000  0.27502600  0.11398800  1
  C  1423  1  0.55338600  0.01278200  0.04050900  1
  C  1424  1  0.53434900  0.99732019  0.05398481  1
  C  1425  1  0.53839600  0.97747320  0.07723380  1
  C  1426  1  0.56153500  0.97195920  0.08800180  1
  C  1427  1  0.58036200  0.98771620  0.07382780  1
  C  1428  1  0.57653200  0.00736300  0.05055100  1
  C  1429  1  0.56510900  0.95438220  0.11504980  1
  C  1430  1  0.56156200  0.97198720  0.12450880  1
  C  1431  1  0.58070600  0.98652520  0.12484280  1
  C  1432  1  0.57690100  0.00619200  0.12848600  1
  C  1433  1  0.55358300  0.01273700  0.13139800  1
  C  1434  1  0.53423300  0.99846119  0.13145381  1
  C  1435  1  0.53820500  0.97873820  0.12787180  1
  C  1436  1  0.54827000  0.93263820  0.12609580  1
  C  1437  1  0.58951700  0.94180720  0.12121580  1
  C  1438  1  0.60090700  0.93437620  0.14373180  1
  C  1439  1  0.62467000  0.92585820  0.14814480  1
  C  1440  1  0.63753200  0.92328520  0.13055180  1
  C  1441  1  0.62550400  0.92780020  0.10935180  1
  C  1442  1  0.60169600  0.93613220  0.10516980  1
  C  1443  1  0.54251700  0.91997320  0.11376380  1
  C  1444  1  0.52921400  0.89833900  0.12478800  1
  C  1445  1  0.52122400  0.88819800  0.14882100  1
  C  1446  1  0.52763700  0.89996400  0.16172100  1
  C  1447  1  0.54108500  0.92145720  0.15067080  1
  C  1468  1  0.55342200  0.25730000  0.88839000  1
  C  1469  1  0.53437400  0.25918600  0.87297800  1
  C  1470  1  0.53840700  0.25573200  0.85316400  1
  C  1471  1  0.56154800  0.25046000  0.84767600  1
  C  1472  1  0.58038400  0.24889400  0.86341300  1
  C  1473  1  0.57655500  0.25258400  0.88302400  1
  C  1474  1  0.56512200  0.24099000  0.83009400  1
  C  1475  1  0.56156400  0.21392600  0.84771300  1
  C  1476  1  0.58071700  0.19904900  0.86222000  1
  C  1477  1  0.57689900  0.17573100  0.88187000  1
  C  1478  1  0.55357900  0.16627200  0.88840200  1
  C  1479  1  0.53422900  0.18053300  0.87416500  1
  C  1480  1  0.53819900  0.20382900  0.85443100  1
  C  1481  1  0.54829200  0.25169600  0.80833900  1
  C  1482  1  0.58953000  0.24739100  0.81751800  1
  C  1483  1  0.60089300  0.23231500  0.81006200  1
  C  1484  1  0.62464300  0.23643300  0.80150700  1
  C  1485  1  0.63750000  0.25663700  0.79884500  1
  C  1486  1  0.62548700  0.27330100  0.80340600  1
  C  1487  1  0.60170700  0.26912000  0.81181900  1
  C  1488  1  0.54252600  0.27668800  0.79569400  1
  C  1489  1  0.52921400  0.28729400  0.77406500  1
  C  1490  1  0.52119000  0.27339700  0.76393800  1
  C  1491  1  0.52763700  0.24873900  0.77568600  1
  C  1492  1  0.54107400  0.23828600  0.79718700  1
  C  1513  1  0.91563900  0.11298500  0.94341200  1
  C  1514  1  0.90260400  0.11171600  0.96316500  1
  C  1515  1  0.90227900  0.08932500  0.98556800  1
  C  1516  1  0.91498700  0.06927600  0.98712100  1
  C  1519  1  0.89001200  0.08820600  0.00554900  1
  C  1520  1  0.87796000  0.10839100  0.00353300  1
  C  1521  1  0.87826000  0.13026200  0.98163300  1
  C  1522  1  0.89062300  0.13197300  0.96173200  1
  C  1527  1  0.91899300  0.13346900  0.92120800  1
  C  1529  1  0.91779700  0.04698900  0.00765400  1
  C  1531  1  0.91556400  0.06780900  0.12967500  1
  C  1532  1  0.90252800  0.08756000  0.11118900  1
  C  1533  1  0.90219000  0.10995900  0.11118300  1
  C  1534  1  0.91488100  0.11151100  0.12968600  1
  C  1537  1  0.88990700  0.12993400  0.09233100  1
  C  1538  1  0.87785400  0.12791600  0.07416500  1
  C  1539  1  0.87817400  0.10602100  0.07418300  1
  C  1540  1  0.89054700  0.08612400  0.09236600  1
  C  1545  1  0.91895300  0.04561400  0.13138200  1
  C  1547  1  0.91770400  0.13204500  0.13143400  1
  C  1549  1  0.91543800  0.25394900  0.98859000  1
  C  1550  1  0.90235600  0.23549500  0.98731100  1
  C  1551  1  0.90201900  0.23548600  0.96491900  1
  C  1552  1  0.91474900  0.25395900  0.94487500  1
  C  1555  1  0.88968700  0.21666500  0.96378200  1
  C  1556  1  0.87759400  0.19852700  0.98395400  1
  C  1557  1  0.87791600  0.19854500  0.00583100  1
  C  1558  1  0.89033500  0.21669800  0.00755700  1
  C  1563  1  0.91883700  0.25563800  0.00908700  1
  C  1565  1  0.91761400  0.25566100  0.92261800  1
  C  1567  1  0.41563600  0.51024100  0.43108360  1
  C  1568  1  0.40258400  0.51148400  0.41135060  1
  C  1569  1  0.40222400  0.53386900  0.38894260  1
  C  1570  1  0.41489600  0.55394500  0.38736960  1
  C  1573  1  0.38993400  0.53497000  0.36898160  1
  C  1574  1  0.37790200  0.51476900  0.37101800  1
  C  1575  1  0.37824100  0.49290100  0.39292000  1
  C  1576  1  0.39061900  0.49121000  0.41280560  1
  C  1581  1  0.41900200  0.48977500  0.45330160  1
  C  1583  1  0.41773100  0.57619900  0.36680960  1
  C  1585  1  0.41561500  0.55539800  0.24480100  1
  C  1586  1  0.40258300  0.53564600  0.26329000  1
  C  1587  1  0.40224800  0.51324400  0.26330000  1
  C  1588  1  0.41494600  0.51168800  0.24480200  1
  C  1591  1  0.38998300  0.49326300  0.28216700  1
  C  1592  1  0.37794400  0.49527900  0.30034100  1
  C  1593  1  0.37825200  0.51718000  0.30031300  1
  C  1594  1  0.39061200  0.53707900  0.28212000  1
  C  1599  1  0.41897400  0.57760300  0.24307800  1
  C  1601  1  0.41774200  0.49116100  0.24303600  1
  C  1603  1  0.41543700  0.36929600  0.38586200  1
  C  1604  1  0.40236000  0.38774800  0.38714800  1
  C  1605  1  0.40204000  0.38776000  0.40954000  1
  C  1606  1  0.41479400  0.36929600  0.42957000  1
  C  1609  1  0.38971400  0.40658100  0.41068100  1
  C  1610  1  0.37759900  0.42470800  0.39052000  1
  C  1611  1  0.37790100  0.42468600  0.36864500  1
  C  1612  1  0.39031800  0.40653600  0.36691100  1
  C  1617  1  0.41883200  0.36761400  0.36536100  1
  C  1619  1  0.41764700  0.36757600  0.45183800  1
  C  1621  1  0.03635100  0.36915800  0.42999500  1
  C  1622  1  0.04976500  0.38742500  0.41041900  1
  C  1623  1  0.04991100  0.38766700  0.38790300  1
  C  1624  1  0.03664100  0.36963300  0.38605500  1
  C  1627  1  0.06258500  0.40629700  0.36809500  1
  C  1628  1  0.07514900  0.42406500  0.37036500  1
  C  1629  1  0.07498400  0.42385100  0.39236100  1
  C  1630  1  0.06227300  0.40585500  0.41210900  1
  C  1635  1  0.03304900  0.36728200  0.45227300  1
  C  1637  1  0.03338600  0.36839100  0.36530100  1
  C  1639  1  0.03626100  0.51127500  0.24482400  1
  C  1640  1  0.04974100  0.51260300  0.26304400  1
  C  1641  1  0.04993500  0.53489400  0.26325500  1
  C  1642  1  0.03665400  0.55477200  0.24523300  1
  C  1645  1  0.06265900  0.53608700  0.28185200  1
  C  1646  1  0.07522800  0.51604600  0.29961500  1
  C  1647  1  0.07502700  0.49425600  0.29942100  1
  C  1648  1  0.06227100  0.49249100  0.28145700  1
  C  1653  1  0.03295200  0.49086700  0.24295800  1
  C  1655  1  0.03343100  0.57678400  0.24396400  1
  C  1657  1  0.03642400  0.55431900  0.38678960  1
  C  1658  1  0.04992800  0.53476600  0.38815360  1
  C  1659  1  0.05007600  0.51226200  0.41044560  1
  C  1660  1  0.03670600  0.51040500  0.43027660  1
  C  1663  1  0.06282200  0.49246900  0.41166660  1
  C  1664  1  0.07545600  0.49474500  0.39166200  1
  C  1665  1  0.07530200  0.51673200  0.36987300  1
  C  1666  1  0.06251900  0.53646200  0.36807460  1
  C  1671  1  0.03312100  0.57657700  0.36636360  1
  C  1673  1  0.03348700  0.48967200  0.45230160  1
  C  1675  1  0.53633500  0.25408800  0.94446800  1
  C  1676  1  0.54974500  0.23583800  0.96406000  1
  C  1677  1  0.54988900  0.23563500  0.98655900  1
  C  1678  1  0.53660800  0.25368300  0.98836900  1
  C  1681  1  0.56255700  0.21702300  0.00638400  1
  C  1682  1  0.57512500  0.19923500  0.00414800  1
  C  1683  1  0.57496700  0.19941300  0.98217000  1
  C  1684  1  0.56226500  0.21739400  0.96240500  1
  C  1689  1  0.53303900  0.25592500  0.92220600  1
  C  1691  1  0.53336900  0.25499500  0.00908800  1
  C  1693  1  0.53639300  0.11198000  0.12957900  1
  C  1694  1  0.54986700  0.11062500  0.11137100  1
  C  1695  1  0.55003400  0.08832700  0.11117300  1
  C  1696  1  0.53672200  0.06847300  0.12918900  1
  C  1699  1  0.56276700  0.08710300  0.09259900  1
  C  1700  1  0.57537200  0.10711700  0.07484500  1
  C  1701  1  0.57519100  0.12891800  0.07501900  1
  C  1702  1  0.56242100  0.13071500  0.09295900  1
  C  1707  1  0.53306400  0.13241200  0.13139700  1
  C  1709  1  0.53346800  0.04646400  0.13045800  1
  C  1711  1  0.53631000  0.06887900  0.98766500  1
  C  1712  1  0.54981000  0.08843200  0.98630400  1
  C  1713  1  0.54999800  0.11092200  0.96400100  1
  C  1714  1  0.53669200  0.11276000  0.94414300  1
  C  1717  1  0.56274300  0.13071500  0.96277500  1
  C  1718  1  0.57533600  0.12845600  0.98279500  1
  C  1719  1  0.57513700  0.10648500  0.00460100  1
  C  1720  1  0.56236200  0.08675300  0.00639700  1
  C  1725  1  0.53300300  0.04662100  0.00809000  1
  C  1727  1  0.53345300  0.13349600  0.92213000  1
  C  1729  1  0.74931200  0.91594220  0.13088580  1
  C  1730  1  0.73745800  0.93835320  0.12304680  1
  C  1731  1  0.71265900  0.93801220  0.12884980  1
  C  1732  1  0.70083300  0.91531720  0.14164380  1
  C  1735  1  0.70080500  0.96022720  0.12168080  1
  C  1736  1  0.71288300  0.98233120  0.10862980  1
  C  1737  1  0.73703100  0.98270020  0.10243680  1
  C  1738  1  0.74920100  0.96094920  0.10956580  1
  C  1743  1  0.77300900  0.91369520  0.12630780  1
  C  1745  1  0.67694200  0.91251520  0.14785480  1
  C  1747  1  0.74921700  0.25529300  0.13917900  1
  C  1748  1  0.73735600  0.24754200  0.12453800  1
  C  1749  1  0.71255700  0.25336400  0.11909400  1
  C  1750  1  0.70074200  0.26608300  0.12908000  1
  C  1753  1  0.70068800  0.24627400  0.10399400  1
  C  1754  1  0.71275600  0.23328900  0.09485900  1
  C  1755  1  0.73690900  0.22709100  0.10065200  1
  C  1756  1  0.74909000  0.23413600  0.11533500  1
  C  1761  1  0.77290700  0.25067300  0.14602200  1
  C  1763  1  0.67685900  0.27232900  0.12567300  1
  C  1765  1  0.74925700  0.26358000  0.79148900  1
  C  1766  1  0.73740800  0.24895700  0.81389300  1
  C  1767  1  0.71260400  0.24351800  0.81354000  1
  C  1768  1  0.70077100  0.25348800  0.79084600  1
  C  1771  1  0.70074700  0.22843500  0.83574200  1
  C  1772  1  0.71283300  0.21931300  0.85785100  1
  C  1773  1  0.73699200  0.22510400  0.85823200  1
  C  1774  1  0.74915800  0.23977200  0.83649100  1
  C  1779  1  0.77295000  0.27041400  0.78924100  1
  C  1781  1  0.67687900  0.25009200  0.78802800  1
  C  1783  1  0.24926100  0.70727400  0.24359460  1
  C  1784  1  0.23738000  0.68489700  0.25131460  1
  C  1785  1  0.21258300  0.68530500  0.24547260  1
  C  1786  1  0.20079200  0.70802300  0.23276060  1
  C  1789  1  0.20069100  0.66313200  0.25254160  1
  C  1790  1  0.21273400  0.64099700  0.26552360  1
  C  1791  1  0.23688700  0.64056200  0.27173560  1
  C  1792  1  0.24909100  0.66227400  0.26471360  1
  C  1797  1  0.27296000  0.70946700  0.24821360  1
  C  1799  1  0.17692000  0.71089100  0.22647660  1
  C  1801  1  0.24923800  0.36792800  0.23524300  1
  C  1802  1  0.23740500  0.37576000  0.24983100  1
  C  1803  1  0.21260300  0.36997400  0.25529400  1
  C  1804  1  0.20075600  0.35720700  0.24537700  1
  C  1807  1  0.20076600  0.37714000  0.27034900  1
  C  1808  1  0.21286600  0.39016600  0.27941900  1
  C  1809  1  0.23702000  0.39633600  0.27359900  1
  C  1810  1  0.24917200  0.38921300  0.25896300  1
  C  1815  1  0.27293100  0.37249900  0.22839900  1
  C  1817  1  0.17686400  0.35100000  0.24879800  1
  C  1819  1  0.24923300  0.35965000  0.58294260  1
  C  1820  1  0.23737100  0.37433600  0.56056160  1
  C  1821  1  0.21257100  0.37976400  0.56095660  1
  C  1822  1  0.20075600  0.36972100  0.58366660  1
  C  1825  1  0.20069700  0.39489900  0.53877960  1
  C  1826  1  0.21276100  0.40408700  0.51665360  1
  C  1827  1  0.23691600  0.39831000  0.51622860  1
  C  1828  1  0.24910200  0.38359200  0.53794360  1
  C  1833  1  0.27292700  0.35282300  0.58514360  1
  C  1835  1  0.17687300  0.37311600  0.58651660  1
  C  1837  1  0.98587600  0.78864500  0.18895060  1
  C  1838  1  0.98520400  0.80567100  0.16377660  1
  C  1839  1  0.97559100  0.82924800  0.15587060  1
  C  1840  1  0.96647300  0.83458300  0.17350700  1
  C  1843  1  0.97604200  0.84648600  0.13083460  1
  C  1844  1  0.98502700  0.84061900  0.11391560  1
  C  1845  1  0.99406200  0.81746200  0.12164360  1
  C  1846  1  0.99430600  0.80021700  0.14632460  1
  C  1851  1  0.99412400  0.76516300  0.19870860  1
  C  1853  1  0.95640200  0.85622500  0.16929200  1
  C  1855  1  0.98575300  0.31340900  0.20840700  1
  C  1856  1  0.98508000  0.28823400  0.21656400  1
  C  1857  1  0.97547900  0.28031900  0.20089500  1
  C  1858  1  0.96637700  0.29795000  0.17791400  1
  C  1861  1  0.97593300  0.25528200  0.20870300  1
  C  1862  1  0.98490600  0.23836900  0.23149600  1
  C  1863  1  0.99392500  0.24610600  0.24692500  1
  C  1864  1  0.99416100  0.27078700  0.23948300  1
  C  1869  1  0.99398800  0.32317500  0.22212800  1
  C  1871  1  0.95632300  0.29372600  0.16048700  1
  C  1873  1  0.98581700  0.33282100  0.66419659  1
  C  1874  1  0.98516200  0.34095400  0.68123500  1
  C  1875  1  0.97555800  0.32527400  0.70481500  1
  C  1876  1  0.96644200  0.30230500  0.71014300  1
  C  1879  1  0.97603400  0.33305500  0.72206500  1
  C  1880  1  0.98503400  0.35583300  0.71620800  1
  C  1881  1  0.99404600  0.37127900  0.69304300  1
  C  1882  1  0.99426800  0.36385600  0.67578700  1
  C  1887  1  0.99404700  0.34655800  0.64071060  1
  C  1889  1  0.95635200  0.28488100  0.73177700  1
  C  1891  1  0.48581300  0.83455900  0.18548300  1
  C  1892  1  0.48513400  0.81754700  0.21066000  1
  C  1893  1  0.47553400  0.79396200  0.21858000  1
  C  1894  1  0.46643800  0.78860500  0.20095260  1
  C  1897  1  0.47598400  0.77673900  0.24361900  1
  C  1898  1  0.48494900  0.78262900  0.26053000  1
  C  1899  1  0.49396600  0.80579600  0.25278700  1
  C  1900  1  0.49421200  0.82302600  0.22810300  1
  C  1905  1  0.49404300  0.85804600  0.17571400  1
  C  1907  1  0.45637400  0.76695500  0.20518060  1
  C  1909  1  0.48578800  0.30980100  0.16608300  1
  C  1910  1  0.48511800  0.33497400  0.15793300  1
  C  1911  1  0.47551600  0.34288300  0.17360600  1
  C  1912  1  0.46640400  0.32525000  0.19658100  1
  C  1915  1  0.47597000  0.36792000  0.16580400  1
  C  1916  1  0.48494200  0.38483700  0.14301100  1
  C  1917  1  0.49396600  0.37710600  0.12758000  1
  C  1918  1  0.49421000  0.35242400  0.13502100  1
  C  1923  1  0.49402000  0.30004200  0.15235600  1
  C  1925  1  0.45634500  0.32947100  0.21400900  1
  C  1927  1  0.48580400  0.29038400  0.71028500  1
  C  1928  1  0.48515200  0.28224100  0.69325460  1
  C  1929  1  0.47554300  0.29791100  0.66967360  1
  C  1930  1  0.46641100  0.32087600  0.66434160  1
  C  1933  1  0.47601800  0.29011800  0.65243360  1
  C  1934  1  0.48501900  0.26733900  0.65829960  1
  C  1935  1  0.49404500  0.25190900  0.68146060  1
  C  1936  1  0.49426200  0.25933700  0.69871160  1
  C  1941  1  0.49403600  0.27665800  0.73377000  1
  C  1943  1  0.45634000  0.33830000  0.64269660  1
  N  41  1  0.78941900  0.12413500  0.46346300  1
  N  42  1  0.94103100  0.07093700  0.48055000  1
  N  43  1  0.90097400  0.23589400  0.46031900  1
  N  44  1  0.89958000  0.23777100  0.34802400  1
  N  86  1  0.78932400  0.46285100  0.45799600  1
  N  87  1  0.94094100  0.47996600  0.49407700  1
  N  88  1  0.90086400  0.45959000  0.34941400  1
  N  89  1  0.89948600  0.34736100  0.45989200  1
  N  131  1  0.78936700  0.45735900  0.12468400  1
  N  132  1  0.94099700  0.49345500  0.07152000  1
  N  133  1  0.90099200  0.34875600  0.23653300  1
  N  134  1  0.89941500  0.45914600  0.23835900  1
  N  176  1  0.28937200  0.90540100  0.56742200  1
  N  177  1  0.44100100  0.95858700  0.55031500  1
  N  178  1  0.40098000  0.79364500  0.57053500  1
  N  179  1  0.39951600  0.79179100  0.68287200  1
  N  221  1  0.28934700  0.56667900  0.57281700  1
  N  222  1  0.44096200  0.54956800  0.53680700  1
  N  223  1  0.40085500  0.56999400  0.68143200  1
  N  224  1  0.39951800  0.68216300  0.57102000  1
  N  266  1  0.28934700  0.57220700  0.90613500  1
  N  267  1  0.44097300  0.53606700  0.95935400  1
  N  268  1  0.40100900  0.68080400  0.79436500  1
  N  269  1  0.39944400  0.57044500  0.79247800  1
  N  311  1  0.16109300  0.57104100  0.56817000  1
  N  312  1  0.01004100  0.54303000  0.54242500  1
  N  313  1  0.05096900  0.68213300  0.57005500  1
  N  314  1  0.05135400  0.57065600  0.68141700  1
  N  356  1  0.16112600  0.90613800  0.57151800  1
  N  357  1  0.01016500  0.95954700  0.54360300  1
  N  358  1  0.05113900  0.79276800  0.68268800  1
  N  359  1  0.05141900  0.79292800  0.57123600  1
  N  401  1  0.16111100  0.56737400  0.90674800  1
  N  402  1  0.01010400  0.54184200  0.96011100  1
  N  403  1  0.05107500  0.56939700  0.79344100  1
  N  404  1  0.05146200  0.68077900  0.79348700  1
  N  446  1  0.66108500  0.45863200  0.46274400  1
  N  447  1  0.51008800  0.48654000  0.48844100  1
  N  448  1  0.55107000  0.34750000  0.46068100  1
  N  449  1  0.55134600  0.45906300  0.34936000  1
  N  491  1  0.66115700  0.12377000  0.45919400  1
  N  492  1  0.51013000  0.06998400  0.48725600  1
  N  493  1  0.55102700  0.23679300  0.34817700  1
  N  494  1  0.55143700  0.23662100  0.45962000  1
  N  536  1  0.66111200  0.46212000  0.12423700  1
  N  537  1  0.51010800  0.48771300  0.07074800  1
  N  538  1  0.55106600  0.46014900  0.23743100  1
  N  539  1  0.55142800  0.34870400  0.23731600  1
  N  545  1  0.92719200  0.27576900  0.29556000  1
  N  546  1  0.92750100  0.29614100  0.27518100  1
  N  563  1  0.92712200  0.29493900  0.47429300  1
  N  564  1  0.92744400  0.27456300  0.47429500  1
  N  581  1  0.92704300  0.47350000  0.27642100  1
  N  582  1  0.92736600  0.47350300  0.29679500  1
  N  599  1  0.42715000  0.75380300  0.73529200  1
  N  600  1  0.42749200  0.73343800  0.75567500  1
  N  617  1  0.42714800  0.73461400  0.55655800  1
  N  618  1  0.42746400  0.75499400  0.55655200  1
  N  635  1  0.42707100  0.55608600  0.75441600  1
  N  636  1  0.42737600  0.55608100  0.73404400  1
  N  653  1  0.02406400  0.55659800  0.73382900  1
  N  654  1  0.02394100  0.55636200  0.75432000  1
  N  671  1  0.02403000  0.75455100  0.55726000  1
  N  672  1  0.02386400  0.73428400  0.55705000  1
  N  689  1  0.02409800  0.73314700  0.75506400  1
  N  690  1  0.02397500  0.75362600  0.73479800  1
  N  707  1  0.52404500  0.47304700  0.29697000  1
  N  708  1  0.52392900  0.47324700  0.27649700  1
  N  725  1  0.52408600  0.27506100  0.47353000  1
  N  726  1  0.52394500  0.29533400  0.47372800  1
  N  743  1  0.52405100  0.29637000  0.27575800  1
  N  744  1  0.52388900  0.27590400  0.29603700  1
  N  761  1  0.71370900  0.09817500  0.47631900  1
  N  762  1  0.73642000  0.09847500  0.47124800  1
  N  779  1  0.71362000  0.47563800  0.47117900  1
  N  780  1  0.73632900  0.47054700  0.47593600  1
  N  797  1  0.71363600  0.47054600  0.09873900  1
  N  798  1  0.73635000  0.47529700  0.09905000  1
  N  815  1  0.21368700  0.93146500  0.55459600  1
  N  816  1  0.23639300  0.93110400  0.55970800  1
  N  833  1  0.21361400  0.55390200  0.55972700  1
  N  834  1  0.23632600  0.55895900  0.55495400  1
  N  851  1  0.21363200  0.55894600  0.93213900  1
  N  852  1  0.23634200  0.55420200  0.93179200  1
  N  869  1  0.96820000  0.02022000  0.52522800  1
  N  870  1  0.97718600  0.99882800  0.53248000  1
  N  887  1  0.96810800  0.52464800  0.50010600  1
  N  888  1  0.97708100  0.53190600  0.51424700  1
  N  905  1  0.96814500  0.49949900  0.02079200  1
  N  906  1  0.97712000  0.51364700  0.99939800  1
  N  923  1  0.46816400  0.00929700  0.50561800  1
  N  924  1  0.47713800  0.03069600  0.49835400  1
  N  941  1  0.46813000  0.50489300  0.53077200  1
  N  942  1  0.47710600  0.49763800  0.51663100  1
  N  959  1  0.46812300  0.53003600  0.01007400  1
  N  960  1  0.47710400  0.51589700  0.03146800  1
  N  1013  1  0.78941900  0.92096620  0.13526680  1
  N  1014  1  0.94103100  0.86776800  0.15235400  1
  N  1015  1  0.90097400  0.03272500  0.13212300  1
  N  1016  1  0.89958000  0.03460200  0.01982800  1
  N  1058  1  0.78932400  0.25968200  0.12980000  1
  N  1059  1  0.94094100  0.27679700  0.16588100  1
  N  1060  1  0.90086400  0.25642100  0.02121800  1
  N  1061  1  0.89948600  0.14419200  0.13169600  1
  N  1103  1  0.78936700  0.25419000  0.79648800  1
  N  1104  1  0.94099700  0.29028600  0.74332400  1
  N  1105  1  0.90099200  0.14558700  0.90833700  1
  N  1106  1  0.89941500  0.25597700  0.91016300  1
  N  1148  1  0.28937200  0.70223200  0.23922560  1
  N  1149  1  0.44100100  0.75541800  0.22211860  1
  N  1150  1  0.40098000  0.59047600  0.24233900  1
  N  1151  1  0.39951600  0.58862200  0.35467560  1
  N  1193  1  0.28934700  0.36351000  0.24462100  1
  N  1194  1  0.44096200  0.34639900  0.20861100  1
  N  1195  1  0.40085500  0.36682500  0.35323600  1
  N  1196  1  0.39951800  0.47899400  0.24282400  1
  N  1238  1  0.28934700  0.36903800  0.57793860  1
  N  1239  1  0.44097300  0.33289800  0.63115760  1
  N  1240  1  0.40100900  0.47763500  0.46616860  1
  N  1241  1  0.39944400  0.36727600  0.46428200  1
  N  1283  1  0.16109300  0.36787200  0.23997400  1
  N  1284  1  0.01004100  0.33986100  0.21422900  1
  N  1285  1  0.05096900  0.47896400  0.24185900  1
  N  1286  1  0.05135400  0.36748700  0.35322100  1
  N  1328  1  0.16112600  0.70296900  0.24332160  1
  N  1329  1  0.01016500  0.75637800  0.21540660  1
  N  1330  1  0.05113900  0.58959900  0.35449160  1
  N  1331  1  0.05141900  0.58975900  0.24304000  1
  N  1373  1  0.16111100  0.36420500  0.57855160  1
  N  1374  1  0.01010400  0.33867300  0.63191460  1
  N  1375  1  0.05107500  0.36622800  0.46524500  1
  N  1376  1  0.05146200  0.47761000  0.46529060  1
  N  1418  1  0.66108500  0.25546300  0.13454800  1
  N  1419  1  0.51008800  0.28337100  0.16024500  1
  N  1420  1  0.55107000  0.14433100  0.13248500  1
  N  1421  1  0.55134600  0.25589400  0.02116400  1
  N  1463  1  0.66115700  0.92060120  0.13099780  1
  N  1464  1  0.51013000  0.86681500  0.15906000  1
  N  1465  1  0.55102700  0.03362400  0.01998100  1
  N  1466  1  0.55143700  0.03345200  0.13142400  1
  N  1508  1  0.66111200  0.25895100  0.79604100  1
  N  1509  1  0.51010800  0.28454400  0.74255200  1
  N  1510  1  0.55106600  0.25698000  0.90923500  1
  N  1511  1  0.55142800  0.14553500  0.90912000  1
  N  1517  1  0.92719200  0.07260000  0.96736400  1
  N  1518  1  0.92750100  0.09297200  0.94698500  1
  N  1535  1  0.92712200  0.09177000  0.14609700  1
  N  1536  1  0.92744400  0.07139400  0.14609900  1
  N  1553  1  0.92704300  0.27033100  0.94822500  1
  N  1554  1  0.92736600  0.27033400  0.96859900  1
  N  1571  1  0.42715000  0.55063400  0.40709560  1
  N  1572  1  0.42749200  0.53026900  0.42747860  1
  N  1589  1  0.42714800  0.53144500  0.22836200  1
  N  1590  1  0.42746400  0.55182500  0.22835600  1
  N  1607  1  0.42707100  0.35291700  0.42622000  1
  N  1608  1  0.42737600  0.35291200  0.40584800  1
  N  1625  1  0.02406400  0.35342900  0.40563300  1
  N  1626  1  0.02394100  0.35319300  0.42612400  1
  N  1643  1  0.02403000  0.55138200  0.22906400  1
  N  1644  1  0.02386400  0.53111500  0.22885400  1
  N  1661  1  0.02409800  0.52997800  0.42686760  1
  N  1662  1  0.02397500  0.55045700  0.40660160  1
  N  1679  1  0.52404500  0.26987800  0.96877400  1
  N  1680  1  0.52392900  0.27007800  0.94830100  1
  N  1697  1  0.52408600  0.07189200  0.14533400  1
  N  1698  1  0.52394500  0.09216500  0.14553200  1
  N  1715  1  0.52405100  0.09320100  0.94756200  1
  N  1716  1  0.52388900  0.07273500  0.96784100  1
  N  1733  1  0.71370900  0.89500600  0.14812300  1
  N  1734  1  0.73642000  0.89530600  0.14305200  1
  N  1751  1  0.71362000  0.27246900  0.14298300  1
  N  1752  1  0.73632900  0.26737800  0.14774000  1
  N  1769  1  0.71363600  0.26737700  0.77054300  1
  N  1770  1  0.73635000  0.27212800  0.77085400  1
  N  1787  1  0.21368700  0.72829600  0.22639960  1
  N  1788  1  0.23639300  0.72793500  0.23151160  1
  N  1805  1  0.21361400  0.35073300  0.23153100  1
  N  1806  1  0.23632600  0.35579000  0.22675800  1
  N  1823  1  0.21363200  0.35577700  0.60394260  1
  N  1824  1  0.23634200  0.35103300  0.60359560  1
  N  1841  1  0.96820000  0.81705100  0.19703200  1
  N  1842  1  0.97718600  0.79565900  0.20428359  1
  N  1859  1  0.96810800  0.32147900  0.17191000  1
  N  1860  1  0.97708100  0.32873700  0.18605100  1
  N  1877  1  0.96814500  0.29633000  0.69259560  1
  N  1878  1  0.97712000  0.31047800  0.67120160  1
  N  1895  1  0.46816400  0.80612800  0.17742160  1
  N  1896  1  0.47713800  0.82752700  0.17015759  1
  N  1913  1  0.46813000  0.30172400  0.20257600  1
  N  1914  1  0.47710600  0.29446900  0.18843500  1
  N  1931  1  0.46812300  0.32686700  0.68187800  1
  N  1932  1  0.47710400  0.31272800  0.70327200  1
