# generated using pymatgen
data_H4C13N3
_symmetry_space_group_name_H-M   'P 1'
_cell_length_a   40.17900000
_cell_length_b   40.17900000
_cell_length_c   40.17900000
_cell_angle_alpha   90.00000000
_cell_angle_beta   90.00000000
_cell_angle_gamma   90.00000000
_symmetry_Int_Tables_number   1
_chemical_formula_structural   H4C13N3
_chemical_formula_sum   'H192 C624 N144'
_cell_volume   64863.05065534
_cell_formula_units_Z   48
loop_
 _symmetry_equiv_pos_site_id
 _symmetry_equiv_pos_as_xyz
  1  'x, y, z'
loop_
 _atom_site_type_symbol
 _atom_site_label
 _atom_site_symmetry_multiplicity
 _atom_site_fract_x
 _atom_site_fract_y
 _atom_site_fract_z
 _atom_site_occupancy
  H  9  1  0.40750100  0.25550200  0.99826500  1
  H  17  1  0.24688500  0.41599600  0.99819000  1
  H  19  1  0.30487800  0.35467000  0.91492800  1
  H  20  1  0.34617300  0.31340700  0.91495000  1
  H  21  1  0.30450000  0.35437200  0.08148000  1
  H  22  1  0.34579000  0.31311600  0.08150300  1
  H  31  1  0.58728400  0.75641500  0.99822000  1
  H  39  1  0.74783600  0.59585600  0.99831700  1
  H  41  1  0.68988000  0.65711700  0.91499200  1
  H  42  1  0.64859700  0.69839200  0.91496500  1
  H  43  1  0.69021100  0.65756200  0.08154600  1
  H  44  1  0.64893100  0.69883200  0.08151900  1
  H  53  1  0.58725900  0.25539900  0.99861600  1
  H  61  1  0.74783300  0.41593800  0.99858800  1
  H  63  1  0.68985000  0.35465500  0.08188500  1
  H  64  1  0.64856200  0.31338500  0.08189300  1
  H  65  1  0.69021300  0.35426700  0.91533300  1
  H  66  1  0.64893300  0.31299900  0.91534100  1
  H  75  1  0.40739700  0.75641000  0.99854800  1
  H  83  1  0.24684700  0.59585100  0.99856800  1
  H  85  1  0.30482300  0.65715100  0.08185300  1
  H  86  1  0.34611100  0.69842700  0.08184800  1
  H  87  1  0.30442800  0.65754000  0.91530100  1
  H  88  1  0.34570800  0.69880700  0.91529400  1
  H  97  1  0.99717700  0.41600600  0.24799600  1
  H  105  1  0.99718500  0.25545400  0.40854900  1
  H  107  1  0.91389500  0.31339000  0.34722100  1
  H  108  1  0.91389200  0.35467300  0.30594100  1
  H  109  1  0.08044800  0.31308400  0.34690000  1
  H  110  1  0.08044700  0.35437400  0.30564000  1
  H  119  1  0.99717700  0.59583300  0.74889100  1
  H  127  1  0.99715200  0.75638000  0.58832900  1
  H  129  1  0.91387500  0.69840700  0.64964000  1
  H  130  1  0.91388200  0.65711700  0.69090800  1
  H  131  1  0.08042800  0.69879000  0.65000100  1
  H  132  1  0.08043500  0.65752000  0.69128600  1
  H  141  1  0.99752100  0.59578100  0.24793900  1
  H  149  1  0.99753800  0.75634500  0.40848400  1
  H  151  1  0.08082100  0.69840200  0.34714400  1
  H  152  1  0.08081800  0.65712200  0.30586100  1
  H  153  1  0.91426600  0.69872000  0.34683500  1
  H  154  1  0.91426300  0.65745000  0.30556000  1
  H  163  1  0.99749300  0.41602100  0.74889100  1
  H  171  1  0.99748800  0.25544400  0.58836200  1
  H  173  1  0.08078000  0.31345000  0.64963000  1
  H  174  1  0.08078100  0.35473000  0.69091000  1
  H  175  1  0.91422600  0.31301700  0.65007300  1
  H  176  1  0.91422600  0.35428700  0.69135300  1
  H  185  1  0.24692800  0.00579200  0.40857900  1
  H  193  1  0.40742400  0.00566800  0.24796100  1
  H  195  1  0.34611300  0.92242700  0.30599600  1
  H  196  1  0.30484800  0.92245900  0.34728600  1
  H  197  1  0.34576500  0.08898000  0.30552000  1
  H  198  1  0.30451200  0.08901200  0.34681300  1
  H  207  1  0.74783800  0.00568100  0.58831900  1
  H  215  1  0.58728900  0.00579500  0.74888800  1
  H  217  1  0.64861000  0.92246400  0.69099000  1
  H  218  1  0.68989200  0.92243700  0.64971700  1
  H  219  1  0.64893600  0.08901700  0.69119200  1
  H  220  1  0.69021600  0.08898800  0.64992400  1
  H  229  1  0.24685900  0.00606700  0.58832700  1
  H  237  1  0.40741900  0.00609500  0.74888100  1
  H  239  1  0.34610400  0.08937200  0.69089500  1
  H  240  1  0.30483600  0.08936500  0.64960800  1
  H  241  1  0.34575500  0.92282000  0.69127900  1
  H  242  1  0.30447500  0.92281200  0.65001300  1
  H  251  1  0.74784300  0.00609600  0.40847400  1
  H  259  1  0.58730200  0.00601600  0.24790300  1
  H  261  1  0.64857000  0.08933800  0.30586400  1
  H  262  1  0.68984500  0.08935900  0.34714900  1
  H  263  1  0.64902000  0.92278500  0.30551500  1
  H  264  1  0.69027300  0.92280500  0.34680500  1
  H  273  1  0.90705300  0.75502800  0.49819800  1
  H  281  1  0.74645400  0.91559700  0.49822800  1
  H  283  1  0.80269000  0.85263700  0.41494800  1
  H  284  1  0.84407200  0.81127400  0.41494000  1
  H  285  1  0.80235200  0.85226800  0.58145300  1
  H  286  1  0.84373400  0.81090300  0.58144800  1
  H  295  1  0.08768300  0.25683600  0.49833700  1
  H  303  1  0.24827300  0.09625700  0.49825300  1
  H  305  1  0.19200800  0.15924100  0.41500800  1
  H  306  1  0.15062500  0.20061400  0.41502800  1
  H  307  1  0.19242500  0.15958100  0.58151000  1
  H  308  1  0.15104800  0.20094500  0.58153200  1
  H  317  1  0.08765800  0.75498600  0.49850400  1
  H  325  1  0.24822100  0.91559000  0.49868300  1
  H  327  1  0.19196700  0.85253900  0.58189100  1
  H  328  1  0.15059700  0.81116000  0.58184600  1
  H  329  1  0.19240500  0.85229100  0.41538600  1
  H  330  1  0.15105200  0.81090100  0.41534100  1
  H  339  1  0.90699100  0.25684300  0.49868100  1
  H  347  1  0.74643700  0.09623500  0.49844400  1
  H  349  1  0.80265800  0.15909200  0.58181400  1
  H  350  1  0.84401000  0.20049100  0.58187300  1
  H  351  1  0.80228200  0.15972300  0.41530900  1
  H  352  1  0.84364700  0.20110100  0.41536900  1
  H  361  1  0.49727900  0.91562000  0.74754700  1
  H  369  1  0.49710000  0.75502100  0.90811300  1
  H  371  1  0.41388800  0.81131900  0.84510500  1
  H  372  1  0.41393500  0.85270100  0.80373500  1
  H  373  1  0.58039200  0.81085400  0.84482400  1
  H  374  1  0.58044000  0.85222800  0.80345900  1
  H  383  1  0.49714300  0.09620600  0.24932700  1
  H  391  1  0.49722200  0.25681300  0.08876300  1
  H  393  1  0.41392200  0.20057300  0.15169100  1
  H  394  1  0.41390300  0.15918400  0.19305400  1
  H  395  1  0.58042500  0.20090400  0.15211300  1
  H  396  1  0.58040500  0.15951800  0.19347100  1
  H  405  1  0.49749600  0.09617900  0.74753400  1
  H  413  1  0.49756800  0.25677100  0.90811300  1
  H  415  1  0.58080800  0.20052200  0.84511000  1
  H  416  1  0.58079100  0.15914800  0.80374000  1
  H  417  1  0.41430300  0.20090800  0.84480400  1
  H  418  1  0.41428600  0.15953500  0.80343400  1
  H  427  1  0.49750800  0.91558200  0.24932200  1
  H  435  1  0.49743400  0.75502100  0.08872400  1
  H  437  1  0.58074600  0.81127400  0.15163200  1
  H  438  1  0.58076600  0.85264900  0.19301200  1
  H  439  1  0.41424400  0.81084600  0.15214700  1
  H  440  1  0.41426300  0.85221600  0.19351600  1
  H  449  1  0.74644400  0.50577600  0.90811800  1
  H  457  1  0.90703300  0.50576400  0.74754400  1
  H  459  1  0.84404200  0.42248400  0.80376500  1
  H  460  1  0.80265800  0.42248900  0.84513800  1
  H  461  1  0.84368200  0.58898900  0.80339700  1
  H  462  1  0.80230900  0.58899400  0.84476400  1
  H  471  1  0.24828000  0.50572400  0.08875000  1
  H  479  1  0.08769300  0.50571400  0.24932900  1
  H  481  1  0.15069600  0.42245400  0.19312000  1
  H  482  1  0.19206900  0.42245700  0.15174400  1
  H  483  1  0.15101400  0.58895900  0.19344700  1
  H  484  1  0.19239600  0.58896200  0.15207600  1
  H  493  1  0.74642900  0.50611000  0.08872800  1
  H  501  1  0.90700100  0.50598500  0.24932200  1
  H  503  1  0.84407700  0.58930800  0.19310000  1
  H  504  1  0.80270500  0.58934000  0.15171800  1
  H  505  1  0.84360700  0.42280300  0.19343900  1
  H  506  1  0.80224500  0.42283500  0.15205600  1
  H  515  1  0.24825700  0.50601500  0.90807600  1
  H  523  1  0.08770600  0.50611700  0.74747000  1
  H  525  1  0.15066700  0.58935700  0.80376300  1
  H  526  1  0.19202900  0.58933200  0.84515500  1
  H  527  1  0.15105400  0.42285500  0.80327700  1
  H  528  1  0.19242700  0.42282800  0.84465000  1
  H  535  1  0.41277500  0.31559800  0.91817800  1
  H  544  1  0.58191300  0.69623600  0.91826800  1
  H  553  1  0.58189800  0.31555000  0.07857300  1
  H  562  1  0.41276800  0.69627400  0.07846800  1
  H  571  1  0.91719000  0.42133700  0.30806600  1
  H  580  1  0.91713300  0.59043000  0.68876000  1
  H  589  1  0.07763100  0.59056900  0.30808900  1
  H  598  1  0.07751500  0.42129000  0.68868300  1
  H  607  1  0.30704600  0.92571200  0.41387800  1
  H  616  1  0.68770000  0.92570200  0.58303800  1
  H  625  1  0.30702300  0.08601900  0.58294100  1
  H  634  1  0.68770200  0.08600900  0.41380100  1
  H  643  1  0.30684700  0.42094600  0.07842700  1
  H  652  1  0.68783700  0.59099000  0.07863300  1
  H  661  1  0.30682400  0.59103700  0.91824800  1
  H  670  1  0.68783400  0.42078200  0.91830300  1
  H  679  1  0.41229000  0.92576400  0.68888900  1
  H  688  1  0.58244100  0.92577900  0.30788500  1
  H  697  1  0.58227700  0.08598300  0.68890700  1
  H  706  1  0.41231500  0.08594200  0.30790900  1
  H  715  1  0.91720000  0.31536100  0.58349400  1
  H  724  1  0.91719500  0.69638100  0.41343500  1
  H  733  1  0.07751800  0.31546600  0.41336700  1
  H  742  1  0.07742200  0.69637600  0.58346900  1
  H  751  1  0.58242600  0.69644800  0.07852100  1
  H  760  1  0.41239900  0.31547300  0.07854100  1
  H  769  1  0.41230200  0.69645100  0.91834000  1
  H  778  1  0.58231100  0.31533600  0.91842000  1
  H  787  1  0.07745300  0.59096500  0.68893700  1
  H  796  1  0.07748400  0.42096100  0.30797900  1
  H  805  1  0.91715000  0.42078400  0.68892700  1
  H  814  1  0.91722500  0.59091300  0.30793200  1
  H  823  1  0.68781700  0.08603900  0.58343900  1
  H  832  1  0.30690400  0.08606600  0.41342500  1
  H  841  1  0.68787100  0.92588600  0.41340200  1
  H  850  1  0.30679400  0.92587100  0.58340400  1
  H  859  1  0.68773200  0.59045700  0.91834200  1
  H  868  1  0.30704600  0.42130200  0.91814300  1
  H  877  1  0.68765700  0.42123000  0.07865600  1
  H  886  1  0.30704300  0.59060400  0.07862600  1
  H  895  1  0.58201500  0.08607700  0.30809600  1
  H  904  1  0.41278300  0.08608000  0.68875200  1
  H  913  1  0.41280500  0.92573400  0.30811100  1
  H  922  1  0.58193600  0.92581700  0.68883000  1
  H  931  1  0.07754400  0.69625600  0.41382000  1
  H  940  1  0.07752300  0.31559800  0.58299100  1
  H  949  1  0.91706800  0.69624400  0.58306500  1
  H  958  1  0.91718300  0.31563000  0.41379600  1
  C  1  1  0.33986600  0.32311900  0.99823000  1
  C  2  1  0.35242800  0.31028100  0.96744300  1
  C  3  1  0.37704300  0.28471600  0.96732600  1
  C  4  1  0.38866100  0.27279200  0.99825500  1
  C  5  1  0.37696500  0.28466100  0.02917300  1
  C  6  1  0.35230300  0.31018900  0.02902900  1
  C  7  1  0.33883400  0.32270300  0.93748700  1
  C  8  1  0.33856500  0.32249700  0.05896500  1
  C  10  1  0.31455700  0.34841800  0.99821500  1
  C  11  1  0.30173200  0.36096000  0.96741300  1
  C  12  1  0.27614900  0.38556200  0.96727100  1
  C  13  1  0.26419500  0.39717000  0.99819000  1
  C  14  1  0.27605500  0.38549200  0.02911800  1
  C  15  1  0.30160000  0.36085700  0.02900200  1
  C  16  1  0.31418600  0.34737300  0.93747200  1
  C  18  1  0.31390000  0.34714100  0.05895200  1
  C  23  1  0.65486200  0.68874000  0.99825700  1
  C  24  1  0.64231300  0.70155300  0.96745300  1
  C  25  1  0.61770000  0.72712300  0.96731100  1
  C  26  1  0.60609000  0.73908700  0.99822700  1
  C  27  1  0.61779000  0.72725300  0.02915600  1
  C  28  1  0.64242500  0.70170200  0.02904200  1
  C  29  1  0.65591200  0.68910100  0.93751400  1
  C  30  1  0.65615300  0.68942200  0.05899200  1
  C  32  1  0.68016800  0.66343600  0.99827200  1
  C  33  1  0.69300600  0.65087200  0.96748800  1
  C  34  1  0.71857700  0.62626200  0.96737300  1
  C  35  1  0.73050800  0.61466200  0.99830500  1
  C  36  1  0.71866100  0.62638400  0.02922200  1
  C  37  1  0.69311300  0.65101900  0.02907500  1
  C  38  1  0.68057900  0.66445400  0.93752900  1
  C  40  1  0.68079800  0.66475200  0.05900900  1
  C  45  1  0.65483400  0.32307700  0.99860800  1
  C  46  1  0.64227800  0.31025400  0.02940500  1
  C  47  1  0.61764600  0.28470300  0.02953600  1
  C  48  1  0.60606500  0.27272900  0.99861600  1
  C  49  1  0.61776500  0.28458100  0.96769400  1
  C  50  1  0.64240200  0.31012500  0.96781600  1
  C  51  1  0.65587500  0.32269100  0.05935200  1
  C  52  1  0.65613800  0.32241200  0.93787000  1
  C  54  1  0.68014600  0.34837300  0.99860100  1
  C  55  1  0.69297600  0.36092700  0.02939400  1
  C  56  1  0.71853900  0.38554400  0.02951500  1
  C  57  1  0.73050300  0.39713500  0.99859300  1
  C  58  1  0.71864900  0.38543200  0.96767200  1
  C  59  1  0.69309600  0.36080000  0.96780600  1
  C  60  1  0.68053900  0.34734000  0.05934600  1
  C  62  1  0.68079300  0.34707200  0.93786500  1
  C  67  1  0.33980400  0.68875000  0.99856300  1
  C  68  1  0.35236300  0.70157500  0.02935600  1
  C  69  1  0.37698800  0.72713100  0.02947700  1
  C  70  1  0.38857300  0.73910000  0.99855300  1
  C  71  1  0.37685800  0.72725800  0.96763200  1
  C  72  1  0.35223400  0.70170000  0.96776600  1
  C  73  1  0.33876900  0.68914300  0.05930700  1
  C  74  1  0.33850000  0.68940000  0.93782800  1
  C  76  1  0.31449000  0.66345300  0.99856800  1
  C  77  1  0.30166700  0.65089700  0.02936400  1
  C  78  1  0.27609700  0.62628000  0.02949700  1
  C  79  1  0.26414800  0.61467900  0.99857100  1
  C  80  1  0.27597000  0.62640900  0.96764700  1
  C  81  1  0.30153500  0.65102400  0.96777600  1
  C  82  1  0.31410700  0.66448900  0.05931100  1
  C  84  1  0.31383000  0.66475500  0.93783000  1
  C  89  1  0.99717700  0.34841300  0.31565200  1
  C  90  1  0.96638200  0.36095200  0.30281200  1
  C  91  1  0.96625300  0.38556200  0.27723900  1
  C  92  1  0.99717700  0.39718000  0.26530500  1
  C  93  1  0.02810100  0.38550200  0.27717500  1
  C  94  1  0.02797100  0.36086200  0.30271800  1
  C  95  1  0.93643400  0.34734800  0.31523700  1
  C  96  1  0.05791400  0.34714100  0.31502500  1
  C  98  1  0.99717700  0.32310400  0.34095200  1
  C  99  1  0.96638200  0.31026900  0.35350000  1
  C  100  1  0.96625600  0.28469800  0.37811300  1
  C  101  1  0.99718000  0.27275200  0.38971300  1
  C  102  1  0.02810500  0.28461100  0.37802300  1
  C  103  1  0.02797200  0.31016200  0.35338800  1
  C  104  1  0.93643200  0.32270800  0.33991400  1
  C  106  1  0.05791400  0.32247700  0.33967500  1
  C  111  1  0.99716700  0.66341800  0.68122600  1
  C  112  1  0.96637200  0.65085700  0.69404900  1
  C  113  1  0.96624600  0.62625500  0.71962900  1
  C  114  1  0.99717200  0.61464200  0.73156300  1
  C  115  1  0.02809500  0.62635400  0.71972400  1
  C  116  1  0.02796300  0.65099100  0.69417800  1
  C  117  1  0.93642200  0.66444100  0.68160900  1
  C  118  1  0.05790200  0.66473500  0.68188300  1
  C  120  1  0.99716200  0.68872800  0.65592400  1
  C  121  1  0.96636500  0.70155800  0.64337800  1
  C  122  1  0.96622800  0.72714100  0.61877800  1
  C  123  1  0.99715200  0.73906200  0.60714500  1
  C  124  1  0.02807700  0.72721000  0.61883800  1
  C  125  1  0.02795300  0.70167700  0.64349000  1
  C  126  1  0.93641700  0.68911300  0.65696700  1
  C  128  1  0.05789900  0.68937500  0.65720900  1
  C  133  1  0.99753600  0.66338400  0.31558500  1
  C  134  1  0.02832900  0.65083500  0.30274800  1
  C  135  1  0.02845200  0.62620000  0.27719700  1
  C  136  1  0.99752600  0.61460700  0.26524500  1
  C  137  1  0.96660900  0.62630900  0.27710500  1
  C  138  1  0.96674100  0.65094400  0.30265000  1
  C  139  1  0.05827900  0.66443400  0.31517400  1
  C  140  1  0.93679700  0.66466500  0.31496000  1
  C  142  1  0.99753600  0.68868500  0.34089200  1
  C  143  1  0.02833200  0.70152000  0.35343300  1
  C  144  1  0.02845800  0.72708100  0.37805600  1
  C  145  1  0.99753800  0.73902000  0.38967600  1
  C  146  1  0.96661400  0.72716600  0.37797800  1
  C  147  1  0.96674300  0.70162200  0.35334100  1
  C  148  1  0.05828000  0.68910100  0.33982200  1
  C  150  1  0.93679700  0.68931200  0.33962500  1
  C  155  1  0.99749300  0.34839600  0.68126800  1
  C  156  1  0.02828900  0.36096500  0.69408100  1
  C  157  1  0.02841800  0.38558400  0.71964200  1
  C  158  1  0.99749600  0.39717500  0.73160300  1
  C  159  1  0.96656900  0.38544200  0.71978600  1
  C  160  1  0.96670100  0.36081800  0.69422800  1
  C  161  1  0.05823800  0.34738300  0.68163400  1
  C  162  1  0.93675800  0.34708400  0.68193500  1
  C  164  1  0.99749300  0.32309400  0.65595900  1
  C  165  1  0.02828800  0.31027900  0.64339300  1
  C  166  1  0.02841700  0.28471100  0.61877600  1
  C  167  1  0.99749100  0.27275700  0.60718300  1
  C  168  1  0.96656900  0.28457900  0.61891500  1
  C  169  1  0.96669900  0.31013700  0.64354000  1
  C  170  1  0.05823800  0.32272300  0.65697700  1
  C  172  1  0.93675800  0.32242000  0.65728600  1
  C  177  1  0.31453700  0.00573900  0.34093700  1
  C  178  1  0.30170700  0.97495400  0.35351300  1
  C  179  1  0.27614700  0.97484500  0.37813300  1
  C  180  1  0.26421300  0.00577500  0.38973300  1
  C  181  1  0.27607700  0.03669000  0.37802100  1
  C  182  1  0.30160000  0.03654100  0.35335900  1
  C  183  1  0.31413400  0.94499600  0.33993400  1
  C  184  1  0.31390000  0.06647300  0.33960300  1
  C  186  1  0.33983700  0.00572000  0.31562500  1
  C  187  1  0.35238300  0.97491400  0.30281500  1
  C  188  1  0.37699300  0.97477000  0.27724200  1
  C  189  1  0.38859800  0.00568100  0.26526800  1
  C  190  1  0.37691600  0.03661400  0.27711200  1
  C  191  1  0.35227300  0.03650300  0.30265500  1
  C  192  1  0.33879600  0.94497600  0.31527900  1
  C  194  1  0.33854700  0.06645400  0.31493600  1
  C  199  1  0.68018100  0.00572400  0.65591700  1
  C  200  1  0.69301600  0.97492200  0.64339100  1
  C  201  1  0.71858400  0.97477700  0.61877600  1
  C  202  1  0.73052100  0.00569200  0.60713500  1
  C  203  1  0.71867400  0.03662500  0.61881800  1
  C  204  1  0.69312300  0.03650900  0.64345300  1
  C  205  1  0.68058400  0.94498100  0.65701200  1
  C  206  1  0.68081800  0.06646000  0.65715900  1
  C  208  1  0.65487200  0.00574000  0.68121600  1
  C  209  1  0.64232500  0.97495400  0.69407400  1
  C  210  1  0.61770000  0.97484700  0.71963700  1
  C  211  1  0.60609200  0.00577700  0.73155600  1
  C  212  1  0.61779500  0.03668900  0.71968200  1
  C  213  1  0.64243500  0.03654300  0.69413800  1
  C  214  1  0.65593200  0.94499800  0.68167700  1
  C  216  1  0.65614800  0.06647800  0.68180100  1
  C  221  1  0.31454000  0.00608200  0.65590000  1
  C  222  1  0.30171500  0.03687500  0.64333600  1
  C  223  1  0.27616700  0.03699700  0.61870100  1
  C  224  1  0.26418800  0.00607300  0.60713300  1
  C  225  1  0.27604200  0.97515600  0.61884300  1
  C  226  1  0.30159000  0.97528500  0.64347500  1
  C  227  1  0.31414400  0.06682600  0.65692700  1
  C  228  1  0.31388500  0.94534700  0.65721400  1
  C  230  1  0.33983900  0.00608500  0.68120900  1
  C  231  1  0.35238800  0.03688200  0.69403400  1
  C  232  1  0.37701000  0.03701200  0.71959400  1
  C  233  1  0.38861300  0.00609300  0.73155300  1
  C  234  1  0.37691600  0.97516800  0.71970400  1
  C  235  1  0.35227800  0.97529500  0.69415800  1
  C  236  1  0.33878400  0.06682900  0.68160200  1
  C  238  1  0.33855200  0.94534900  0.68186100  1
  C  243  1  0.68018800  0.00606900  0.34087400  1
  C  244  1  0.69300600  0.03687000  0.35342100  1
  C  245  1  0.71856700  0.03700600  0.37804600  1
  C  246  1  0.73053300  0.00609100  0.38964900  1
  C  247  1  0.71869600  0.97516300  0.37794800  1
  C  248  1  0.69314300  0.97528300  0.35331900  1
  C  249  1  0.68056900  0.06681300  0.33981400  1
  C  250  1  0.68085800  0.94533400  0.33959300  1
  C  252  1  0.65489400  0.00605700  0.31556000  1
  C  253  1  0.64232800  0.03684500  0.30272500  1
  C  254  1  0.61771300  0.03696100  0.27715700  1
  C  255  1  0.60612500  0.00602900  0.26521100  1
  C  256  1  0.61786500  0.97511300  0.27704300  1
  C  257  1  0.64247700  0.97525800  0.30261100  1
  C  258  1  0.65591200  0.06680000  0.31515500  1
  C  260  1  0.65622100  0.94532200  0.31491600  1
  C  265  1  0.83758400  0.82085900  0.49820300  1
  C  266  1  0.85034200  0.80826300  0.46743100  1
  C  267  1  0.87568100  0.78342900  0.46733300  1
  C  268  1  0.88767700  0.77172600  0.49819800  1
  C  269  1  0.87561900  0.78335200  0.52906700  1
  C  270  1  0.85023200  0.80814100  0.52897300  1
  C  271  1  0.83654400  0.82045600  0.43747000  1
  C  272  1  0.83630000  0.82018900  0.55892900  1
  C  274  1  0.81229500  0.84614300  0.49820500  1
  C  275  1  0.79969300  0.85890800  0.46743800  1
  C  276  1  0.77485200  0.88424500  0.46734100  1
  C  277  1  0.76315500  0.89622400  0.49821800  1
  C  278  1  0.77477700  0.88415500  0.52908200  1
  C  279  1  0.79957900  0.85878200  0.52898000  1
  C  280  1  0.81188600  0.84512000  0.43747500  1
  C  282  1  0.81163500  0.84484600  0.55893100  1
  C  287  1  0.15714600  0.19099900  0.49828200  1
  C  288  1  0.14436900  0.20360000  0.46751800  1
  C  289  1  0.11902200  0.22842900  0.46744000  1
  C  290  1  0.10703600  0.24011200  0.49831700  1
  C  291  1  0.11913400  0.22850400  0.52917700  1
  C  292  1  0.14451400  0.20371000  0.52906200  1
  C  293  1  0.15815900  0.19141900  0.43755200  1
  C  294  1  0.15846600  0.19166100  0.55900800  1
  C  296  1  0.18243500  0.16571500  0.49827000  1
  C  297  1  0.19502900  0.15296200  0.46749300  1
  C  298  1  0.21987600  0.12763400  0.46738800  1
  C  299  1  0.23155100  0.11561100  0.49825500  1
  C  300  1  0.21995700  0.12768600  0.52912900  1
  C  301  1  0.19516200  0.15306700  0.52903700  1
  C  302  1  0.18282800  0.16676400  0.43753900  1
  C  304  1  0.18312200  0.16699800  0.55899600  1
  C  309  1  0.15712700  0.82081400  0.49859600  1
  C  310  1  0.14434100  0.80820000  0.52935300  1
  C  311  1  0.11896400  0.78340100  0.52941800  1
  C  312  1  0.10702500  0.77169100  0.49853400  1
  C  313  1  0.11913300  0.78331400  0.46768200  1
  C  314  1  0.14450700  0.80811300  0.46780900  1
  C  315  1  0.15813000  0.82036600  0.55932700  1
  C  316  1  0.15845900  0.82017900  0.43787000  1
  C  318  1  0.18240700  0.84610600  0.49862300  1
  C  319  1  0.19498300  0.85885400  0.52940800  1
  C  320  1  0.21978200  0.88423000  0.52952500  1
  C  321  1  0.23150300  0.89623400  0.49867100  1
  C  322  1  0.21992000  0.88416300  0.46779100  1
  C  323  1  0.19513200  0.85877400  0.46786400  1
  C  324  1  0.18279000  0.84502800  0.55935400  1
  C  326  1  0.18310500  0.84485400  0.43789800  1
  C  331  1  0.83751900  0.19102000  0.49859900  1
  C  332  1  0.85027500  0.20358100  0.52938800  1
  C  333  1  0.87559900  0.22843200  0.52951800  1
  C  334  1  0.88760500  0.24015500  0.49866100  1
  C  335  1  0.87551900  0.22860000  0.46777400  1
  C  336  1  0.85016300  0.20378200  0.46784600  1
  C  337  1  0.83648400  0.19133800  0.55933200  1
  C  338  1  0.83623200  0.19177100  0.43787500  1
  C  340  1  0.81224000  0.16572500  0.49856400  1
  C  341  1  0.79964900  0.15290700  0.52931600  1
  C  342  1  0.77482200  0.12755500  0.52937300  1
  C  343  1  0.76313700  0.11560900  0.49848200  1
  C  344  1  0.77470800  0.12777300  0.46763000  1
  C  345  1  0.79952400  0.15312900  0.46777400  1
  C  346  1  0.81183700  0.16666200  0.55929700  1
  C  348  1  0.81157000  0.16711300  0.43784000  1
  C  353  1  0.49718500  0.84615300  0.81337200  1
  C  354  1  0.46643000  0.85893600  0.80075900  1
  C  355  1  0.46636500  0.88427500  0.77592000  1
  C  356  1  0.49725000  0.89624400  0.76424000  1
  C  357  1  0.52810600  0.88415000  0.77586800  1
  C  358  1  0.52797000  0.85877400  0.80066900  1
  C  359  1  0.43645400  0.84515700  0.81293200  1
  C  360  1  0.55790800  0.84481900  0.81273300  1
  C  362  1  0.49715500  0.82086600  0.83865900  1
  C  363  1  0.46637000  0.80828500  0.85140700  1
  C  364  1  0.46625100  0.78344600  0.87674900  1
  C  365  1  0.49711000  0.77172100  0.88874200  1
  C  366  1  0.52799200  0.78332700  0.87669100  1
  C  367  1  0.52791500  0.80812800  0.85131500  1
  C  368  1  0.43642400  0.82050000  0.83760100  1
  C  370  1  0.55788100  0.82015700  0.83739200  1
  C  375  1  0.49716500  0.16565900  0.18348000  1
  C  376  1  0.46638800  0.15290000  0.19606600  1
  C  377  1  0.46628300  0.12755500  0.22089600  1
  C  378  1  0.49714800  0.11555500  0.23259800  1
  C  379  1  0.52802200  0.12763100  0.22100700  1
  C  380  1  0.52793200  0.15300700  0.19620600  1
  C  381  1  0.43643400  0.16670600  0.18387200  1
  C  382  1  0.55788800  0.16694600  0.18417400  1
  C  384  1  0.49717700  0.19095300  0.15820000  1
  C  385  1  0.46641300  0.20356600  0.14543500  1
  C  386  1  0.46633000  0.22841900  0.12011200  1
  C  387  1  0.49720700  0.24008500  0.10811200  1
  C  388  1  0.52807400  0.22847600  0.12020100  1
  C  389  1  0.52795500  0.20366900  0.14557200  1
  C  390  1  0.43644700  0.19137800  0.15922000  1
  C  392  1  0.55790100  0.19160800  0.15951600  1
  C  397  1  0.49753600  0.16564200  0.81337200  1
  C  398  1  0.52830100  0.15287000  0.80076600  1
  C  399  1  0.52838300  0.12749700  0.77596500  1
  C  400  1  0.49750600  0.11553900  0.76425000  1
  C  401  1  0.46664900  0.12763000  0.77586800  1
  C  402  1  0.46675600  0.15300600  0.80066400  1
  C  403  1  0.55826600  0.16667100  0.81293700  1
  C  404  1  0.43681000  0.16695200  0.81271800  1
  C  406  1  0.49754600  0.19093100  0.83865400  1
  C  407  1  0.52832300  0.20352100  0.85141000  1
  C  408  1  0.52842800  0.22832500  0.87677800  1
  C  409  1  0.49756600  0.24004700  0.88876200  1
  C  410  1  0.46669400  0.22845500  0.87667900  1
  C  411  1  0.46677800  0.20365400  0.85130500  1
  C  412  1  0.55827600  0.19133800  0.83759100  1
  C  414  1  0.43682000  0.19161100  0.83738000  1
  C  419  1  0.49750100  0.84612800  0.18348100  1
  C  420  1  0.52827800  0.85890100  0.19605800  1
  C  421  1  0.52837800  0.88424000  0.22089700  1
  C  422  1  0.49751100  0.89620900  0.23262300  1
  C  423  1  0.46663900  0.88410600  0.22105200  1
  C  424  1  0.46673600  0.85875700  0.19622600  1
  C  425  1  0.55823200  0.84511300  0.18384300  1
  C  426  1  0.43677800  0.84481400  0.18419900  1
  C  428  1  0.49749100  0.82084100  0.15819500  1
  C  429  1  0.52825300  0.80825500  0.14540300  1
  C  430  1  0.52833300  0.78342100  0.12005900  1
  C  431  1  0.49745400  0.77172100  0.10809400  1
  C  432  1  0.46659200  0.78328900  0.12023200  1
  C  433  1  0.46671100  0.80811300  0.14558300  1
  C  434  1  0.55822200  0.82045300  0.15917900  1
  C  436  1  0.43676800  0.82014900  0.15954500  1
  C  441  1  0.81225200  0.50574400  0.83863400  1
  C  442  1  0.79965400  0.47497700  0.85140000  1
  C  443  1  0.77481700  0.47488700  0.87674400  1
  C  444  1  0.76313200  0.50576100  0.88873500  1
  C  445  1  0.77476300  0.53662800  0.87667400  1
  C  446  1  0.79954200  0.53651900  0.85127800  1
  C  447  1  0.81184200  0.44501300  0.83760400  1
  C  448  1  0.81159000  0.56647000  0.83733700  1
  C  450  1  0.83753900  0.50574200  0.81334700  1
  C  451  1  0.85030900  0.47497200  0.80075600  1
  C  452  1  0.87566300  0.47488000  0.77593200  1
  C  453  1  0.88765000  0.50575200  0.76423200  1
  C  454  1  0.87557900  0.53661800  0.77585300  1
  C  455  1  0.85018500  0.53651400  0.80063200  1
  C  456  1  0.83651400  0.44501100  0.81294900  1
  C  458  1  0.83625000  0.56646700  0.81267800  1
  C  463  1  0.18245500  0.50571700  0.15822100  1
  C  464  1  0.19505400  0.47494700  0.14546000  1
  C  465  1  0.21987700  0.47485200  0.12010900  1
  C  466  1  0.23156300  0.50572200  0.10810700  1
  C  467  1  0.21996700  0.53659300  0.12019300  1
  C  468  1  0.19516600  0.53648900  0.14557000  1
  C  469  1  0.18287600  0.44498300  0.15926500  1
  C  470  1  0.18311300  0.56644200  0.15950600  1
  C  472  1  0.15716900  0.50571400  0.18350800  1
  C  473  1  0.14441500  0.47494200  0.19611300  1
  C  474  1  0.11906700  0.47484200  0.22094000  1
  C  475  1  0.10705100  0.50571200  0.23261200  1
  C  476  1  0.11912600  0.53657900  0.22100100  1
  C  477  1  0.14451600  0.53648600  0.19621600  1
  C  478  1  0.15822000  0.44498100  0.18393100  1
  C  480  1  0.15844400  0.56644000  0.18416000  1
  C  485  1  0.81225700  0.50607500  0.15819800  1
  C  486  1  0.79968100  0.53685700  0.14543500  1
  C  487  1  0.77487700  0.53696700  0.12006100  1
  C  488  1  0.76314200  0.50610500  0.10809000  1
  C  489  1  0.77474300  0.47523300  0.12016100  1
  C  490  1  0.79952900  0.47531300  0.14554700  1
  C  491  1  0.81188100  0.56680800  0.15924200  1
  C  492  1  0.81154800  0.44534900  0.15948400  1
  C  494  1  0.83753900  0.50605300  0.18348900  1
  C  495  1  0.85031900  0.53681500  0.19608900  1
  C  496  1  0.87567600  0.53688700  0.22090900  1
  C  497  1  0.88764700  0.50600800  0.23260100  1
  C  498  1  0.87554200  0.47514800  0.22099500  1
  C  499  1  0.85016000  0.47527000  0.19620100  1
  C  500  1  0.83653600  0.56678600  0.18391000  1
  C  502  1  0.83620500  0.44532900  0.18414800  1
  C  507  1  0.18245700  0.50607800  0.83858400  1
  C  508  1  0.19504300  0.53684000  0.85137700  1
  C  509  1  0.21985600  0.53691200  0.87673900  1
  C  510  1  0.23157200  0.50603500  0.88869000  1
  C  511  1  0.22000100  0.47517300  0.87655400  1
  C  512  1  0.19518000  0.47529500  0.85120000  1
  C  513  1  0.18285300  0.56680800  0.83760100  1
  C  514  1  0.18313100  0.44535200  0.83724800  1
  C  516  1  0.15717500  0.50609200  0.81329300  1
  C  517  1  0.14440700  0.53687200  0.80071600  1
  C  518  1  0.11906600  0.53698400  0.77588000  1
  C  519  1  0.10707700  0.50611500  0.76417200  1
  C  520  1  0.11918200  0.47523800  0.77573300  1
  C  521  1  0.14453800  0.47532800  0.80055200  1
  C  522  1  0.15820000  0.56682600  0.81292900  1
  C  524  1  0.15847500  0.44536900  0.81258300  1
  C  529  1  0.43776100  0.24094500  0.89349900  1
  C  531  1  0.41230500  0.29022100  0.91655000  1
  C  532  1  0.39286200  0.27090300  0.93849000  1
  C  534  1  0.41747200  0.22139400  0.91482100  1
  C  536  1  0.42043600  0.18936800  0.91853700  1
  C  538  1  0.55691300  0.77084000  0.89353800  1
  C  540  1  0.58251300  0.72159800  0.91648800  1
  C  541  1  0.60191100  0.74094100  0.93846200  1
  C  543  1  0.57724200  0.79043200  0.91477800  1
  C  545  1  0.57426000  0.82245900  0.91849400  1
  C  547  1  0.55702700  0.24091400  0.10336100  1
  C  549  1  0.58252500  0.29018900  0.08037000  1
  C  550  1  0.60186600  0.27082300  0.05837000  1
  C  552  1  0.57734600  0.22132700  0.08211400  1
  C  554  1  0.57438700  0.18929800  0.07843700  1
  C  556  1  0.43763900  0.77089000  0.10337900  1
  C  558  1  0.41214300  0.72163500  0.08027500  1
  C  559  1  0.39278000  0.74100900  0.05829900  1
  C  561  1  0.41740400  0.79045700  0.08202800  1
  C  563  1  0.42029100  0.82251400  0.07849900  1
  C  565  1  0.89235600  0.44618600  0.23342500  1
  C  567  1  0.91547300  0.42073900  0.28269700  1
  C  568  1  0.93743200  0.40133600  0.26334600  1
  C  570  1  0.91372100  0.42594600  0.21387700  1
  C  572  1  0.91726500  0.42881600  0.18182200  1
  C  574  1  0.89240900  0.56557600  0.76342300  1
  C  576  1  0.91544300  0.59102000  0.71413100  1
  C  577  1  0.93741000  0.61043800  0.73344500  1
  C  579  1  0.91378300  0.58581300  0.78295600  1
  C  581  1  0.91735700  0.58293400  0.81500500  1
  C  583  1  0.10226200  0.56550700  0.23346200  1
  C  585  1  0.07925100  0.59100200  0.28271000  1
  C  586  1  0.05728600  0.61038800  0.26335900  1
  C  588  1  0.08092600  0.58574100  0.21387700  1
  C  590  1  0.07735900  0.58283700  0.18182700  1
  C  592  1  0.10231000  0.44631800  0.76329100  1
  C  594  1  0.07917500  0.42084200  0.71405900  1
  C  595  1  0.05725000  0.40144100  0.73343500  1
  C  597  1  0.08097400  0.42607300  0.78287400  1
  C  599  1  0.07737600  0.42899300  0.81492000  1
  C  601  1  0.23240400  0.90100300  0.43886600  1
  C  603  1  0.28166900  0.92407700  0.41341200  1
  C  604  1  0.26234300  0.94601100  0.39396900  1
  C  606  1  0.21284500  0.92232200  0.41858400  1
  C  608  1  0.18081700  0.92602100  0.42154600  1
  C  610  1  0.76230300  0.90098800  0.55801800  1
  C  612  1  0.71306400  0.92393000  0.58362800  1
  C  613  1  0.73240700  0.94592400  0.60300100  1
  C  615  1  0.78189800  0.92224300  0.57832700  1
  C  617  1  0.81392000  0.92596800  0.57532800  1
  C  619  1  0.23239400  0.11082600  0.55807000  1
  C  621  1  0.28166200  0.08782000  0.58356600  1
  C  622  1  0.26229400  0.06582700  0.60290900  1
  C  624  1  0.21280300  0.08958200  0.57838900  1
  C  626  1  0.18077100  0.08591600  0.57543200  1
  C  628  1  0.76231600  0.11093600  0.43866700  1
  C  630  1  0.71306400  0.08782000  0.41317600  1
  C  631  1  0.73243900  0.06583800  0.39382000  1
  C  633  1  0.78188600  0.08958200  0.41843700  1
  C  635  1  0.81394000  0.08605600  0.42132700  1
  C  637  1  0.23222900  0.44592900  0.10317500  1
  C  639  1  0.28147000  0.42043100  0.08006300  1
  C  640  1  0.26211400  0.40121200  0.05794900  1
  C  642  1  0.21266700  0.42587600  0.08164700  1
  C  644  1  0.18063200  0.42888600  0.07803900  1
  C  646  1  0.76246500  0.56588700  0.10315600  1
  C  648  1  0.71321600  0.59147000  0.08022800  1
  C  649  1  0.73255600  0.61065500  0.05807800  1
  C  651  1  0.78204200  0.58597700  0.08167800  1
  C  653  1  0.81407200  0.58295300  0.07802200  1
  C  655  1  0.23223700  0.56580500  0.89371800  1
  C  657  1  0.28143800  0.59138600  0.91671200  1
  C  658  1  0.26210200  0.61065700  0.93880100  1
  C  660  1  0.21263800  0.58585800  0.91520400  1
  C  662  1  0.18061200  0.58280700  0.91885500  1
  C  664  1  0.76241500  0.44599100  0.89369500  1
  C  666  1  0.71321800  0.42041600  0.91674500  1
  C  667  1  0.73256600  0.40114200  0.93882600  1
  C  669  1  0.78201000  0.42590100  0.91515700  1
  C  671  1  0.81403200  0.42896300  0.91886000  1
  C  673  1  0.43748000  0.90122900  0.76349500  1
  C  675  1  0.41191600  0.92422400  0.71427600  1
  C  676  1  0.39263500  0.94631700  0.73359400  1
  C  678  1  0.41736000  0.92267100  0.78308500  1
  C  680  1  0.42047300  0.92646400  0.81508700  1
  C  682  1  0.55728300  0.90117200  0.23329600  1
  C  684  1  0.58294900  0.92409700  0.28251300  1
  C  685  1  0.60214000  0.94625300  0.26317200  1
  C  687  1  0.57740800  0.92259600  0.21369400  1
  C  689  1  0.57427200  0.92639600  0.18169500  1
  C  691  1  0.55730800  0.11060100  0.76355000  1
  C  693  1  0.58284900  0.08768300  0.71427600  1
  C  694  1  0.60211300  0.06555600  0.73357900  1
  C  696  1  0.57748500  0.08920000  0.78311300  1
  C  698  1  0.57441400  0.08540900  0.81511700  1
  C  700  1  0.43736800  0.11063800  0.23328700  1
  C  702  1  0.41178700  0.08763000  0.28253800  1
  C  703  1  0.39265500  0.06544600  0.26318000  1
  C  705  1  0.41731500  0.08910600  0.21372200  1
  C  707  1  0.42033900  0.08546800  0.18169200  1
  C  709  1  0.89254300  0.24074500  0.55845600  1
  C  711  1  0.91559500  0.28998200  0.58398400  1
  C  712  1  0.93772800  0.27064900  0.60321000  1
  C  714  1  0.91408700  0.22118300  0.57847900  1
  C  716  1  0.91773500  0.18915700  0.57543000  1
  C  718  1  0.89258800  0.77104700  0.43840800  1
  C  720  1  0.91560500  0.72176000  0.41291700  1
  C  721  1  0.93775800  0.74105800  0.39369800  1
  C  723  1  0.91416400  0.79056400  0.41836500  1
  C  725  1  0.91783500  0.82259100  0.42137700  1
  C  727  1  0.10207500  0.24084800  0.43855000  1
  C  729  1  0.07906100  0.29007900  0.41300400  1
  C  730  1  0.05695100  0.27073100  0.39378300  1
  C  732  1  0.08057100  0.22126600  0.41848200  1
  C  734  1  0.07692800  0.18923600  0.42150600  1
  C  736  1  0.10201800  0.77098200  0.55831400  1
  C  738  1  0.07899100  0.72176000  0.58384500  1
  C  739  1  0.05691200  0.74112600  0.60309100  1
  C  741  1  0.08059100  0.79057900  0.57843600  1
  C  743  1  0.07691400  0.82260600  0.57541200  1
  C  745  1  0.55722600  0.77103400  0.10308300  1
  C  747  1  0.58279200  0.72183200  0.08007400  1
  C  748  1  0.60206800  0.74117500  0.05799200  1
  C  750  1  0.57734900  0.79064600  0.08167300  1
  C  752  1  0.57422500  0.82265100  0.07790100  1
  C  754  1  0.43742700  0.24083300  0.10318600  1
  C  756  1  0.41185400  0.29010400  0.08022200  1
  C  757  1  0.39268000  0.27078600  0.05804300  1
  C  759  1  0.41731500  0.22128000  0.08170200  1
  C  761  1  0.42041800  0.18927800  0.07790300  1
  C  763  1  0.43731800  0.77107700  0.89367000  1
  C  765  1  0.41176000  0.72181900  0.91663300  1
  C  766  1  0.39259300  0.74117800  0.93879100  1
  C  768  1  0.41717500  0.79066600  0.91508200  1
  C  770  1  0.42027200  0.82267300  0.91884000  1
  C  772  1  0.55736600  0.24069900  0.89366300  1
  C  774  1  0.58288100  0.28996700  0.91670700  1
  C  775  1  0.60208000  0.27062400  0.93885600  1
  C  777  1  0.57744300  0.22115300  0.91518200  1
  C  779  1  0.57444700  0.18911900  0.91881000  1
  C  781  1  0.10209700  0.56590200  0.76353800  1
  C  783  1  0.07906800  0.59144800  0.71431600  1
  C  784  1  0.05693300  0.61064700  0.73367400  1
  C  786  1  0.08060400  0.58595300  0.78313000  1
  C  788  1  0.07698100  0.58291600  0.81515900  1
  C  790  1  0.10215300  0.44591700  0.23332000  1
  C  792  1  0.07909600  0.42044300  0.28260300  1
  C  793  1  0.05695000  0.40124400  0.26327700  1
  C  795  1  0.08059300  0.42586700  0.21379000  1
  C  797  1  0.07695700  0.42886300  0.18175800  1
  C  799  1  0.89262000  0.44597900  0.76354000  1
  C  801  1  0.91561200  0.42043100  0.71431300  1
  C  802  1  0.93772800  0.40121400  0.73366400  1
  C  804  1  0.91411400  0.42591900  0.78313000  1
  C  806  1  0.91775300  0.42895300  0.81515900  1
  C  808  1  0.89259800  0.56578800  0.23331700  1
  C  810  1  0.91566900  0.59130400  0.28254800  1
  C  811  1  0.93775100  0.61059200  0.26322400  1
  C  813  1  0.91410600  0.58586500  0.21375900  1
  C  815  1  0.91782200  0.58282200  0.18173800  1
  C  817  1  0.76242500  0.11056200  0.55825200  1
  C  819  1  0.71320300  0.08757700  0.58380000  1
  C  820  1  0.73253400  0.06547200  0.60304900  1
  C  822  1  0.78202300  0.08912200  0.57835700  1
  C  824  1  0.81402700  0.08534300  0.57523600  1
  C  826  1  0.23227500  0.11072000  0.43847500  1
  C  828  1  0.28153300  0.08774900  0.41289000  1
  C  829  1  0.26220600  0.06556500  0.39372800  1
  C  831  1  0.21271300  0.08923300  0.41837500  1
  C  833  1  0.18071100  0.08543800  0.42148900  1
  C  835  1  0.76248700  0.90119900  0.43842800  1
  C  837  1  0.71324000  0.92417600  0.41286700  1
  C  838  1  0.73260900  0.94633000  0.39370500  1
  C  840  1  0.78208500  0.92261300  0.41829500  1
  C  842  1  0.81409400  0.92635900  0.42139400  1
  C  844  1  0.23215400  0.90110500  0.55847100  1
  C  846  1  0.28142500  0.92415600  0.58397600  1
  C  847  1  0.26208200  0.94631200  0.60316800  1
  C  849  1  0.21261000  0.92262800  0.57854300  1
  C  851  1  0.18057600  0.92625500  0.57554700  1
  C  853  1  0.76235800  0.56558900  0.89352100  1
  C  855  1  0.71310100  0.59104500  0.91662000  1
  C  856  1  0.73246200  0.61046000  0.93856200  1
  C  858  1  0.78192500  0.58583600  0.91485600  1
  C  860  1  0.81398000  0.58295600  0.91838500  1
  C  862  1  0.23241500  0.44623000  0.89342900  1
  C  864  1  0.28167700  0.42073900  0.91644800  1
  C  865  1  0.26232100  0.40138100  0.93843300  1
  C  867  1  0.21283800  0.42599600  0.91476800  1
  C  869  1  0.18078700  0.42889300  0.91832000  1
  C  871  1  0.76226300  0.44631300  0.10331200  1
  C  873  1  0.71303600  0.42078900  0.08028200  1
  C  874  1  0.73236700  0.40133400  0.05835500  1
  C  876  1  0.78184600  0.42606600  0.08198000  1
  C  878  1  0.81389500  0.42897300  0.07839800  1
  C  880  1  0.23243800  0.56551700  0.10333400  1
  C  882  1  0.28166400  0.59103700  0.08026900  1
  C  883  1  0.26229400  0.61043100  0.05832900  1
  C  885  1  0.21284400  0.58577800  0.08202600  1
  C  887  1  0.18080100  0.58284900  0.07840900  1
  C  889  1  0.55694200  0.11077200  0.23348500  1
  C  891  1  0.58245600  0.08772100  0.28271700  1
  C  892  1  0.60185400  0.06578700  0.26335100  1
  C  894  1  0.57724200  0.08950700  0.21388200  1
  C  896  1  0.57426200  0.08582700  0.18185300  1
  C  898  1  0.43769900  0.11083600  0.76338800  1
  C  900  1  0.41215800  0.08785600  0.71411600  1
  C  901  1  0.39276500  0.06586300  0.73343800  1
  C  903  1  0.41738900  0.08954400  0.78294600  1
  C  905  1  0.42036100  0.08581600  0.81497000  1
  C  907  1  0.43770100  0.90097300  0.23348700  1
  C  909  1  0.41218300  0.92394500  0.28275000  1
  C  910  1  0.39276700  0.94591700  0.26341900  1
  C  912  1  0.41738200  0.92221800  0.21390600  1
  C  914  1  0.42035100  0.92591900  0.18188000  1
  C  916  1  0.55707700  0.90098300  0.76346800  1
  C  918  1  0.58255800  0.92403200  0.71419100  1
  C  919  1  0.60192400  0.94603100  0.73354200  1
  C  921  1  0.57731100  0.92234000  0.78302300  1
  C  923  1  0.57442200  0.92589100  0.81507500  1
  C  925  1  0.10232800  0.77089200  0.43871400  1
  C  927  1  0.07924700  0.72162800  0.41323300  1
  C  928  1  0.05729100  0.74096100  0.39381000  1
  C  930  1  0.08095600  0.79043700  0.41848200  1
  C  932  1  0.07738400  0.82248600  0.42137700  1
  C  934  1  0.10231500  0.24093900  0.55813500  1
  C  936  1  0.07922700  0.29022600  0.58358100  1
  C  937  1  0.05725000  0.27088300  0.60295400  1
  C  939  1  0.08092800  0.22140100  0.57836400  1
  C  941  1  0.07737300  0.18934800  0.57548900  1
  C  943  1  0.89247300  0.77087700  0.55799800  1
  C  945  1  0.91545300  0.72162500  0.58350600  1
  C  946  1  0.93739000  0.74094900  0.60295100  1
  C  948  1  0.91379500  0.79045000  0.57825500  1
  C  950  1  0.91738200  0.82249900  0.57535700  1
  C  952  1  0.89244100  0.24104300  0.43887100  1
  C  954  1  0.91552300  0.29025300  0.41336200  1
  C  955  1  0.93743700  0.27086000  0.39395400  1
  C  957  1  0.91370300  0.22142600  0.41859400  1
  C  959  1  0.91728500  0.18937800  0.42151100  1
  N  530  1  0.43419200  0.27463600  0.89600700  1
  N  533  1  0.39703800  0.23728200  0.93658300  1
  N  537  1  0.42305200  0.16110300  0.92186400  1
  N  539  1  0.56051900  0.73715800  0.89603700  1
  N  542  1  0.59769500  0.77455800  0.93652900  1
  N  546  1  0.57162700  0.85072000  0.92181900  1
  N  548  1  0.56057100  0.27460600  0.10085200  1
  N  551  1  0.59775500  0.23720400  0.06032000  1
  N  555  1  0.57177100  0.16102800  0.07514600  1
  N  557  1  0.43407500  0.73720100  0.10079000  1
  N  560  1  0.39694300  0.77462100  0.06026400  1
  N  564  1  0.42284000  0.85080200  0.07533300  1
  N  566  1  0.89493200  0.44263900  0.26711700  1
  N  569  1  0.93547800  0.40548800  0.22973200  1
  N  573  1  0.92044100  0.43135200  0.15353200  1
  N  575  1  0.89492500  0.56911000  0.72972700  1
  N  578  1  0.93550800  0.60627900  0.76706900  1
  N  582  1  0.92056000  0.58039200  0.84329100  1
  N  584  1  0.09981000  0.56910800  0.26714900  1
  N  587  1  0.05919100  0.60622400  0.22973700  1
  N  591  1  0.07416000  0.58027300  0.15354300  1
  N  593  1  0.09975600  0.44272400  0.72960500  1
  N  596  1  0.05920000  0.40560500  0.76705200  1
  N  600  1  0.07415200  0.43157100  0.84319900  1
  N  602  1  0.26609400  0.90352400  0.43529700  1
  N  605  1  0.22872300  0.94409000  0.39814800  1
  N  609  1  0.15255100  0.92933300  0.42416200  1
  N  611  1  0.72862200  0.90347400  0.56163900  1
  N  614  1  0.76602200  0.94400000  0.59877300  1
  N  618  1  0.84218100  0.92930100  0.57267900  1
  N  620  1  0.26608700  0.10830800  0.56161400  1
  N  623  1  0.22867300  0.06778400  0.59879800  1
  N  627  1  0.15250100  0.08263500  0.57281900  1
  N  629  1  0.72862700  0.10834100  0.43510300  1
  N  632  1  0.76605200  0.06780900  0.39798400  1
  N  636  1  0.84223100  0.08289300  0.42388000  1
  N  638  1  0.26591500  0.44227800  0.10067600  1
  N  641  1  0.22850900  0.40547300  0.05983000  1
  N  645  1  0.15236100  0.43154400  0.07480200  1
  N  647  1  0.72878100  0.56958100  0.10079100  1
  N  650  1  0.76617300  0.60640100  0.05989700  1
  N  654  1  0.84233800  0.58028300  0.07474200  1
  N  656  1  0.26591500  0.56952100  0.89609700  1
  N  659  1  0.22849400  0.60631400  0.93696700  1
  N  663  1  0.15234800  0.58011400  0.92213100  1
  N  665  1  0.72873900  0.44227600  0.89612400  1
  N  668  1  0.76617100  0.40547300  0.93695700  1
  N  672  1  0.84228800  0.43166800  0.92218000  1
  N  674  1  0.43377900  0.90362600  0.72981900  1
  N  677  1  0.39696100  0.94447500  0.76720400  1
  N  681  1  0.42322300  0.92986100  0.84333100  1
  N  683  1  0.56101200  0.90357400  0.26697000  1
  N  686  1  0.59780200  0.94440800  0.22956400  1
  N  690  1  0.57150200  0.92980100  0.15345400  1
  N  692  1  0.56093000  0.10819400  0.72986300  1
  N  695  1  0.59785400  0.06740000  0.76719600  1
  N  699  1  0.57169900  0.08201300  0.84336600  1
  N  701  1  0.43366900  0.10819400  0.26696800  1
  N  704  1  0.39691100  0.06728900  0.22957100  1
  N  708  1  0.42301200  0.08220400  0.15342500  1
  N  710  1  0.89499200  0.27442900  0.56212700  1
  N  713  1  0.93588400  0.23704300  0.59889200  1
  N  717  1  0.92100800  0.16089300  0.57273700  1
  N  719  1  0.89501700  0.73735700  0.43475700  1
  N  722  1  0.93595400  0.77467500  0.39796600  1
  N  726  1  0.92112700  0.85085700  0.42404000  1
  N  728  1  0.09968100  0.27452900  0.43484400  1
  N  731  1  0.05878400  0.23711900  0.39805100  1
  N  735  1  0.07366000  0.16096900  0.42417700  1
  N  737  1  0.09960800  0.73730000  0.56199000  1
  N  740  1  0.05878200  0.77473800  0.59885700  1
  N  744  1  0.07361800  0.85086900  0.57273900  1
  N  746  1  0.56092500  0.73735700  0.10068400  1
  N  749  1  0.59774700  0.77478200  0.05985900  1
  N  753  1  0.57146500  0.85089700  0.07452300  1
  N  755  1  0.43374600  0.27451600  0.10076100  1
  N  758  1  0.39696100  0.23717100  0.05986700  1
  N  762  1  0.42316100  0.16103400  0.07450100  1
  N  764  1  0.43366400  0.73738700  0.89609200  1
  N  767  1  0.39681700  0.77479200  0.93692400  1
  N  771  1  0.42300700  0.85092200  0.92220500  1
  N  773  1  0.56100700  0.27438700  0.89614700  1
  N  776  1  0.59783700  0.23701500  0.93699100  1
  N  780  1  0.57180100  0.16084900  0.92206300  1
  N  782  1  0.09967200  0.56958100  0.72985600  1
  N  785  1  0.05879700  0.60636600  0.76728100  1
  N  789  1  0.07373100  0.58023300  0.84342800  1
  N  791  1  0.09969500  0.44227600  0.26701200  1
  N  794  1  0.05878300  0.40547300  0.22966100  1
  N  798  1  0.07369400  0.43151100  0.15348800  1
  N  800  1  0.89499200  0.44227600  0.72985600  1
  N  803  1  0.93589900  0.40548500  0.76727600  1
  N  807  1  0.92101800  0.43163300  0.84342500  1
  N  809  1  0.89504700  0.56946900  0.26699800  1
  N  812  1  0.93590400  0.60628200  0.22961600  1
  N  816  1  0.92115500  0.58013400  0.15348000  1
  N  818  1  0.72874400  0.10818800  0.56194500  1
  N  821  1  0.76614900  0.06730600  0.59874800  1
  N  825  1  0.84227000  0.08195800  0.57247800  1
  N  827  1  0.26595700  0.10829200  0.43478200  1
  N  830  1  0.22859400  0.06739200  0.39801900  1
  N  834  1  0.15246800  0.08203800  0.42424400  1
  N  836  1  0.72880100  0.90362600  0.43476900  1
  N  839  1  0.76622100  0.94446100  0.39793400  1
  N  843  1  0.84234300  0.92971700  0.42413200  1
  N  845  1  0.26584300  0.90359100  0.56210900  1
  N  848  1  0.22847300  0.94444600  0.59892900  1
  N  852  1  0.15230500  0.92950700  0.57290100  1
  N  854  1  0.72866400  0.56913000  0.89608500  1
  N  857  1  0.76607600  0.60630600  0.93660300  1
  N  861  1  0.84227000  0.58041700  0.92155100  1
  N  863  1  0.26610700  0.44265900  0.89591800  1
  N  866  1  0.22869900  0.40552800  0.93651400  1
  N  870  1  0.15250100  0.43145400  0.92150600  1
  N  872  1  0.72858200  0.44270100  0.10082900  1
  N  875  1  0.76598400  0.40556200  0.06027100  1
  N  879  1  0.84217600  0.43153600  0.07518700  1
  N  881  1  0.26612100  0.56913300  0.10083100  1
  N  884  1  0.22867600  0.60625700  0.06026600  1
  N  888  1  0.15252300  0.58026300  0.07516900  1
  N  890  1  0.56054600  0.10827200  0.26717200  1
  N  893  1  0.59769000  0.06773000  0.22973300  1
  N  897  1  0.57163200  0.08253200  0.15358500  1
  N  899  1  0.43412000  0.10831600  0.72970200  1
  N  902  1  0.39696300  0.06778100  0.76705500  1
  N  906  1  0.42298700  0.08248000  0.84323400  1
  N  908  1  0.43415200  0.90347600  0.26717700  1
  N  911  1  0.39695100  0.94398000  0.22979700  1
  N  915  1  0.42297400  0.92923100  0.15361400  1
  N  917  1  0.56062600  0.90352600  0.72977400  1
  N  920  1  0.59776500  0.94409500  0.76715900  1
  N  924  1  0.57187100  0.92907400  0.84336100  1
  N  926  1  0.09977200  0.73720100  0.43515000  1
  N  929  1  0.05922200  0.77457300  0.39800900  1
  N  933  1  0.07418100  0.85077200  0.42393000  1
  N  935  1  0.09976500  0.27463600  0.56168600  1
  N  938  1  0.05917200  0.23726300  0.59882000  1
  N  942  1  0.07418600  0.16106000  0.57294800  1
  N  944  1  0.89491700  0.73718800  0.56159400  1
  N  947  1  0.93549600  0.77457300  0.59876000  1
  N  951  1  0.92059700  0.85078000  0.57279900  1
  N  953  1  0.89495200  0.27472800  0.43527200  1
  N  956  1  0.93546800  0.23724500  0.39811100  1
  N  960  1  0.92049300  0.16109600  0.42408700  1
