# generated using pymatgen
data_H19C31N5
_symmetry_space_group_name_H-M   'P 1'
_cell_length_a   68.46470000
_cell_length_b   68.46470000
_cell_length_c   68.46470000
_cell_angle_alpha   90.00000000
_cell_angle_beta   90.00000000
_cell_angle_gamma   90.00000000
_symmetry_Int_Tables_number   1
_chemical_formula_structural   H19C31N5
_chemical_formula_sum   'H912 C1488 N240'
_cell_volume   320922.47175251
_cell_formula_units_Z   48
loop_
 _symmetry_equiv_pos_site_id
 _symmetry_equiv_pos_as_xyz
  1  'x, y, z'
loop_
 _atom_site_type_symbol
 _atom_site_label
 _atom_site_symmetry_multiplicity
 _atom_site_fract_x
 _atom_site_fract_y
 _atom_site_fract_z
 _atom_site_occupancy
  H  19  1  0.37399900  0.30651600  0.25381800  1
  H  20  1  0.35457300  0.29803300  0.28132500  1
  H  21  1  0.33406300  0.35096800  0.23895100  1
  H  22  1  0.29801500  0.28134100  0.35454800  1
  H  23  1  0.34253100  0.26644800  0.31435500  1
  H  24  1  0.35095500  0.23896800  0.33403900  1
  H  25  1  0.30649400  0.25383000  0.37396900  1
  H  26  1  0.26643800  0.31437700  0.34251100  1
  H  27  1  0.25383900  0.37401000  0.30649800  1
  H  28  1  0.28134400  0.35458300  0.29801200  1
  H  29  1  0.23896600  0.33406700  0.35094300  1
  H  36  1  0.31437400  0.34254000  0.26642500  1
  H  58  1  0.12809800  0.69547700  0.75377600  1
  H  59  1  0.14752600  0.70398600  0.78127300  1
  H  60  1  0.16806500  0.65104800  0.73891500  1
  H  61  1  0.20412100  0.72076100  0.85445200  1
  H  62  1  0.15956500  0.73560600  0.81428700  1
  H  63  1  0.15114100  0.76309100  0.83396400  1
  H  64  1  0.19564200  0.74827800  0.87386500  1
  H  65  1  0.23568600  0.68772700  0.84244500  1
  H  66  1  0.24830800  0.62807900  0.80646500  1
  H  67  1  0.22079900  0.64749400  0.79796300  1
  H  68  1  0.26316200  0.66805000  0.85089000  1
  H  75  1  0.18775400  0.65950400  0.76638100  1
  H  97  1  0.62808900  0.80648600  0.24833000  1
  H  98  1  0.64749900  0.79799300  0.22081300  1
  H  99  1  0.66805800  0.85091300  0.26318400  1
  H  100  1  0.70398800  0.78130900  0.14753700  1
  H  101  1  0.65950500  0.76641300  0.18776400  1
  H  102  1  0.65105100  0.73894700  0.16807400  1
  H  103  1  0.69547800  0.75381200  0.12810700  1
  H  104  1  0.73561000  0.81431300  0.15958200  1
  H  105  1  0.74827900  0.87389900  0.19564800  1
  H  106  1  0.72076600  0.85448400  0.20413300  1
  H  107  1  0.76309100  0.83399400  0.15115100  1
  H  114  1  0.68773000  0.84247500  0.23570000  1
  H  136  1  0.87388700  0.19562900  0.74830000  1
  H  137  1  0.85447100  0.20411400  0.72078600  1
  H  138  1  0.83397900  0.15113500  0.76311500  1
  H  139  1  0.79797900  0.22079900  0.64752200  1
  H  140  1  0.84246400  0.23568200  0.68775300  1
  H  141  1  0.85091000  0.26315900  0.66807400  1
  H  142  1  0.80648000  0.24830800  0.62810800  1
  H  143  1  0.76639700  0.18776000  0.65953000  1
  H  144  1  0.75378100  0.12810500  0.69550200  1
  H  145  1  0.78127900  0.14753200  0.70401700  1
  H  146  1  0.73893300  0.16807100  0.65106900  1
  H  153  1  0.81429900  0.15956500  0.73563300  1
  H  175  1  0.62809600  0.69558200  0.74828100  1
  H  176  1  0.64751900  0.70405900  0.72076900  1
  H  177  1  0.66803100  0.65112700  0.76314700  1
  H  178  1  0.70406100  0.72073700  0.64753400  1
  H  179  1  0.65955500  0.73563800  0.68773300  1
  H  180  1  0.65112400  0.76311000  0.66804100  1
  H  181  1  0.69557600  0.74824100  0.62810500  1
  H  182  1  0.73564400  0.68770900  0.65957400  1
  H  183  1  0.74825600  0.62808400  0.69559500  1
  H  184  1  0.72075000  0.64750900  0.70408100  1
  H  185  1  0.76311800  0.66802200  0.65114200  1
  H  192  1  0.68771500  0.65955000  0.73566700  1
  H  214  1  0.87395700  0.30660300  0.24832700  1
  H  215  1  0.85453600  0.29809400  0.22082500  1
  H  216  1  0.83400200  0.35104800  0.26316500  1
  H  217  1  0.79796300  0.28132900  0.14762500  1
  H  218  1  0.84251000  0.26648500  0.18780000  1
  H  219  1  0.85094100  0.23900200  0.16812300  1
  H  220  1  0.80644900  0.25381600  0.12821200  1
  H  221  1  0.76640100  0.31436500  0.15962200  1
  H  222  1  0.75376500  0.37401200  0.19559900  1
  H  223  1  0.78127600  0.35459900  0.20410700  1
  H  224  1  0.73892400  0.33403900  0.15117100  1
  H  231  1  0.81431800  0.34259600  0.23569500  1
  H  253  1  0.37399900  0.19559600  0.75375500  1
  H  254  1  0.35458300  0.20409600  0.78126400  1
  H  255  1  0.33403100  0.15116700  0.73890200  1
  H  256  1  0.29808700  0.22079700  0.85453000  1
  H  257  1  0.34257400  0.23568100  0.81430200  1
  H  258  1  0.35103100  0.26314600  0.83399100  1
  H  259  1  0.30660000  0.24829400  0.87395600  1
  H  260  1  0.26647000  0.18777900  0.84249600  1
  H  261  1  0.25380100  0.12819400  0.80642600  1
  H  262  1  0.28131600  0.14760600  0.79794400  1
  H  263  1  0.23898600  0.16810100  0.85092200  1
  H  270  1  0.31435200  0.15961200  0.76637900  1
  H  292  1  0.12819400  0.80645800  0.25379100  1
  H  293  1  0.14761000  0.79797200  0.28130300  1
  H  294  1  0.16809700  0.85095800  0.23898000  1
  H  295  1  0.20410200  0.78129000  0.35456700  1
  H  296  1  0.15961700  0.76640800  0.31433700  1
  H  297  1  0.15117700  0.73892600  0.33400900  1
  H  298  1  0.19560700  0.75377400  0.37397700  1
  H  299  1  0.23568400  0.81433500  0.34256100  1
  H  300  1  0.24829200  0.87399100  0.30658900  1
  H  301  1  0.22079300  0.85456500  0.29807800  1
  H  302  1  0.26315000  0.83402300  0.35101600  1
  H  309  1  0.18777700  0.84252900  0.26646000  1
  H  331  1  0.22047100  0.42098500  0.34780300  1
  H  332  1  0.19089800  0.43690900  0.35608900  1
  H  333  1  0.10670700  0.47634200  0.36888800  1
  H  334  1  0.16833600  0.47491600  0.37299100  1
  H  335  1  0.16825900  0.50786300  0.38406800  1
  H  336  1  0.10671700  0.50919500  0.37975300  1
  H  337  1  0.08344800  0.43958100  0.35546500  1
  H  338  1  0.08033300  0.36893300  0.35162900  1
  H  339  1  0.11141600  0.38452500  0.35351700  1
  H  340  1  0.05256900  0.42400700  0.35336900  1
  H  347  1  0.15952600  0.38519600  0.34355100  1
  H  349  1  0.18923800  0.36928100  0.33518900  1
  H  352  1  0.12474400  0.53483900  0.39724600  1
  H  353  1  0.23624700  0.39372100  0.33072200  1
  H  354  1  0.04447300  0.37283000  0.34527900  1
  H  373  1  0.28162300  0.58112600  0.84783100  1
  H  374  1  0.31118400  0.56518600  0.85612200  1
  H  375  1  0.39530900  0.52560400  0.86871700  1
  H  376  1  0.33370200  0.52719000  0.87306600  1
  H  377  1  0.33373400  0.49423400  0.88410600  1
  H  378  1  0.39525300  0.49273700  0.87954400  1
  H  379  1  0.41860100  0.56237800  0.85527900  1
  H  380  1  0.42185300  0.63304800  0.85201700  1
  H  381  1  0.39074200  0.61750100  0.85381000  1
  H  382  1  0.44950500  0.57790200  0.85327200  1
  H  389  1  0.34259600  0.61686600  0.84354300  1
  H  391  1  0.31289400  0.63279800  0.83517800  1
  H  394  1  0.37726200  0.46709000  0.89698800  1
  H  395  1  0.26586000  0.60838700  0.83074100  1
  H  396  1  0.45769700  0.62923000  0.84578600  1
  H  415  1  0.78156100  0.92090000  0.15430400  1
  H  416  1  0.81111800  0.93686000  0.14604100  1
  H  417  1  0.89525400  0.97637600  0.13317000  1
  H  418  1  0.83361800  0.97490400  0.12917500  1
  H  419  1  0.83366100  0.00782100  0.11799300  1
  H  420  1  0.89520800  0.00919500  0.12219300  1
  H  421  1  0.91852000  0.93973700  0.14689500  1
  H  422  1  0.92185800  0.86907000  0.15013100  1
  H  423  1  0.89072500  0.88458200  0.14838300  1
  H  424  1  0.94944000  0.92425000  0.14885900  1
  H  431  1  0.84254700  0.88518500  0.15860100  1
  H  433  1  0.81284800  0.86923400  0.16694000  1
  H  436  1  0.87704600  0.03462000  0.10439800  1
  H  437  1  0.76580800  0.89362300  0.17138200  1
  H  438  1  0.95770700  0.87305000  0.15654800  1
  H  457  1  0.72045200  0.08113000  0.65417800  1
  H  458  1  0.69088300  0.06519800  0.64589800  1
  H  459  1  0.60668700  0.02574000  0.63313800  1
  H  460  1  0.66833900  0.02706200  0.62936800  1
  H  461  1  0.66828500  0.99403800  0.61853800  1
  H  462  1  0.60671600  0.99280800  0.62252000  1
  H  463  1  0.58348200  0.06244700  0.64703100  1
  H  464  1  0.58025100  0.13313400  0.64991800  1
  H  465  1  0.61135000  0.11757600  0.64802200  1
  H  466  1  0.55259000  0.07798600  0.64914800  1
  H  473  1  0.65950200  0.11691900  0.65838800  1
  H  475  1  0.68920900  0.13284200  0.66674400  1
  H  478  1  0.62492700  0.96712100  0.60502400  1
  H  479  1  0.73622300  0.10840500  0.67123700  1
  H  480  1  0.54454800  0.12934400  0.65641100  1
  H  499  1  0.34780400  0.22048000  0.42095300  1
  H  500  1  0.35609500  0.19091200  0.43688200  1
  H  501  1  0.36890600  0.10673100  0.47633300  1
  H  502  1  0.37301400  0.16835800  0.47488900  1
  H  503  1  0.38409700  0.16829000  0.50783400  1
  H  504  1  0.37977500  0.10674900  0.50918500  1
  H  505  1  0.35548800  0.08346000  0.43957600  1
  H  506  1  0.35163200  0.08033200  0.36892900  1
  H  507  1  0.35352000  0.11141800  0.38451500  1
  H  508  1  0.35339400  0.05257900  0.42400800  1
  H  515  1  0.34356400  0.15952800  0.38517400  1
  H  517  1  0.33519800  0.18923300  0.36925300  1
  H  520  1  0.39727300  0.12478200  0.53482000  1
  H  521  1  0.33071400  0.23624400  0.39368500  1
  H  522  1  0.34528900  0.04447300  0.37283500  1
  H  541  1  0.84784900  0.28161800  0.58115100  1
  H  542  1  0.85613500  0.31117800  0.56520800  1
  H  543  1  0.86872100  0.39530500  0.52562100  1
  H  544  1  0.87308500  0.33369900  0.52721300  1
  H  545  1  0.88413000  0.33373000  0.49426100  1
  H  546  1  0.87955600  0.39524800  0.49275800  1
  H  547  1  0.85527300  0.41859700  0.56239400  1
  H  548  1  0.85201300  0.42185100  0.63306400  1
  H  549  1  0.85381100  0.39074000  0.61751800  1
  H  550  1  0.85326000  0.44949900  0.57791700  1
  H  557  1  0.84355300  0.34259300  0.61688600  1
  H  559  1  0.83519100  0.31289100  0.63282100  1
  H  562  1  0.89700900  0.37726000  0.46711700  1
  H  563  1  0.83075800  0.26585500  0.60841400  1
  H  564  1  0.84577800  0.45769400  0.62924300  1
  H  583  1  0.15429900  0.78155500  0.92087000  1
  H  584  1  0.14603500  0.81111200  0.93683200  1
  H  585  1  0.13316800  0.89524700  0.97635600  1
  H  586  1  0.12916000  0.83361100  0.97487800  1
  H  587  1  0.11797100  0.83365500  0.00779300  1
  H  588  1  0.12218400  0.89519900  0.00917300  1
  H  589  1  0.14690900  0.91851300  0.93972300  1
  H  590  1  0.15014200  0.92185900  0.86905500  1
  H  591  1  0.14838600  0.89072500  0.88456400  1
  H  592  1  0.14888000  0.94943400  0.92424000  1
  H  599  1  0.15859600  0.84254500  0.88516200  1
  H  601  1  0.16693400  0.81284800  0.86920600  1
  H  604  1  0.10437700  0.87703900  0.03459000  1
  H  605  1  0.17138200  0.76580800  0.89359100  1
  H  606  1  0.15656500  0.95770700  0.87304100  1
  H  625  1  0.65417700  0.72046200  0.08112900  1
  H  626  1  0.64590100  0.69088800  0.06520300  1
  H  627  1  0.63309700  0.60666900  0.02579000  1
  H  628  1  0.62933500  0.66832300  0.02708700  1
  H  629  1  0.61849800  0.66825700  0.99406600  1
  H  630  1  0.62247300  0.60668700  0.99285900  1
  H  631  1  0.64679600  0.58345000  0.06253200  1
  H  632  1  0.65034800  0.58033700  0.13319500  1
  H  633  1  0.64834000  0.61141200  0.11760300  1
  H  634  1  0.64901800  0.55257700  0.07810900  1
  H  641  1  0.65838000  0.65952300  0.11693500  1
  H  643  1  0.66666667  0.68923400  0.13285200  1
  H  646  1  0.60498600  0.62488700  0.96716100  1
  H  647  1  0.67123200  0.73624100  0.10840800  1
  H  648  1  0.65700700  0.54462100  0.12928600  1
  H  667  1  0.42098200  0.34781400  0.22045400  1
  H  668  1  0.43690700  0.35609200  0.19087900  1
  H  669  1  0.47633500  0.36887500  0.10668000  1
  H  670  1  0.47491800  0.37299100  0.16830900  1
  H  671  1  0.50786600  0.38406800  0.16822400  1
  H  672  1  0.50918800  0.37974200  0.10668200  1
  H  673  1  0.43957400  0.35545600  0.08342700  1
  H  674  1  0.36892500  0.35161800  0.08031900  1
  H  675  1  0.38452100  0.35350600  0.11140000  1
  H  676  1  0.42399700  0.35335900  0.05255100  1
  H  683  1  0.38519000  0.34356100  0.15951000  1
  H  685  1  0.36927400  0.33520800  0.18922200  1
  H  688  1  0.53483200  0.39724100  0.12470200  1
  H  689  1  0.39371300  0.33074000  0.23623300  1
  H  690  1  0.37282100  0.34526400  0.04445800  1
  H  709  1  0.58113200  0.84783900  0.28164400  1
  H  710  1  0.56519100  0.85613200  0.31120400  1
  H  711  1  0.52563200  0.86880400  0.39534000  1
  H  712  1  0.52713600  0.87290300  0.33371400  1
  H  713  1  0.49414800  0.88383400  0.33373400  1
  H  714  1  0.49273000  0.87952200  0.39527500  1
  H  715  1  0.56238900  0.85530500  0.41862200  1
  H  716  1  0.63305900  0.85205200  0.42187200  1
  H  717  1  0.61751300  0.85385200  0.39076200  1
  H  718  1  0.57791400  0.85329000  0.44952400  1
  H  725  1  0.61687900  0.84358500  0.34261600  1
  H  727  1  0.63281200  0.83521600  0.31291800  1
  H  730  1  0.46705800  0.89695700  0.37718400  1
  H  731  1  0.60839800  0.83075100  0.26588700  1
  H  732  1  0.62924100  0.84580800  0.45771300  1
  H  751  1  0.92088800  0.15428200  0.78158000  1
  H  752  1  0.93685000  0.14602500  0.81113800  1
  H  753  1  0.97637200  0.13316700  0.89527300  1
  H  754  1  0.97489500  0.12915900  0.83363900  1
  H  755  1  0.00781100  0.11797300  0.83368100  1
  H  756  1  0.00919000  0.12218600  0.89522700  1
  H  757  1  0.93973700  0.14690600  0.91853900  1
  H  758  1  0.86907000  0.15014500  0.92188300  1
  H  759  1  0.88457900  0.14838700  0.89074800  1
  H  760  1  0.92425300  0.14887800  0.94946000  1
  H  767  1  0.88517900  0.15859400  0.84256900  1
  H  769  1  0.86922500  0.16692800  0.81286900  1
  H  772  1  0.03461100  0.10438400  0.87706700  1
  H  773  1  0.89361100  0.17135800  0.76582700  1
  H  774  1  0.87305500  0.15657000  0.95773000  1
  H  793  1  0.08112200  0.65416400  0.72043400  1
  H  794  1  0.06519100  0.64588900  0.69086300  1
  H  795  1  0.02575200  0.63310700  0.60665900  1
  H  796  1  0.02706500  0.62934300  0.66831100  1
  H  797  1  0.99404400  0.61850700  0.66825300  1
  H  798  1  0.99282100  0.62248300  0.60668400  1
  H  799  1  0.06247200  0.64691200  0.58344400  1
  H  800  1  0.13314700  0.65015100  0.58026900  1
  H  801  1  0.11757400  0.64819000  0.61135600  1
  H  802  1  0.07802800  0.64908900  0.55256200  1
  H  809  1  0.11691500  0.65837900  0.65948900  1
  H  811  1  0.13283700  0.66666667  0.68919900  1
  H  814  1  0.96712900  0.60499200  0.62489200  1
  H  815  1  0.10839900  0.67122200  0.73621000  1
  H  816  1  0.12929500  0.65673300  0.54456000  1
  H  835  1  0.78160900  0.58110300  0.65428800  1
  H  836  1  0.81118000  0.56517600  0.64600000  1
  H  837  1  0.89536200  0.52573200  0.63318500  1
  H  838  1  0.83373400  0.52717100  0.62908600  1
  H  839  1  0.83380200  0.49422400  0.61800900  1
  H  840  1  0.89534500  0.49287900  0.62231900  1
  H  841  1  0.91863000  0.56249400  0.64659500  1
  H  842  1  0.92175100  0.63314300  0.65043800  1
  H  843  1  0.89066700  0.61755200  0.64855600  1
  H  844  1  0.94951000  0.57806600  0.64868500  1
  H  851  1  0.84255700  0.61688900  0.65852500  1
  H  853  1  0.81284800  0.63280700  0.66688700  1
  H  856  1  0.87731100  0.46723800  0.60483000  1
  H  857  1  0.76583900  0.60837200  0.67137000  1
  H  858  1  0.95761200  0.62924300  0.65677800  1
  H  877  1  0.72045200  0.42097200  0.15425500  1
  H  878  1  0.69089200  0.43691000  0.14595900  1
  H  879  1  0.60674400  0.47644000  0.13323200  1
  H  880  1  0.66838700  0.47502000  0.12936000  1
  H  881  1  0.66836900  0.50804400  0.11855100  1
  H  882  1  0.60680900  0.50937900  0.12263700  1
  H  883  1  0.58347300  0.43968400  0.14674900  1
  H  884  1  0.58023900  0.36901100  0.14997100  1
  H  885  1  0.61134600  0.38456600  0.14817900  1
  H  886  1  0.55257500  0.42415200  0.14875600  1
  H  893  1  0.65948900  0.38520700  0.15846900  1
  H  895  1  0.68918900  0.36927800  0.16683900  1
  H  898  1  0.62500500  0.53507600  0.10519000  1
  H  899  1  0.73621500  0.39370100  0.17132500  1
  H  900  1  0.54439800  0.37281900  0.15621900  1
  H  919  1  0.22052200  0.08119500  0.84777100  1
  H  920  1  0.19096700  0.06523400  0.85604100  1
  H  921  1  0.10683300  0.02571200  0.86892000  1
  H  922  1  0.16846900  0.02718700  0.87291600  1
  H  923  1  0.16842700  0.99427000  0.88410000  1
  H  924  1  0.10688100  0.99289300  0.87989800  1
  H  925  1  0.08356500  0.06235000  0.85519600  1
  H  926  1  0.08022300  0.13301600  0.85195600  1
  H  927  1  0.11135700  0.11750600  0.85370400  1
  H  928  1  0.05264400  0.07783400  0.85323100  1
  H  935  1  0.15953300  0.11690500  0.84348600  1
  H  937  1  0.18922900  0.13285900  0.83514000  1
  H  940  1  0.12504300  0.96747100  0.89769600  1
  H  941  1  0.23626800  0.10847200  0.83068500  1
  H  942  1  0.04437400  0.12903400  0.84554000  1
  H  961  1  0.28163300  0.92096500  0.34789900  1
  H  962  1  0.31120300  0.93689500  0.35618100  1
  H  963  1  0.39540800  0.97633000  0.36897100  1
  H  964  1  0.33375600  0.97502100  0.37273200  1
  H  965  1  0.33381400  0.00804300  0.38356600  1
  H  966  1  0.39538500  0.00926200  0.37959300  1
  H  967  1  0.41862300  0.93960700  0.35518200  1
  H  968  1  0.42179600  0.86893100  0.35194800  1
  H  969  1  0.39070800  0.88450600  0.35390200  1
  H  970  1  0.44950500  0.92405000  0.35301300  1
  H  977  1  0.34257800  0.88516700  0.34370300  1
  H  979  1  0.31286900  0.86924700  0.33534500  1
  H  982  1  0.37717800  0.03495500  0.39708200  1
  H  983  1  0.26586000  0.89368700  0.33083900  1
  H  984  1  0.45750600  0.87278100  0.34537500  1
  H  1003  1  0.65427000  0.78160300  0.58112400  1
  H  1004  1  0.64598900  0.81117600  0.56519800  1
  H  1005  1  0.63319800  0.89536800  0.52576200  1
  H  1006  1  0.62908100  0.83373900  0.52719000  1
  H  1007  1  0.61799900  0.83381800  0.49424500  1
  H  1008  1  0.62232700  0.89535900  0.49291000  1
  H  1009  1  0.64662100  0.91862700  0.56252100  1
  H  1010  1  0.65046700  0.92174400  0.63316900  1
  H  1011  1  0.64857700  0.89066100  0.61757700  1
  H  1012  1  0.64872000  0.94950600  0.57809500  1
  H  1019  1  0.65852800  0.84255000  0.61691100  1
  H  1021  1  0.66688500  0.81284000  0.63282700  1
  H  1024  1  0.60482600  0.87733400  0.46727200  1
  H  1025  1  0.67134900  0.76582700  0.60839100  1
  H  1026  1  0.65681800  0.95760300  0.62926900  1
  H  1045  1  0.15425200  0.72046200  0.42093400  1
  H  1046  1  0.14595700  0.69090400  0.43687500  1
  H  1047  1  0.13328400  0.60677000  0.47643500  1
  H  1048  1  0.12918000  0.66839400  0.47493000  1
  H  1049  1  0.11824600  0.66837200  0.50791700  1
  H  1050  1  0.12256200  0.60683300  0.50933600  1
  H  1051  1  0.14678200  0.58348600  0.43967900  1
  H  1052  1  0.15002500  0.58023500  0.36900800  1
  H  1053  1  0.14823000  0.61134600  0.38455400  1
  H  1054  1  0.14879400  0.55258400  0.42415400  1
  H  1061  1  0.15850400  0.65949000  0.38518800  1
  H  1063  1  0.16687300  0.68918900  0.36925500  1
  H  1066  1  0.10512100  0.62492200  0.53500400  1
  H  1067  1  0.17133900  0.73622100  0.39366700  1
  H  1068  1  0.15626700  0.54439300  0.37282600  1
  H  1087  1  0.84779800  0.22053400  0.08121600  1
  H  1088  1  0.85605700  0.19097600  0.06525500  1
  H  1089  1  0.86891700  0.10683900  0.02573300  1
  H  1090  1  0.87292600  0.16847500  0.02721000  1
  H  1091  1  0.88411300  0.16843100  0.99429500  1
  H  1092  1  0.87989900  0.10688600  0.99291600  1
  H  1093  1  0.85517500  0.08357500  0.06236800  1
  H  1094  1  0.85194600  0.08023100  0.13303500  1
  H  1095  1  0.85370000  0.11136500  0.11752600  1
  H  1096  1  0.85320600  0.05265400  0.07785200  1
  H  1103  1  0.84348500  0.15954500  0.11692500  1
  H  1105  1  0.83514700  0.18924500  0.13287800  1
  H  1108  1  0.89770500  0.12504500  0.96749700  1
  H  1109  1  0.83071900  0.23628700  0.10849100  1
  H  1110  1  0.84552200  0.04438300  0.12905200  1
  H  1129  1  0.34792200  0.28162800  0.92092900  1
  H  1130  1  0.35619700  0.31119800  0.93686100  1
  H  1131  1  0.36894400  0.39539400  0.97632200  1
  H  1132  1  0.37272200  0.33374300  0.97499800  1
  H  1133  1  0.38355500  0.33379700  0.00802100  1
  H  1134  1  0.37956400  0.39536400  0.00925400  1
  H  1135  1  0.35503700  0.41859700  0.93962000  1
  H  1136  1  0.35215800  0.42183400  0.86893300  1
  H  1137  1  0.35406000  0.39073400  0.88448800  1
  H  1138  1  0.35291500  0.44949000  0.92408400  1
  H  1145  1  0.34369800  0.34257800  0.88514300  1
  H  1147  1  0.33534800  0.31286900  0.86921900  1
  H  1150  1  0.39706600  0.37715700  0.03493900  1
  H  1151  1  0.33086500  0.26585400  0.89365500  1
  H  1152  1  0.34565700  0.45753500  0.87272600  1
  H  1171  1  0.58111600  0.65427600  0.78163400  1
  H  1172  1  0.56518600  0.64598400  0.81120100  1
  H  1173  1  0.52573100  0.63317300  0.89538000  1
  H  1174  1  0.52717700  0.62907000  0.83375100  1
  H  1175  1  0.49422900  0.61799500  0.83381700  1
  H  1176  1  0.49287800  0.62230900  0.89535800  1
  H  1177  1  0.56249000  0.64657400  0.91865200  1
  H  1178  1  0.63313700  0.65043800  0.92178000  1
  H  1179  1  0.61755100  0.64855300  0.89069400  1
  H  1180  1  0.57805900  0.64866700  0.94953300  1
  H  1187  1  0.61689300  0.65851200  0.84258600  1
  H  1189  1  0.63281500  0.66688000  0.81288000  1
  H  1192  1  0.46723800  0.60482000  0.87732400  1
  H  1193  1  0.60838400  0.67136700  0.76586900  1
  H  1194  1  0.62923200  0.65677500  0.95764000  1
  H  1213  1  0.42095600  0.15422800  0.72044300  1
  H  1214  1  0.43689700  0.14594600  0.69088200  1
  H  1215  1  0.47648500  0.13336600  0.60675500  1
  H  1216  1  0.47489300  0.12900300  0.66836200  1
  H  1217  1  0.50784700  0.11796100  0.66833100  1
  H  1218  1  0.50935200  0.12253500  0.60681200  1
  H  1219  1  0.43971300  0.14681400  0.58346300  1
  H  1220  1  0.36904300  0.15007900  0.58020900  1
  H  1221  1  0.38458800  0.14827900  0.61132000  1
  H  1222  1  0.42419000  0.14882900  0.55255900  1
  H  1229  1  0.38521900  0.15853000  0.65946900  1
  H  1231  1  0.36928400  0.16688800  0.68917000  1
  H  1234  1  0.53499400  0.10508700  0.62480200  1
  H  1235  1  0.39369200  0.17131800  0.73620600  1
  H  1236  1  0.37286400  0.15631700  0.54436700  1
  H  1255  1  0.08119200  0.84780400  0.22050900  1
  H  1256  1  0.06523200  0.85606300  0.19095000  1
  H  1257  1  0.02571100  0.86892000  0.10681400  1
  H  1258  1  0.02718700  0.87292600  0.16844900  1
  H  1259  1  0.99427200  0.88411000  0.16840700  1
  H  1260  1  0.99289300  0.87989900  0.10686100  1
  H  1261  1  0.06234600  0.85517800  0.08354900  1
  H  1262  1  0.13301300  0.85194000  0.08020500  1
  H  1263  1  0.11750400  0.85369900  0.11134000  1
  H  1264  1  0.07783000  0.85320600  0.05262800  1
  H  1271  1  0.11690300  0.84349200  0.15952000  1
  H  1273  1  0.13285600  0.83515600  0.18922200  1
  H  1276  1  0.96747100  0.89769900  0.12502100  1
  H  1277  1  0.10846800  0.83072600  0.23626200  1
  H  1278  1  0.12902900  0.84551500  0.04435800  1
  H  1297  1  0.92093500  0.34792500  0.28165000  1
  H  1298  1  0.93687300  0.35620300  0.31121700  1
  H  1299  1  0.97634100  0.36895700  0.39541000  1
  H  1300  1  0.97501200  0.37273100  0.33375900  1
  H  1301  1  0.00803500  0.38356600  0.33381000  1
  H  1302  1  0.00927200  0.37957800  0.39537900  1
  H  1303  1  0.93964100  0.35504900  0.41861700  1
  H  1304  1  0.86895500  0.35215500  0.42185800  1
  H  1305  1  0.88450700  0.35406100  0.39075800  1
  H  1306  1  0.92410700  0.35292200  0.44951100  1
  H  1313  1  0.88515600  0.34371400  0.34260300  1
  H  1315  1  0.86922600  0.33536100  0.31289900  1
  H  1318  1  0.03495500  0.39707900  0.37716700  1
  H  1319  1  0.89365800  0.33086100  0.26588300  1
  H  1320  1  0.87275100  0.34565300  0.45755900  1
  H  1339  1  0.78296900  0.70088000  0.67739400  1
  H  1340  1  0.76354300  0.69239700  0.70490100  1
  H  1341  1  0.74303300  0.74533200  0.66252700  1
  H  1342  1  0.70698500  0.67570500  0.77812400  1
  H  1343  1  0.75150100  0.66081200  0.73793100  1
  H  1344  1  0.75992500  0.63333200  0.75761500  1
  H  1345  1  0.71546400  0.64819400  0.79754500  1
  H  1346  1  0.67540800  0.70874100  0.76608700  1
  H  1347  1  0.66280900  0.76837400  0.73007400  1
  H  1348  1  0.69031400  0.74894700  0.72158800  1
  H  1349  1  0.64793600  0.72843100  0.77451900  1
  H  1356  1  0.72334400  0.73690400  0.69000100  1
  H  1378  1  0.53706800  0.08984080  0.17735200  1
  H  1379  1  0.55649600  0.09834980  0.20484900  1
  H  1380  1  0.57703500  0.04541180  0.16249100  1
  H  1381  1  0.61309100  0.11512500  0.27802800  1
  H  1382  1  0.56853500  0.12997000  0.23786300  1
  H  1383  1  0.56011100  0.15745500  0.25754000  1
  H  1384  1  0.60461200  0.14264200  0.29744100  1
  H  1385  1  0.64465600  0.08209080  0.26602100  1
  H  1386  1  0.65727800  0.02244280  0.23004100  1
  H  1387  1  0.62976900  0.04185780  0.22153900  1
  H  1388  1  0.67213200  0.06241380  0.27446600  1
  H  1395  1  0.59672400  0.05386780  0.18995700  1
  H  1417  1  0.03705890  0.20085000  0.67190600  1
  H  1418  1  0.05646890  0.19235700  0.64438900  1
  H  1419  1  0.07702790  0.24527700  0.68676000  1
  H  1420  1  0.11295800  0.17567300  0.57111300  1
  H  1421  1  0.06847490  0.16077700  0.61134000  1
  H  1422  1  0.06002090  0.13331100  0.59165000  1
  H  1423  1  0.10444800  0.14817600  0.55168300  1
  H  1424  1  0.14458000  0.20867700  0.58315800  1
  H  1425  1  0.15724900  0.26826300  0.61922400  1
  H  1426  1  0.12973600  0.24884800  0.62770900  1
  H  1427  1  0.17206100  0.22835800  0.57472700  1
  H  1434  1  0.09669990  0.23683900  0.65927600  1
  H  1456  1  0.28285700  0.58999300  0.17187600  1
  H  1457  1  0.26344100  0.59847800  0.14436200  1
  H  1458  1  0.24294900  0.54549900  0.18669100  1
  H  1459  1  0.20694900  0.61516300  0.07109790  1
  H  1460  1  0.25143400  0.63004600  0.11132900  1
  H  1461  1  0.25988000  0.65752300  0.09164990  1
  H  1462  1  0.21545000  0.64267200  0.05168390  1
  H  1463  1  0.17536700  0.58212400  0.08310590  1
  H  1464  1  0.16275100  0.52246900  0.11907800  1
  H  1465  1  0.19024900  0.54189600  0.12759300  1
  H  1466  1  0.14790300  0.56243500  0.07464490  1
  H  1473  1  0.22326900  0.55392900  0.15920900  1
  H  1495  1  0.03706590  0.08994580  0.17185700  1
  H  1496  1  0.05648890  0.09842280  0.14434500  1
  H  1497  1  0.07700090  0.04549080  0.18672300  1
  H  1498  1  0.11303100  0.11510100  0.07110990  1
  H  1499  1  0.06852490  0.13000200  0.11130900  1
  H  1500  1  0.06009390  0.15747400  0.09161690  1
  H  1501  1  0.10454600  0.14260500  0.05168090  1
  H  1502  1  0.14461400  0.08207280  0.08314990  1
  H  1503  1  0.15722600  0.02244780  0.11917100  1
  H  1504  1  0.12972000  0.04187280  0.12765700  1
  H  1505  1  0.17208800  0.06238580  0.07471790  1
  H  1512  1  0.09668490  0.05391380  0.15924300  1
  H  1534  1  0.28292700  0.70096700  0.67190300  1
  H  1535  1  0.26350600  0.69245800  0.64440100  1
  H  1536  1  0.24297200  0.74541200  0.68674100  1
  H  1537  1  0.20693300  0.67569300  0.57120100  1
  H  1538  1  0.25148000  0.66084900  0.61137600  1
  H  1539  1  0.25991100  0.63336600  0.59169900  1
  H  1540  1  0.21541900  0.64818000  0.55178800  1
  H  1541  1  0.17537100  0.70872900  0.58319800  1
  H  1542  1  0.16273500  0.76837600  0.61917500  1
  H  1543  1  0.19024600  0.74896300  0.62768300  1
  H  1544  1  0.14789400  0.72840300  0.57474700  1
  H  1551  1  0.22328800  0.73696000  0.65927100  1
  H  1573  1  0.78296900  0.58996000  0.17733100  1
  H  1574  1  0.76355300  0.59846000  0.20484000  1
  H  1575  1  0.74300100  0.54553100  0.16247800  1
  H  1576  1  0.70705700  0.61516100  0.27810600  1
  H  1577  1  0.75154400  0.63004500  0.23787800  1
  H  1578  1  0.76000100  0.65751000  0.25756700  1
  H  1579  1  0.71557000  0.64265800  0.29753200  1
  H  1580  1  0.67544000  0.58214300  0.26607200  1
  H  1581  1  0.66277100  0.52255800  0.23000200  1
  H  1582  1  0.69028600  0.54197000  0.22152000  1
  H  1583  1  0.64795600  0.56246500  0.27449800  1
  H  1590  1  0.72332200  0.55397600  0.18995500  1
  H  1612  1  0.53716400  0.20082200  0.67736700  1
  H  1613  1  0.55658000  0.19233600  0.70487900  1
  H  1614  1  0.57706700  0.24532200  0.66255600  1
  H  1615  1  0.61307200  0.17565400  0.77814300  1
  H  1616  1  0.56858700  0.16077200  0.73791300  1
  H  1617  1  0.56014700  0.13329000  0.75758500  1
  H  1618  1  0.60457700  0.14813800  0.79755300  1
  H  1619  1  0.64465400  0.20869900  0.76613700  1
  H  1620  1  0.65726200  0.26835500  0.73016500  1
  H  1621  1  0.62976300  0.24892900  0.72165400  1
  H  1622  1  0.67212000  0.22838700  0.77459200  1
  H  1629  1  0.59674700  0.23689300  0.69003600  1
  H  1651  1  0.62944100  0.81534900  0.77137900  1
  H  1652  1  0.59986800  0.83127300  0.77966500  1
  H  1653  1  0.51567700  0.87070600  0.79246400  1
  H  1654  1  0.57730600  0.86928000  0.79656700  1
  H  1655  1  0.57722900  0.90222700  0.80764400  1
  H  1656  1  0.51568700  0.90355900  0.80332900  1
  H  1657  1  0.49241800  0.83394500  0.77904100  1
  H  1658  1  0.48930300  0.76329700  0.77520500  1
  H  1659  1  0.52038600  0.77888900  0.77709300  1
  H  1660  1  0.46153900  0.81837100  0.77694500  1
  H  1667  1  0.56849600  0.77956000  0.76712700  1
  H  1669  1  0.59820800  0.76364500  0.75876500  1
  H  1672  1  0.53371400  0.92920300  0.82082200  1
  H  1673  1  0.64521700  0.78808500  0.75429800  1
  H  1674  1  0.45344300  0.76719400  0.76885500  1
  H  1693  1  0.69059300  0.97549000  0.27140700  1
  H  1694  1  0.72015400  0.95955000  0.27969800  1
  H  1695  1  0.80427900  0.91996800  0.29229300  1
  H  1696  1  0.74267200  0.92155400  0.29664200  1
  H  1697  1  0.74270400  0.88859800  0.30768200  1
  H  1698  1  0.80422300  0.88710100  0.30312000  1
  H  1699  1  0.82757100  0.95674200  0.27885500  1
  H  1700  1  0.83082300  0.02741180  0.27559300  1
  H  1701  1  0.79971200  0.01186480  0.27738600  1
  H  1702  1  0.85847500  0.97226600  0.27684800  1
  H  1709  1  0.75156600  0.01122980  0.26711900  1
  H  1711  1  0.72186400  0.02716180  0.25875400  1
  H  1714  1  0.78623200  0.86145400  0.32056400  1
  H  1715  1  0.67483000  0.00275081  0.25431700  1
  H  1716  1  0.86666700  0.02359380  0.26936200  1
  H  1735  1  0.19053100  0.31526400  0.57788000  1
  H  1736  1  0.22008800  0.33122400  0.56961700  1
  H  1737  1  0.30422400  0.37074000  0.55674600  1
  H  1738  1  0.24258800  0.36926800  0.55275100  1
  H  1739  1  0.24263100  0.40218500  0.54156900  1
  H  1740  1  0.30417800  0.40355900  0.54576900  1
  H  1741  1  0.32749000  0.33410100  0.57047100  1
  H  1742  1  0.33082800  0.26343400  0.57370700  1
  H  1743  1  0.29969500  0.27894600  0.57195900  1
  H  1744  1  0.35841000  0.31861400  0.57243500  1
  H  1751  1  0.25151700  0.27954900  0.58217700  1
  H  1753  1  0.22181800  0.26359800  0.59051600  1
  H  1756  1  0.28601600  0.42898400  0.52797400  1
  H  1757  1  0.17477800  0.28798700  0.59495800  1
  H  1758  1  0.36667700  0.26741400  0.58012400  1
  H  1777  1  0.12942200  0.47549400  0.07775390  1
  H  1778  1  0.09985290  0.45956200  0.06947390  1
  H  1779  1  0.01565690  0.42010400  0.05671390  1
  H  1780  1  0.07730890  0.42142600  0.05294390  1
  H  1781  1  0.07725490  0.38840200  0.04211390  1
  H  1782  1  0.01568590  0.38717200  0.04609590  1
  H  1783  1  0.99245200  0.45681100  0.07060690  1
  H  1784  1  0.98922100  0.52749800  0.07349390  1
  H  1785  1  0.02031990  0.51194000  0.07159790  1
  H  1786  1  0.96156000  0.47235000  0.07272390  1
  H  1793  1  0.06847190  0.51128300  0.08196390  1
  H  1795  1  0.09817890  0.52720600  0.09031990  1
  H  1798  1  0.03389690  0.36148500  0.02859990  1
  H  1799  1  0.14519300  0.50276900  0.09481290  1
  H  1800  1  0.95351800  0.52370800  0.07998690  1
  H  1819  1  0.75677400  0.61484400  0.84452900  1
  H  1820  1  0.76506500  0.58527600  0.86045800  1
  H  1821  1  0.77787600  0.50109500  0.89990900  1
  H  1822  1  0.78198400  0.56272200  0.89846500  1
  H  1823  1  0.79306700  0.56265400  0.93141000  1
  H  1824  1  0.78874500  0.50111300  0.93276100  1
  H  1825  1  0.76445800  0.47782400  0.86315200  1
  H  1826  1  0.76060200  0.47469600  0.79250500  1
  H  1827  1  0.76249000  0.50578200  0.80809100  1
  H  1828  1  0.76236400  0.44694300  0.84758400  1
  H  1835  1  0.75253400  0.55389200  0.80875000  1
  H  1837  1  0.74416800  0.58359700  0.79282900  1
  H  1840  1  0.80624300  0.51914600  0.95839600  1
  H  1841  1  0.73968400  0.63060800  0.81726100  1
  H  1842  1  0.75425900  0.43883700  0.79641100  1
  H  1861  1  0.25681900  0.67598200  0.00472694  1
  H  1862  1  0.26510500  0.70554200  0.98878400  1
  H  1863  1  0.27769100  0.78966900  0.94919700  1
  H  1864  1  0.28205500  0.72806300  0.95078900  1
  H  1865  1  0.29310000  0.72809400  0.91783700  1
  H  1866  1  0.28852600  0.78961200  0.91633400  1
  H  1867  1  0.26424300  0.81296100  0.98597000  1
  H  1868  1  0.26098300  0.81621500  0.05663990  1
  H  1869  1  0.26278100  0.78510400  0.04109390  1
  H  1870  1  0.26223000  0.84386300  0.00149294  1
  H  1877  1  0.25252300  0.73695700  0.04046190  1
  H  1879  1  0.24416100  0.70725500  0.05639690  1
  H  1882  1  0.30597900  0.77162400  0.89069300  1
  H  1883  1  0.23972800  0.66021900  0.03198990  1
  H  1884  1  0.25474800  0.85205800  0.05281890  1
  H  1903  1  0.56326900  0.17591900  0.34444600  1
  H  1904  1  0.55500500  0.20547600  0.36040800  1
  H  1905  1  0.54213800  0.28961100  0.39993200  1
  H  1906  1  0.53813000  0.22797500  0.39845400  1
  H  1907  1  0.52694100  0.22801900  0.43136900  1
  H  1908  1  0.53115400  0.28956300  0.43274900  1
  H  1909  1  0.55587900  0.31287700  0.36329900  1
  H  1910  1  0.55911200  0.31622300  0.29263100  1
  H  1911  1  0.55735600  0.28508900  0.30814000  1
  H  1912  1  0.55785000  0.34379800  0.34781600  1
  H  1919  1  0.56756600  0.23690900  0.30873800  1
  H  1921  1  0.57590400  0.20721200  0.29278200  1
  H  1924  1  0.51334700  0.27140300  0.45816600  1
  H  1925  1  0.58035200  0.16017200  0.31716700  1
  H  1926  1  0.56553500  0.35207100  0.29661700  1
  H  1945  1  0.06314690  0.11482600  0.50470500  1
  H  1946  1  0.05487090  0.08525180  0.48877900  1
  H  1947  1  0.04206690  0.00103281  0.44936600  1
  H  1948  1  0.03830490  0.06268680  0.45066300  1
  H  1949  1  0.02746790  0.06262080  0.41764200  1
  H  1950  1  0.03144290  0.00105081  0.41643500  1
  H  1951  1  0.05576590  0.97781400  0.48610800  1
  H  1952  1  0.05931790  0.97470100  0.55677100  1
  H  1953  1  0.05730990  0.00577581  0.54117900  1
  H  1954  1  0.05798790  0.94694100  0.50168500  1
  H  1961  1  0.06734990  0.05388680  0.54051100  1
  H  1963  1  0.07570190  0.08359780  0.55642800  1
  H  1966  1  0.01395590  0.01925080  0.39073700  1
  H  1967  1  0.08020190  0.13060500  0.53198400  1
  H  1968  1  0.06597690  0.93898500  0.55286200  1
  H  1987  1  0.82995200  0.74217800  0.64403000  1
  H  1988  1  0.84587700  0.75045600  0.61445500  1
  H  1989  1  0.88530500  0.76323900  0.53025600  1
  H  1990  1  0.88388800  0.76735500  0.59188500  1
  H  1991  1  0.91683600  0.77843200  0.59180000  1
  H  1992  1  0.91815800  0.77410600  0.53025800  1
  H  1993  1  0.84854400  0.74982000  0.50700300  1
  H  1994  1  0.77789500  0.74598200  0.50389500  1
  H  1995  1  0.79349100  0.74787000  0.53497600  1
  H  1996  1  0.83296700  0.74772300  0.47612700  1
  H  2003  1  0.79416000  0.73792500  0.58308600  1
  H  2005  1  0.77824400  0.72957200  0.61279800  1
  H  2008  1  0.94380200  0.79160500  0.54827800  1
  H  2009  1  0.80268300  0.72510400  0.65980900  1
  H  2010  1  0.78179100  0.73962800  0.46803400  1
  H  2029  1  0.99010200  0.24220300  0.70522000  1
  H  2030  1  0.97416100  0.25049600  0.73478000  1
  H  2031  1  0.93460200  0.26316800  0.81891600  1
  H  2032  1  0.93610600  0.26726700  0.75729000  1
  H  2033  1  0.90311800  0.27819800  0.75731000  1
  H  2034  1  0.90170000  0.27388600  0.81885100  1
  H  2035  1  0.97135900  0.24966900  0.84219800  1
  H  2036  1  0.04202890  0.24641600  0.84544800  1
  H  2037  1  0.02648290  0.24821600  0.81433800  1
  H  2038  1  0.98688400  0.24765400  0.87310000  1
  H  2045  1  0.02584890  0.23794900  0.76619200  1
  H  2047  1  0.04178190  0.22958000  0.73649400  1
  H  2050  1  0.87602800  0.29132100  0.80076000  1
  H  2051  1  0.01736790  0.22511500  0.68946300  1
  H  2052  1  0.03821090  0.24017200  0.88128900  1
  H  2071  1  0.32985800  0.54864600  0.20515600  1
  H  2072  1  0.34582000  0.54038900  0.23471400  1
  H  2073  1  0.38534200  0.52753100  0.31884900  1
  H  2074  1  0.38386500  0.52352300  0.25721500  1
  H  2075  1  0.41678100  0.51233700  0.25725700  1
  H  2076  1  0.41816000  0.51655000  0.31880300  1
  H  2077  1  0.34870700  0.54127000  0.34211500  1
  H  2078  1  0.27804000  0.54450900  0.34545900  1
  H  2079  1  0.29354900  0.54275100  0.31432400  1
  H  2080  1  0.33322300  0.54324200  0.37303600  1
  H  2087  1  0.29414900  0.55295800  0.26614500  1
  H  2089  1  0.27819500  0.56129200  0.23644500  1
  H  2092  1  0.44358100  0.49874800  0.30064300  1
  H  2093  1  0.30258100  0.56572200  0.18940300  1
  H  2094  1  0.28202500  0.55093400  0.38130600  1
  H  2113  1  0.49009200  0.04852780  0.14401000  1
  H  2114  1  0.47416100  0.04025280  0.11443900  1
  H  2115  1  0.43472200  0.02747080  0.03023490  1
  H  2116  1  0.43603500  0.02370680  0.09188690  1
  H  2117  1  0.40301400  0.01287080  0.09182890  1
  H  2118  1  0.40179100  0.01684680  0.03025990  1
  H  2119  1  0.47144200  0.04127580  0.00701994  1
  H  2120  1  0.54211700  0.04451480  0.00384494  1
  H  2121  1  0.52654400  0.04255380  0.03493190  1
  H  2122  1  0.48699800  0.04345280  0.97613800  1
  H  2129  1  0.52588500  0.05274280  0.08306490  1
  H  2131  1  0.54180700  0.06109280  0.11277500  1
  H  2134  1  0.37609900  0.99935600  0.04846790  1
  H  2135  1  0.51736900  0.06558580  0.15978600  1
  H  2136  1  0.53826500  0.05109680  0.96813600  1
  H  2155  1  0.19057900  0.97546700  0.07786390  1
  H  2156  1  0.22015000  0.95954000  0.06957590  1
  H  2157  1  0.30433200  0.92009600  0.05676090  1
  H  2158  1  0.24270400  0.92153500  0.05266190  1
  H  2159  1  0.24277200  0.88858800  0.04158490  1
  H  2160  1  0.30431500  0.88724300  0.04589490  1
  H  2161  1  0.32760000  0.95685800  0.07017090  1
  H  2162  1  0.33072100  0.02750680  0.07401390  1
  H  2163  1  0.29963700  0.01191580  0.07213190  1
  H  2164  1  0.35848000  0.97243000  0.07226090  1
  H  2171  1  0.25152700  0.01125280  0.08210090  1
  H  2173  1  0.22181800  0.02717080  0.09046290  1
  H  2176  1  0.28628100  0.86160200  0.02840590  1
  H  2177  1  0.17480900  0.00273581  0.09494590  1
  H  2178  1  0.36658200  0.02360680  0.08035390  1
  H  2197  1  0.12942200  0.81533600  0.57783100  1
  H  2198  1  0.09986190  0.83127400  0.56953500  1
  H  2199  1  0.01571390  0.87080400  0.55680800  1
  H  2200  1  0.07735690  0.86938400  0.55293600  1
  H  2201  1  0.07733890  0.90240800  0.54212700  1
  H  2202  1  0.01577890  0.90374300  0.54621300  1
  H  2203  1  0.99244300  0.83404800  0.57032500  1
  H  2204  1  0.98920900  0.76337500  0.57354700  1
  H  2205  1  0.02031590  0.77893000  0.57175500  1
  H  2206  1  0.96154500  0.81851600  0.57233200  1
  H  2213  1  0.06845890  0.77957100  0.58204500  1
  H  2215  1  0.09815890  0.76364200  0.59041500  1
  H  2218  1  0.03397490  0.92944000  0.52876600  1
  H  2219  1  0.14518500  0.78806500  0.59490100  1
  H  2220  1  0.95336800  0.76718300  0.57979500  1
  H  2239  1  0.62949200  0.47555900  0.27134700  1
  H  2240  1  0.59993700  0.45959800  0.27961700  1
  H  2241  1  0.51580300  0.42007600  0.29249600  1
  H  2242  1  0.57743900  0.42155100  0.29649200  1
  H  2243  1  0.57739700  0.38863400  0.30767600  1
  H  2244  1  0.51585100  0.38725700  0.30347400  1
  H  2245  1  0.49253500  0.45671400  0.27877200  1
  H  2246  1  0.48919300  0.52738000  0.27553200  1
  H  2247  1  0.52032700  0.51187000  0.27728000  1
  H  2248  1  0.46161400  0.47219800  0.27680700  1
  H  2255  1  0.56850300  0.51126900  0.26706200  1
  H  2257  1  0.59819900  0.52722300  0.25871600  1
  H  2260  1  0.53401300  0.36183500  0.32127200  1
  H  2261  1  0.64523800  0.50283600  0.25426100  1
  H  2262  1  0.45334400  0.52339800  0.26911600  1
  H  2281  1  0.69060300  0.31532900  0.77147500  1
  H  2282  1  0.72017300  0.33125900  0.77975700  1
  H  2283  1  0.80437800  0.37069400  0.79254700  1
  H  2284  1  0.74272600  0.36938500  0.79630800  1
  H  2285  1  0.74278400  0.40240700  0.80714200  1
  H  2286  1  0.80435500  0.40362600  0.80316900  1
  H  2287  1  0.82759300  0.33397100  0.77875800  1
  H  2288  1  0.83076600  0.26329500  0.77552400  1
  H  2289  1  0.79967800  0.27887000  0.77747800  1
  H  2290  1  0.85847500  0.31841400  0.77658900  1
  H  2297  1  0.75154800  0.27953100  0.76727900  1
  H  2299  1  0.72183900  0.26361100  0.75892100  1
  H  2302  1  0.78614800  0.42931900  0.82065800  1
  H  2303  1  0.67483000  0.28805100  0.75441500  1
  H  2304  1  0.86647600  0.26714500  0.76895100  1
  H  2323  1  0.06323990  0.17596700  0.00469994  1
  H  2324  1  0.05495890  0.20554000  0.98877400  1
  H  2325  1  0.04216790  0.28973200  0.94933800  1
  H  2326  1  0.03805090  0.22810300  0.95076600  1
  H  2327  1  0.02696890  0.22818200  0.91782100  1
  H  2328  1  0.03129690  0.28972300  0.91648600  1
  H  2329  1  0.05559090  0.31299100  0.98609700  1
  H  2330  1  0.05943690  0.31610800  0.05674490  1
  H  2331  1  0.05754690  0.28502500  0.04115290  1
  H  2332  1  0.05768990  0.34387000  0.00167094  1
  H  2339  1  0.06749790  0.23691400  0.04048690  1
  H  2341  1  0.07585490  0.20720400  0.05640290  1
  H  2344  1  0.01379590  0.27169800  0.89084800  1
  H  2345  1  0.08031890  0.16019100  0.03196690  1
  H  2346  1  0.06578790  0.35196700  0.05284490  1
  H  2365  1  0.56322200  0.11482600  0.84451000  1
  H  2366  1  0.55492700  0.08526780  0.86045100  1
  H  2367  1  0.54225400  0.00113381  0.90001100  1
  H  2368  1  0.53815000  0.06275780  0.89850600  1
  H  2369  1  0.52721600  0.06273580  0.93149300  1
  H  2370  1  0.53153200  0.00119681  0.93291200  1
  H  2371  1  0.55575200  0.97785000  0.86325500  1
  H  2372  1  0.55899500  0.97459900  0.79258400  1
  H  2373  1  0.55720000  0.00570981  0.80813000  1
  H  2374  1  0.55776400  0.94694800  0.84773000  1
  H  2381  1  0.56747400  0.05385380  0.80876400  1
  H  2383  1  0.57584300  0.08355280  0.79283100  1
  H  2386  1  0.51409100  0.01928580  0.95858000  1
  H  2387  1  0.58030900  0.13058500  0.81724300  1
  H  2388  1  0.56523700  0.93875700  0.79640200  1
  H  2407  1  0.25676800  0.61489800  0.50479200  1
  H  2408  1  0.26502700  0.58534000  0.48883100  1
  H  2409  1  0.27788700  0.50120300  0.44930900  1
  H  2410  1  0.28189600  0.56283900  0.45078600  1
  H  2411  1  0.29308300  0.56279500  0.41787100  1
  H  2412  1  0.28886900  0.50125000  0.41649200  1
  H  2413  1  0.26414500  0.47793900  0.48594400  1
  H  2414  1  0.26091600  0.47459500  0.55661100  1
  H  2415  1  0.26267000  0.50572900  0.54110200  1
  H  2416  1  0.26217600  0.44701800  0.50142800  1
  H  2423  1  0.25245500  0.55390900  0.54050100  1
  H  2425  1  0.24411700  0.58360900  0.55645400  1
  H  2428  1  0.30667500  0.51940900  0.39107300  1
  H  2429  1  0.23968900  0.63065100  0.53206700  1
  H  2430  1  0.25449200  0.43874700  0.55262800  1
  H  2449  1  0.75689200  0.67599200  0.34450500  1
  H  2450  1  0.76516700  0.70556200  0.36043700  1
  H  2451  1  0.77791400  0.78975800  0.39989800  1
  H  2452  1  0.78169200  0.72810700  0.39857400  1
  H  2453  1  0.79252500  0.72816100  0.43159700  1
  H  2454  1  0.78853400  0.78972800  0.43283000  1
  H  2455  1  0.76400700  0.81296100  0.36319600  1
  H  2456  1  0.76112800  0.81619800  0.29250900  1
  H  2457  1  0.76303000  0.78509800  0.30806400  1
  H  2458  1  0.76188500  0.84385400  0.34766000  1
  H  2465  1  0.75266800  0.73694200  0.30871900  1
  H  2467  1  0.74431800  0.70723300  0.29279500  1
  H  2470  1  0.80603600  0.77152100  0.45851500  1
  H  2471  1  0.73983500  0.66021800  0.31723100  1
  H  2472  1  0.75462700  0.85189900  0.29630200  1
  H  2491  1  0.99008600  0.04863980  0.20521000  1
  H  2492  1  0.97415600  0.04034780  0.23477700  1
  H  2493  1  0.93470100  0.02753680  0.31895600  1
  H  2494  1  0.93614700  0.02343380  0.25732700  1
  H  2495  1  0.90319900  0.01235880  0.25739300  1
  H  2496  1  0.90184800  0.01667280  0.31893400  1
  H  2497  1  0.97146000  0.04093780  0.34222800  1
  H  2498  1  0.04210690  0.04480180  0.34535600  1
  H  2499  1  0.02652090  0.04291680  0.31427000  1
  H  2500  1  0.98702900  0.04303080  0.37310900  1
  H  2507  1  0.02586290  0.05287580  0.26616200  1
  H  2509  1  0.04178490  0.06124380  0.23645600  1
  H  2512  1  0.87620800  0.99918400  0.30090000  1
  H  2513  1  0.01735390  0.06573080  0.18944500  1
  H  2514  1  0.03820190  0.05113880  0.38121600  1
  H  2533  1  0.82992600  0.54859200  0.14401900  1
  H  2534  1  0.84586700  0.54031000  0.11445800  1
  H  2535  1  0.88545500  0.52773000  0.03033090  1
  H  2536  1  0.88386300  0.52336700  0.09193790  1
  H  2537  1  0.91681700  0.51232500  0.09190690  1
  H  2538  1  0.91832200  0.51689900  0.03038790  1
  H  2539  1  0.84868300  0.54117800  0.00703894  1
  H  2540  1  0.77801300  0.54444300  0.00378494  1
  H  2541  1  0.79355800  0.54264300  0.03489590  1
  H  2542  1  0.83316000  0.54319300  0.97613500  1
  H  2549  1  0.79418900  0.55289400  0.08304490  1
  H  2551  1  0.77825400  0.56125200  0.11274600  1
  H  2554  1  0.94396400  0.49945100  0.04837790  1
  H  2555  1  0.80266200  0.56568200  0.15978200  1
  H  2556  1  0.78183400  0.55068100  0.96794300  1
  H  2575  1  0.49016200  0.24216800  0.64408500  1
  H  2576  1  0.47420200  0.25042700  0.61452600  1
  H  2577  1  0.43468100  0.26328400  0.53039000  1
  H  2578  1  0.43615700  0.26729000  0.59202500  1
  H  2579  1  0.40324200  0.27847400  0.59198300  1
  H  2580  1  0.40186300  0.27426300  0.53043700  1
  H  2581  1  0.47131600  0.24954200  0.50712500  1
  H  2582  1  0.54198300  0.24630400  0.50378100  1
  H  2583  1  0.52647400  0.24806300  0.53491600  1
  H  2584  1  0.48680000  0.24757000  0.47620400  1
  H  2591  1  0.52587300  0.23785600  0.58309600  1
  H  2593  1  0.54182600  0.22952000  0.61279800  1
  H  2596  1  0.37644100  0.29206300  0.54859700  1
  H  2597  1  0.51743800  0.22509000  0.65983800  1
  H  2598  1  0.53799900  0.23987900  0.46793400  1
  H  2617  1  0.32990500  0.74228900  0.70522600  1
  H  2618  1  0.34584300  0.75056700  0.73479300  1
  H  2619  1  0.38531100  0.76332100  0.81898600  1
  H  2620  1  0.38398200  0.76709500  0.75733500  1
  H  2621  1  0.41700500  0.77793000  0.75738600  1
  H  2622  1  0.41824200  0.77394200  0.81895500  1
  H  2623  1  0.34861100  0.74941300  0.84219300  1
  H  2624  1  0.27792500  0.74651900  0.84543400  1
  H  2625  1  0.29347700  0.74842500  0.81433400  1
  H  2626  1  0.33307700  0.74728600  0.87308700  1
  H  2633  1  0.29412600  0.73807800  0.76617900  1
  H  2635  1  0.27819600  0.72972500  0.73647500  1
  H  2638  1  0.44392500  0.79144300  0.80074300  1
  H  2639  1  0.30262800  0.72522500  0.68945900  1
  H  2640  1  0.28172100  0.74001700  0.88113500  1
  C  1  1  0.31945400  0.27695300  0.33240800  1
  C  2  1  0.33243000  0.31946800  0.27693600  1
  C  3  1  0.27695200  0.33243900  0.31944500  1
  C  4  1  0.32696000  0.33481900  0.26414100  1
  C  5  1  0.33851000  0.33981800  0.24786800  1
  C  6  1  0.35611800  0.32988100  0.24400200  1
  C  7  1  0.36158100  0.31437400  0.25649400  1
  C  8  1  0.34995700  0.30930100  0.27266600  1
  C  9  1  0.33480500  0.26416000  0.32693600  1
  C  10  1  0.33979900  0.24788300  0.33848300  1
  C  11  1  0.32985600  0.24401000  0.35608700  1
  C  12  1  0.31435600  0.25650700  0.36155400  1
  C  13  1  0.30928500  0.27268100  0.34993400  1
  C  14  1  0.26415700  0.32696700  0.33479500  1
  C  15  1  0.24788400  0.33851600  0.33979300  1
  C  16  1  0.24402100  0.35612700  0.32986200  1
  C  17  1  0.25651200  0.36158900  0.31435300  1
  C  18  1  0.27268400  0.34996700  0.30928100  1
  C  30  1  0.29347800  0.32076000  0.31436200  1
  C  32  1  0.31437500  0.29348300  0.32073200  1
  C  34  1  0.32075200  0.31438700  0.29346200  1
  C  40  1  0.18266200  0.72512400  0.83232700  1
  C  41  1  0.16968300  0.68256700  0.77688500  1
  C  42  1  0.22518200  0.66965000  0.81938600  1
  C  43  1  0.17516200  0.66721400  0.76409600  1
  C  44  1  0.16361100  0.66220000  0.74782900  1
  C  45  1  0.14599700  0.67212500  0.74396200  1
  C  46  1  0.14052100  0.68762800  0.75645300  1
  C  47  1  0.15214700  0.69271800  0.77261700  1
  C  48  1  0.16729900  0.73790600  0.82686100  1
  C  49  1  0.16230000  0.75418200  0.83840800  1
  C  50  1  0.17225800  0.75807100  0.85599800  1
  C  51  1  0.18777300  0.74558700  0.86145900  1
  C  52  1  0.19284300  0.72941100  0.84984300  1
  C  53  1  0.23797400  0.67513500  0.83473300  1
  C  54  1  0.25425100  0.66359500  0.83973800  1
  C  55  1  0.25811700  0.64597700  0.82981900  1
  C  56  1  0.24563000  0.64050300  0.81431300  1
  C  57  1  0.22945600  0.65211700  0.80923000  1
  C  69  1  0.20864900  0.68131900  0.81429700  1
  C  71  1  0.18774200  0.70859000  0.82065800  1
  C  73  1  0.18136500  0.68766700  0.79340500  1
  C  79  1  0.68256900  0.77691700  0.16969500  1
  C  80  1  0.66965600  0.81941400  0.22519600  1
  C  81  1  0.72512700  0.83235800  0.18267500  1
  C  82  1  0.67514200  0.83476000  0.23799000  1
  C  83  1  0.66360200  0.83976400  0.25426800  1
  C  84  1  0.64599300  0.82983500  0.25814500  1
  C  85  1  0.64051000  0.81433800  0.24564900  1
  C  86  1  0.65212500  0.80925800  0.22947300  1
  C  87  1  0.66721700  0.76412800  0.17517200  1
  C  88  1  0.66220400  0.74786000  0.16362200  1
  C  89  1  0.67212900  0.74399400  0.14600800  1
  C  90  1  0.68763300  0.75648400  0.14053400  1
  C  91  1  0.69272100  0.77265100  0.15215700  1
  C  92  1  0.73790800  0.82689200  0.16731100  1
  C  93  1  0.75418700  0.83843200  0.16231600  1
  C  94  1  0.75807000  0.85603100  0.17226300  1
  C  95  1  0.74559200  0.86148900  0.18778300  1
  C  96  1  0.72941600  0.84987300  0.19285600  1
  C  108  1  0.70859300  0.82068900  0.18775500  1
  C  110  1  0.68766700  0.79343700  0.18137700  1
  C  112  1  0.68132200  0.81432800  0.20866400  1
  C  118  1  0.81940400  0.22518000  0.66967800  1
  C  119  1  0.83234500  0.18265600  0.72514900  1
  C  120  1  0.77689500  0.16968900  0.68259600  1
  C  121  1  0.82687700  0.16729400  0.73793100  1
  C  122  1  0.83842200  0.16229500  0.75420800  1
  C  123  1  0.85602000  0.17224200  0.75808900  1
  C  124  1  0.86147900  0.18776100  0.74560900  1
  C  125  1  0.84986000  0.19283500  0.72943600  1
  C  126  1  0.83475200  0.23797100  0.67516100  1
  C  127  1  0.83975900  0.25424600  0.66362000  1
  C  128  1  0.82983700  0.25811400  0.64600500  1
  C  129  1  0.81432800  0.24563000  0.64053200  1
  C  130  1  0.80924600  0.22945600  0.65214600  1
  C  131  1  0.76410900  0.17516800  0.66724200  1
  C  132  1  0.74784100  0.16361900  0.66222500  1
  C  133  1  0.74397600  0.14600100  0.67214400  1
  C  134  1  0.75646000  0.14052800  0.68765200  1
  C  135  1  0.77262500  0.15215300  0.69274700  1
  C  147  1  0.79341600  0.18136800  0.68769500  1
  C  149  1  0.81431500  0.20864800  0.68134700  1
  C  151  1  0.82067400  0.18773900  0.70861600  1
  C  157  1  0.68262500  0.72512700  0.66967500  1
  C  158  1  0.66966100  0.68262400  0.72515900  1
  C  159  1  0.72513700  0.66965300  0.68264700  1
  C  160  1  0.67513100  0.66727300  0.73795400  1
  C  161  1  0.66358500  0.66227900  0.75423000  1
  C  162  1  0.64598300  0.67222300  0.75810200  1
  C  163  1  0.64051600  0.68772500  0.74560600  1
  C  164  1  0.65213500  0.69279200  0.72943200  1
  C  165  1  0.66727400  0.73792100  0.67514500  1
  C  166  1  0.66227700  0.75419500  0.66359600  1
  C  167  1  0.67220900  0.75805700  0.64598400  1
  C  168  1  0.68771800  0.74556700  0.64052300  1
  C  169  1  0.69279100  0.72939500  0.65214600  1
  C  170  1  0.73793100  0.67512500  0.66729700  1
  C  171  1  0.75420500  0.66357700  0.66229800  1
  C  172  1  0.75807100  0.64596800  0.67223100  1
  C  173  1  0.74558300  0.64050400  0.68774000  1
  C  174  1  0.72941000  0.65212600  0.69281400  1
  C  186  1  0.70860900  0.68132800  0.68772800  1
  C  188  1  0.68770600  0.70860000  0.68135400  1
  C  190  1  0.68133700  0.68770200  0.70863000  1
  C  196  1  0.81942000  0.27696800  0.16975500  1
  C  197  1  0.83238200  0.31952100  0.22520400  1
  C  198  1  0.77689700  0.33244000  0.18268500  1
  C  199  1  0.82690400  0.33487600  0.23798800  1
  C  200  1  0.83845000  0.33988900  0.25426000  1
  C  201  1  0.85606000  0.32996000  0.25813500  1
  C  202  1  0.86153300  0.31445100  0.24564900  1
  C  203  1  0.84991400  0.30936500  0.22947900  1
  C  204  1  0.83478100  0.26418600  0.17522200  1
  C  205  1  0.83977800  0.24790600  0.16368100  1
  C  206  1  0.82983200  0.24402500  0.14608300  1
  C  207  1  0.81431300  0.25650300  0.14062300  1
  C  208  1  0.80924100  0.27267900  0.15223900  1
  C  209  1  0.76410800  0.32695400  0.16733700  1
  C  210  1  0.74783200  0.33849300  0.16232600  1
  C  211  1  0.74396000  0.35610900  0.17224600  1
  C  212  1  0.75644400  0.36158600  0.18775400  1
  C  213  1  0.77262000  0.34997300  0.19283800  1
  C  225  1  0.79343000  0.32077400  0.18777600  1
  C  227  1  0.81433800  0.29350200  0.18142200  1
  C  229  1  0.82070800  0.31442500  0.20867800  1
  C  235  1  0.31950900  0.22517900  0.83237400  1
  C  236  1  0.33242700  0.18267200  0.77688200  1
  C  237  1  0.27695300  0.16973400  0.81940100  1
  C  238  1  0.32694200  0.16732400  0.76409000  1
  C  239  1  0.33848800  0.16231400  0.74781800  1
  C  240  1  0.35610200  0.17223800  0.74394700  1
  C  241  1  0.36157500  0.18774600  0.75643200  1
  C  242  1  0.34996000  0.19282800  0.77260700  1
  C  243  1  0.33486300  0.23796500  0.82689500  1
  C  244  1  0.33987600  0.25423600  0.83844300  1
  C  245  1  0.32995800  0.25810100  0.85606000  1
  C  246  1  0.31445000  0.24561600  0.86153300  1
  C  247  1  0.30935700  0.22945100  0.84990800  1
  C  248  1  0.26417000  0.17520100  0.83476300  1
  C  249  1  0.24789400  0.16365800  0.83976300  1
  C  250  1  0.24400500  0.14606500  0.82980700  1
  C  251  1  0.25648600  0.14060500  0.81429000  1
  C  252  1  0.27266500  0.15221900  0.80922200  1
  C  264  1  0.29348700  0.18140300  0.81432100  1
  C  266  1  0.31441000  0.20865800  0.82069500  1
  C  268  1  0.32075800  0.18776100  0.79341300  1
  C  274  1  0.18268000  0.77690900  0.33241100  1
  C  275  1  0.16973400  0.81943400  0.27694300  1
  C  276  1  0.22518200  0.83240600  0.31949600  1
  C  277  1  0.17520000  0.83479800  0.26416200  1
  C  278  1  0.16365500  0.83979800  0.24788500  1
  C  279  1  0.14605700  0.82985000  0.24400500  1
  C  280  1  0.14060300  0.81432500  0.25647800  1
  C  281  1  0.15222000  0.80925400  0.27265400  1
  C  282  1  0.16733200  0.76411700  0.32692600  1
  C  283  1  0.16233000  0.74783700  0.33846400  1
  C  284  1  0.17225800  0.74396200  0.35607300  1
  C  285  1  0.18775700  0.75645600  0.36155600  1
  C  286  1  0.19283700  0.77263200  0.34994200  1
  C  287  1  0.23797100  0.82692600  0.33484900  1
  C  288  1  0.25423900  0.83847500  0.33986300  1
  C  289  1  0.25810800  0.85608800  0.32993800  1
  C  290  1  0.24561900  0.86156400  0.31443400  1
  C  291  1  0.22945000  0.84994300  0.30934600  1
  C  303  1  0.20866100  0.82072700  0.31439900  1
  C  305  1  0.18776500  0.79344300  0.32074500  1
  C  307  1  0.18140400  0.81435300  0.29347500  1
  C  313  1  0.13754400  0.47209200  0.36970600  1
  C  314  1  0.17197500  0.41277600  0.35074100  1
  C  315  1  0.10074400  0.41369100  0.35483100  1
  C  316  1  0.17224100  0.39294900  0.34477200  1
  C  317  1  0.18984100  0.38346200  0.33988600  1
  C  318  1  0.20791500  0.39345400  0.34079800  1
  C  319  1  0.20774700  0.41315200  0.34701000  1
  C  320  1  0.19017300  0.42257300  0.35193800  1
  C  321  1  0.15520600  0.48197000  0.37405600  1
  C  322  1  0.15519800  0.50149800  0.38054100  1
  C  323  1  0.13750700  0.51197300  0.38269800  1
  C  324  1  0.11986800  0.50222800  0.37820400  1
  C  325  1  0.11990100  0.48272000  0.37180600  1
  C  326  1  0.08317900  0.42465800  0.35472700  1
  C  327  1  0.06486000  0.41547800  0.35346300  1
  C  328  1  0.06336800  0.39490100  0.35258300  1
  C  329  1  0.08082800  0.38386400  0.35232900  1
  C  330  1  0.09918200  0.39310800  0.35341100  1
  C  341  1  0.11923300  0.42313600  0.35654000  1
  C  343  1  0.13737100  0.45208100  0.36385900  1
  C  345  1  0.15410100  0.42273900  0.35487600  1
  C  348  1  0.04515700  0.38585300  0.35171000  1
  C  350  1  0.22541400  0.38496800  0.33491600  1
  C  351  1  0.13691500  0.53084000  0.39032400  1
  C  355  1  0.36448700  0.52993000  0.86964700  1
  C  356  1  0.33012600  0.58929800  0.85075000  1
  C  357  1  0.40135900  0.58830800  0.85487900  1
  C  358  1  0.32987500  0.60912300  0.84477000  1
  C  359  1  0.31228100  0.61861800  0.83987500  1
  C  360  1  0.29420000  0.60864100  0.84080000  1
  C  361  1  0.29435300  0.58894700  0.84702500  1
  C  362  1  0.31192100  0.57951500  0.85194900  1
  C  363  1  0.34681500  0.52009200  0.87404500  1
  C  364  1  0.34679600  0.50055900  0.88051100  1
  C  365  1  0.36446500  0.49002900  0.88259200  1
  C  366  1  0.38211400  0.49973700  0.87804500  1
  C  367  1  0.38210900  0.51925300  0.87167300  1
  C  368  1  0.41890100  0.57730600  0.85465700  1
  C  369  1  0.43723600  0.58646000  0.85345000  1
  C  370  1  0.43877400  0.60704100  0.85273800  1
  C  371  1  0.42133100  0.61811100  0.85257800  1
  C  372  1  0.40296000  0.60889800  0.85361700  1
  C  383  1  0.38285700  0.57888400  0.85656100  1
  C  385  1  0.36468900  0.54994900  0.86383400  1
  C  387  1  0.34799300  0.57932100  0.85488500  1
  C  390  1  0.45700200  0.61607700  0.85195200  1
  C  392  1  0.27670300  0.61713600  0.83492000  1
  C  393  1  0.36502800  0.47115700  0.89021400  1
  C  397  1  0.86441700  0.97211000  0.13242600  1
  C  398  1  0.83006900  0.91275200  0.15140500  1
  C  399  1  0.90130700  0.91378800  0.14731700  1
  C  400  1  0.82982400  0.89292500  0.15738000  1
  C  401  1  0.81223200  0.88341500  0.16224600  1
  C  402  1  0.79414700  0.89338500  0.16132100  1
  C  403  1  0.79429400  0.91308300  0.15511100  1
  C  404  1  0.81186000  0.92252500  0.15019300  1
  C  405  1  0.84674000  0.98197100  0.12809300  1
  C  406  1  0.84672700  0.00147900  0.12154700  1
  C  407  1  0.86441100  0.01194400  0.11930400  1
  C  408  1  0.88206400  0.00222800  0.12380100  1
  C  409  1  0.88205000  0.98274200  0.13026800  1
  C  410  1  0.91883600  0.92481000  0.14752300  1
  C  411  1  0.93718100  0.91567700  0.14870900  1
  C  412  1  0.93874500  0.89509800  0.14941000  1
  C  413  1  0.92131700  0.88400600  0.14958500  1
  C  414  1  0.90293100  0.89319900  0.14858600  1
  C  425  1  0.88279700  0.92319100  0.14562300  1
  C  427  1  0.86461500  0.95210600  0.13829400  1
  C  429  1  0.84793100  0.92273900  0.14727900  1
  C  432  1  0.95698700  0.88607700  0.15011500  1
  C  434  1  0.77665000  0.88488000  0.16718800  1
  C  435  1  0.86497300  0.03076000  0.11156600  1
  C  439  1  0.63753300  0.02994800  0.63246200  1
  C  440  1  0.67195500  0.08933200  0.65122200  1
  C  441  1  0.60072600  0.08837800  0.64718500  1
  C  442  1  0.67221800  0.10916700  0.65717200  1
  C  443  1  0.68981600  0.11865800  0.66205700  1
  C  444  1  0.70789100  0.10866600  0.66115800  1
  C  445  1  0.70772700  0.08896600  0.65495500  1
  C  446  1  0.69015400  0.07953800  0.65003600  1
  C  447  1  0.65520500  0.02002000  0.62827000  1
  C  448  1  0.65520900  0.00044300  0.62193500  1
  C  449  1  0.63751700  0.98997300  0.61974600  1
  C  450  1  0.61986700  0.99977700  0.62406500  1
  C  451  1  0.61988900  0.01933000  0.63032800  1
  C  452  1  0.58318500  0.07737800  0.64756700  1
  C  453  1  0.56485900  0.08654000  0.64884700  1
  C  454  1  0.56332400  0.10712500  0.64944900  1
  C  455  1  0.58076800  0.11819600  0.64942500  1
  C  456  1  0.59913400  0.10897400  0.64834200  1
  C  467  1  0.61921600  0.07894400  0.64546700  1
  C  469  1  0.63735600  0.04998500  0.63822000  1
  C  471  1  0.65408300  0.07936100  0.64710400  1
  C  474  1  0.54507700  0.11614700  0.65034400  1
  C  476  1  0.72538900  0.11715600  0.66704300  1
  C  477  1  0.63688200  0.97100600  0.61237700  1
  C  481  1  0.36972600  0.13756600  0.47207400  1
  C  482  1  0.35075200  0.17198200  0.41275300  1
  C  483  1  0.35484700  0.10075200  0.41368300  1
  C  484  1  0.34478400  0.17224400  0.39292500  1
  C  485  1  0.33989500  0.18984100  0.38343400  1
  C  486  1  0.34080300  0.20791600  0.39342300  1
  C  487  1  0.34701400  0.20775400  0.41312100  1
  C  488  1  0.35194400  0.19018100  0.42254600  1
  C  489  1  0.37407900  0.15523000  0.48194500  1
  C  490  1  0.38056700  0.15522700  0.50147300  1
  C  491  1  0.38272400  0.13754100  0.51195300  1
  C  492  1  0.37822600  0.11989900  0.50221500  1
  C  493  1  0.37182500  0.11992600  0.48270700  1
  C  494  1  0.35474800  0.08318800  0.42465300  1
  C  495  1  0.35348300  0.06486800  0.41547700  1
  C  496  1  0.35259800  0.06337200  0.39490100  1
  C  497  1  0.35233800  0.08083000  0.38386100  1
  C  498  1  0.35342600  0.09918600  0.39309900  1
  C  509  1  0.35655500  0.11924300  0.42312500  1
  C  511  1  0.36387500  0.13738800  0.45206400  1
  C  513  1  0.35489000  0.15411200  0.42272000  1
  C  516  1  0.35172200  0.04515900  0.38585600  1
  C  518  1  0.33491700  0.22541400  0.38493300  1
  C  519  1  0.39035300  0.13695400  0.53082000  1
  C  523  1  0.86965900  0.36448300  0.52995100  1
  C  524  1  0.85076100  0.33012200  0.58931800  1
  C  525  1  0.85487700  0.40135400  0.58832400  1
  C  526  1  0.84478000  0.32987100  0.60914300  1
  C  527  1  0.83989000  0.31227800  0.61864000  1
  C  528  1  0.84081500  0.29419500  0.60866600  1
  C  529  1  0.84704000  0.29434900  0.58897200  1
  C  530  1  0.85196200  0.31191700  0.57953700  1
  C  531  1  0.87406200  0.34681100  0.52011500  1
  C  532  1  0.88053100  0.34679300  0.50058200  1
  C  533  1  0.88261000  0.36446200  0.49005100  1
  C  534  1  0.87805900  0.38210900  0.49975700  1
  C  535  1  0.87168200  0.38210500  0.51927400  1
  C  536  1  0.85465200  0.41889600  0.57732100  1
  C  537  1  0.85344000  0.43723100  0.58647500  1
  C  538  1  0.85273000  0.43877100  0.60705600  1
  C  539  1  0.85257400  0.42133000  0.61812700  1
  C  540  1  0.85361500  0.40295700  0.60891400  1
  C  551  1  0.85656400  0.38285300  0.57890100  1
  C  553  1  0.86384300  0.36468300  0.54996800  1
  C  555  1  0.85489300  0.34798800  0.57934100  1
  C  558  1  0.85194100  0.45699900  0.61609000  1
  C  560  1  0.83493700  0.27669900  0.61716200  1
  C  561  1  0.89023600  0.36502500  0.47118000  1
  C  565  1  0.13241800  0.86440900  0.97208700  1
  C  566  1  0.15140100  0.83006500  0.91272800  1
  C  567  1  0.14732600  0.90130300  0.91377200  1
  C  568  1  0.15737300  0.82982200  0.89290000  1
  C  569  1  0.16224000  0.81222900  0.88338700  1
  C  570  1  0.16131400  0.79414400  0.89335600  1
  C  571  1  0.15510300  0.79429000  0.91305300  1
  C  572  1  0.15018700  0.81185400  0.92249800  1
  C  573  1  0.12808000  0.84673300  0.98194600  1
  C  574  1  0.12153000  0.84672000  0.00145300  1
  C  575  1  0.11928800  0.86440300  0.01191800  1
  C  576  1  0.12379100  0.88205500  0.00220500  1
  C  577  1  0.13026200  0.88204300  0.98272000  1
  C  578  1  0.14753700  0.91883000  0.92479500  1
  C  579  1  0.14872600  0.93717700  0.91566600  1
  C  580  1  0.14942600  0.93874400  0.89508600  1
  C  581  1  0.14959700  0.92131600  0.88399200  1
  C  582  1  0.14859300  0.90293000  0.89318300  1
  C  593  1  0.14562600  0.88279200  0.92317200  1
  C  595  1  0.13828900  0.86460800  0.95208400  1
  C  597  1  0.14727400  0.84792600  0.92271500  1
  C  600  1  0.15013400  0.95698500  0.88606900  1
  C  602  1  0.16718400  0.77664900  0.88484900  1
  C  603  1  0.11154600  0.86496600  0.03073300  1
  C  607  1  0.63242500  0.63751700  0.02998600  1
  C  608  1  0.65122000  0.67196800  0.08934400  1
  C  609  1  0.64721800  0.60074000  0.08842900  1
  C  610  1  0.65716700  0.67223700  0.10917900  1
  C  611  1  0.66204800  0.68983700  0.11866700  1
  C  612  1  0.66115000  0.70790800  0.10867000  1
  C  613  1  0.65495200  0.70774000  0.08896900  1
  C  614  1  0.65003600  0.69016500  0.07954300  1
  C  615  1  0.62823300  0.65518500  0.02005200  1
  C  616  1  0.62189400  0.65518300  0.00047500  1
  C  617  1  0.61970200  0.63748800  0.99001300  1
  C  618  1  0.62402000  0.61984100  0.99982400  1
  C  619  1  0.63028700  0.61986900  0.01937500  1
  C  620  1  0.64747000  0.58318000  0.07745800  1
  C  621  1  0.64881000  0.56486600  0.08663900  1
  C  622  1  0.64961200  0.56337200  0.10721800  1
  C  623  1  0.64970700  0.58083200  0.11826200  1
  C  624  1  0.64855500  0.59918200  0.10901800  1
  C  635  1  0.64547300  0.61922300  0.07898100  1
  C  637  1  0.63819500  0.63734900  0.05002000  1
  C  639  1  0.64710200  0.65409200  0.07937900  1
  C  642  1  0.65061100  0.54514100  0.11624700  1
  C  644  1  0.66703200  0.72540900  0.11715900  1
  C  645  1  0.61233300  0.63684700  0.97104500  1
  C  649  1  0.47208900  0.36970000  0.13751800  1
  C  650  1  0.41277300  0.35074700  0.17195700  1
  C  651  1  0.41368500  0.35482400  0.10072600  1
  C  652  1  0.39294400  0.34478200  0.17222500  1
  C  653  1  0.38345600  0.33990200  0.18982500  1
  C  654  1  0.39344800  0.34081400  0.20789800  1
  C  655  1  0.41314700  0.34702100  0.20772900  1
  C  656  1  0.42257100  0.35194400  0.19015500  1
  C  657  1  0.48197000  0.37405300  0.15517600  1
  C  658  1  0.50149800  0.38053800  0.15516500  1
  C  659  1  0.51197100  0.38269400  0.13747200  1
  C  660  1  0.50222400  0.37819400  0.11983500  1
  C  661  1  0.48271500  0.37179600  0.11987200  1
  C  662  1  0.42465100  0.35471900  0.08316000  1
  C  663  1  0.41547000  0.35345400  0.06484200  1
  C  664  1  0.39489300  0.35257300  0.06335100  1
  C  665  1  0.38385600  0.35231900  0.08081200  1
  C  666  1  0.39310100  0.35340700  0.09916500  1
  C  677  1  0.42313200  0.35653400  0.11921400  1
  C  679  1  0.45207800  0.36385300  0.13734900  1
  C  681  1  0.42273600  0.35487800  0.15408200  1
  C  684  1  0.38584300  0.35169700  0.04514100  1
  C  686  1  0.38496100  0.33493600  0.22539900  1
  C  687  1  0.53083600  0.39032100  0.13687600  1
  C  691  1  0.52992300  0.86962200  0.36450900  1
  C  692  1  0.58930700  0.85077600  0.33014700  1
  C  693  1  0.58831800  0.85491400  0.40137900  1
  C  694  1  0.60913500  0.84480500  0.32989600  1
  C  695  1  0.61863000  0.83990900  0.31230400  1
  C  696  1  0.60865100  0.84082200  0.29422200  1
  C  697  1  0.58895600  0.84704000  0.29437500  1
  C  698  1  0.57952200  0.85196500  0.31194300  1
  C  699  1  0.52005400  0.87392400  0.34683100  1
  C  700  1  0.50049700  0.88032400  0.34680800  1
  C  701  1  0.48998100  0.88244600  0.36448000  1
  C  702  1  0.49972300  0.87800600  0.38213400  1
  C  703  1  0.51926000  0.87169300  0.38213400  1
  C  704  1  0.57731700  0.85468600  0.41892100  1
  C  705  1  0.58647000  0.85347400  0.43725500  1
  C  706  1  0.60705300  0.85276400  0.43879300  1
  C  707  1  0.61812300  0.85261300  0.42135200  1
  C  708  1  0.60890800  0.85365600  0.40298000  1
  C  719  1  0.57889400  0.85659500  0.38287800  1
  C  721  1  0.54995100  0.86384000  0.36470900  1
  C  723  1  0.57932900  0.85491100  0.34801300  1
  C  726  1  0.61608800  0.85197100  0.45702100  1
  C  728  1  0.61714700  0.83493900  0.27672700  1
  C  729  1  0.47105900  0.88994200  0.36506300  1
  C  733  1  0.97210400  0.13241700  0.86443700  1
  C  734  1  0.91274400  0.15139500  0.83008900  1
  C  735  1  0.91378700  0.14732400  0.90132800  1
  C  736  1  0.89291700  0.15737000  0.82984500  1
  C  737  1  0.88340600  0.16223300  0.81225200  1
  C  738  1  0.89337500  0.16130400  0.79416600  1
  C  739  1  0.91307100  0.15509200  0.79431300  1
  C  740  1  0.92251500  0.15017800  0.81188000  1
  C  741  1  0.98196200  0.12808000  0.84676100  1
  C  742  1  0.00147000  0.12153100  0.84674600  1
  C  743  1  0.01193600  0.11929000  0.86443100  1
  C  744  1  0.00222200  0.12379200  0.88208300  1
  C  745  1  0.98273700  0.13026200  0.88207100  1
  C  746  1  0.92481000  0.14753400  0.91885600  1
  C  747  1  0.91567900  0.14872600  0.93720300  1
  C  748  1  0.89510000  0.14942700  0.93876900  1
  C  749  1  0.88400600  0.14960000  0.92134100  1
  C  750  1  0.89319900  0.14859500  0.90295500  1
  C  761  1  0.92318800  0.14562500  0.88281700  1
  C  763  1  0.95210000  0.13828800  0.86463600  1
  C  765  1  0.92273100  0.14727200  0.84795100  1
  C  768  1  0.88608200  0.15013700  0.95701000  1
  C  770  1  0.88486800  0.16716800  0.77666900  1
  C  771  1  0.03075100  0.11155000  0.86499300  1
  C  775  1  0.02995600  0.63243400  0.63750500  1
  C  776  1  0.08932700  0.65121300  0.67193900  1
  C  777  1  0.08838700  0.64720400  0.60071000  1
  C  778  1  0.10916200  0.65716200  0.67220500  1
  C  779  1  0.11865200  0.66204400  0.68980400  1
  C  780  1  0.10865900  0.66114200  0.70787700  1
  C  781  1  0.08895900  0.65494200  0.70771100  1
  C  782  1  0.07953100  0.65002600  0.69013700  1
  C  783  1  0.02002600  0.62824200  0.65517600  1
  C  784  1  0.00044900  0.62190500  0.65517900  1
  C  785  1  0.98998200  0.61971200  0.63748500  1
  C  786  1  0.99978900  0.62403000  0.61983600  1
  C  787  1  0.01934000  0.63029700  0.61986000  1
  C  788  1  0.07740100  0.64752100  0.58316100  1
  C  789  1  0.08657100  0.64883700  0.56484000  1
  C  790  1  0.10715300  0.64954400  0.56332400  1
  C  791  1  0.11821100  0.64958000  0.58077500  1
  C  792  1  0.10898000  0.64845700  0.59913400  1
  C  803  1  0.07894800  0.64546900  0.61919700  1
  C  805  1  0.04999100  0.63819900  0.63733200  1
  C  807  1  0.07935800  0.64709600  0.65406600  1
  C  810  1  0.11617700  0.65049700  0.54508500  1
  C  812  1  0.11714900  0.66702400  0.72537700  1
  C  813  1  0.97101600  0.61234200  0.63685000  1
  C  817  1  0.86452600  0.52998900  0.63236800  1
  C  818  1  0.83010500  0.58930700  0.65134000  1
  C  819  1  0.90133600  0.58838500  0.64723600  1
  C  820  1  0.82984300  0.60913600  0.65730700  1
  C  821  1  0.81224400  0.61862600  0.66219400  1
  C  822  1  0.79417000  0.60863400  0.66128600  1
  C  823  1  0.79433500  0.58893600  0.65507800  1
  C  824  1  0.81190800  0.57951200  0.65015000  1
  C  825  1  0.84686300  0.52011500  0.62802000  1
  C  826  1  0.84686600  0.50058700  0.62153500  1
  C  827  1  0.86455400  0.49010800  0.61937600  1
  C  828  1  0.88219500  0.49984800  0.62387100  1
  C  829  1  0.88216700  0.51935700  0.63026700  1
  C  830  1  0.91890200  0.57741700  0.64733400  1
  C  831  1  0.93722000  0.58659600  0.64859400  1
  C  832  1  0.93871500  0.60717100  0.64947500  1
  C  833  1  0.92125500  0.61821100  0.64973600  1
  C  834  1  0.90290100  0.60896900  0.64865700  1
  C  845  1  0.88284500  0.57894200  0.64553100  1
  C  847  1  0.86470300  0.54999900  0.63821700  1
  C  849  1  0.84797700  0.57934300  0.64720200  1
  C  852  1  0.95692600  0.61622000  0.65034800  1
  C  854  1  0.77666900  0.61712400  0.66716600  1
  C  855  1  0.86514100  0.47124000  0.61175200  1
  C  859  1  0.63758300  0.47218500  0.13251300  1
  C  860  1  0.67195200  0.41278700  0.15129600  1
  C  861  1  0.60072300  0.41375800  0.14712800  1
  C  862  1  0.67220800  0.39295600  0.15725800  1
  C  863  1  0.68980100  0.38346200  0.16215500  1
  C  864  1  0.70787900  0.39344700  0.16125400  1
  C  865  1  0.70772300  0.41314400  0.15504600  1
  C  866  1  0.69015600  0.42257700  0.15011800  1
  C  867  1  0.65526300  0.48208800  0.12830500  1
  C  868  1  0.65528800  0.50166700  0.12197600  1
  C  869  1  0.63761200  0.51217200  0.11982600  1
  C  870  1  0.61995300  0.50239200  0.12416400  1
  C  871  1  0.61995200  0.48283100  0.13040800  1
  C  872  1  0.58317800  0.42475500  0.14735900  1
  C  873  1  0.56484600  0.41559700  0.14856900  1
  C  874  1  0.56331200  0.39501400  0.14927000  1
  C  875  1  0.58075600  0.38394800  0.14941600  1
  C  876  1  0.59912600  0.39316800  0.14837700  1
  C  887  1  0.61922100  0.42318800  0.14545900  1
  C  889  1  0.63738600  0.45214600  0.13825600  1
  C  891  1  0.65408600  0.42276300  0.14716100  1
  C  894  1  0.54508700  0.38597400  0.15006100  1
  C  896  1  0.72537500  0.38495200  0.16713900  1
  C  897  1  0.63699700  0.53114500  0.11246300  1
  C  901  1  0.13767000  0.02998000  0.86966400  1
  C  902  1  0.17201400  0.08933900  0.85068000  1
  C  903  1  0.10077700  0.08829900  0.85477200  1
  C  904  1  0.17225700  0.10916600  0.84470600  1
  C  905  1  0.18984700  0.11867800  0.83983500  1
  C  906  1  0.20793300  0.10870900  0.84075800  1
  C  907  1  0.20778900  0.08901200  0.84696800  1
  C  908  1  0.19022400  0.07956800  0.85188900  1
  C  909  1  0.15534700  0.02012000  0.87399700  1
  C  910  1  0.15536200  0.00061100  0.88054500  1
  C  911  1  0.13767700  0.99014600  0.88278800  1
  C  912  1  0.12002500  0.99986200  0.87829100  1
  C  913  1  0.12003700  0.01934600  0.87182200  1
  C  914  1  0.08324900  0.07727700  0.85456800  1
  C  915  1  0.06490200  0.08640800  0.85338000  1
  C  916  1  0.06333700  0.10698700  0.85267900  1
  C  917  1  0.08076500  0.11808000  0.85250200  1
  C  918  1  0.09915100  0.10888700  0.85350300  1
  C  929  1  0.11928700  0.07889700  0.85646600  1
  C  931  1  0.13747100  0.04998400  0.86379600  1
  C  933  1  0.15415200  0.07935200  0.85480900  1
  C  936  1  0.04509500  0.11600700  0.85197200  1
  C  938  1  0.22542700  0.11721400  0.83488300  1
  C  939  1  0.13711500  0.97133000  0.89052600  1
  C  943  1  0.36456200  0.97212800  0.36964300  1
  C  944  1  0.33012800  0.91275700  0.35086300  1
  C  945  1  0.40135600  0.91369300  0.35488800  1
  C  946  1  0.32986200  0.89292200  0.34491500  1
  C  947  1  0.31226500  0.88343200  0.34003100  1
  C  948  1  0.29419100  0.89342600  0.34092600  1
  C  949  1  0.29435600  0.91312600  0.34712500  1
  C  950  1  0.31193000  0.92255500  0.35204600  1
  C  951  1  0.34689100  0.98206000  0.37383400  1
  C  952  1  0.34689000  0.00163600  0.38017000  1
  C  953  1  0.36458400  0.01210200  0.38236200  1
  C  954  1  0.38223200  0.00229500  0.37804600  1
  C  955  1  0.38220700  0.98274300  0.37178100  1
  C  956  1  0.41890700  0.92467800  0.35457400  1
  C  957  1  0.43722700  0.91550700  0.35326400  1
  C  958  1  0.43874200  0.89492600  0.35255800  1
  C  959  1  0.42129000  0.88386700  0.35251900  1
  C  960  1  0.40293200  0.89310000  0.35363800  1
  C  971  1  0.38286900  0.92313300  0.35661700  1
  C  973  1  0.36473400  0.95209200  0.36388000  1
  C  975  1  0.34800100  0.92272500  0.35498300  1
  C  978  1  0.45698000  0.88590100  0.35160900  1
  C  980  1  0.27669200  0.88493700  0.33504000  1
  C  981  1  0.36522000  0.03106900  0.38973100  1
  C  985  1  0.63237300  0.86453200  0.53001300  1
  C  986  1  0.65133700  0.83010100  0.58932900  1
  C  987  1  0.64725600  0.90133200  0.58841100  1
  C  988  1  0.65730500  0.82983500  0.60915800  1
  C  989  1  0.66219000  0.81223600  0.61864600  1
  C  990  1  0.66127500  0.79416100  0.60865500  1
  C  991  1  0.65506500  0.79432800  0.58895800  1
  C  992  1  0.65014000  0.81190200  0.57953400  1
  C  993  1  0.62801900  0.84687000  0.52013700  1
  C  994  1  0.62153100  0.84687900  0.50061000  1
  C  995  1  0.61937500  0.86457000  0.49013400  1
  C  996  1  0.62387500  0.88220800  0.49987700  1
  C  997  1  0.63027500  0.88217500  0.51938500  1
  C  998  1  0.64736000  0.91889700  0.57744400  1
  C  999  1  0.64862600  0.93721600  0.58662400  1
  C  1000  1  0.64950900  0.93870900  0.60719900  1
  C  1001  1  0.64976400  0.92124900  0.61823800  1
  C  1002  1  0.64867500  0.90289500  0.60899600  1
  C  1013  1  0.64554500  0.88284200  0.57896700  1
  C  1015  1  0.63822300  0.86470400  0.55002400  1
  C  1017  1  0.64720400  0.84797300  0.57936600  1
  C  1020  1  0.65038500  0.95692000  0.61624800  1
  C  1022  1  0.66715600  0.77666200  0.61714300  1
  C  1023  1  0.61174600  0.86516100  0.47126800  1
  C  1027  1  0.13246400  0.63760000  0.47214400  1
  C  1028  1  0.15131300  0.67196000  0.41276000  1
  C  1029  1  0.14717100  0.60072900  0.41374900  1
  C  1030  1  0.15728400  0.67221100  0.39293300  1
  C  1031  1  0.16218000  0.68980400  0.38343700  1
  C  1032  1  0.16126900  0.70788500  0.39341500  1
  C  1033  1  0.15505100  0.70773300  0.41311100  1
  C  1034  1  0.15012400  0.69016500  0.42254500  1
  C  1035  1  0.12816000  0.65527700  0.48201400  1
  C  1036  1  0.12175700  0.65530000  0.50156800  1
  C  1037  1  0.11963600  0.63762800  0.51208400  1
  C  1038  1  0.12407900  0.61997400  0.50234200  1
  C  1039  1  0.13039300  0.61997400  0.48280500  1
  C  1040  1  0.14739900  0.58318800  0.42475000  1
  C  1041  1  0.14860900  0.56485300  0.41559700  1
  C  1042  1  0.14931600  0.56331400  0.39501500  1
  C  1043  1  0.14946700  0.58075600  0.38394400  1
  C  1044  1  0.14842500  0.59912800  0.39315900  1
  C  1055  1  0.14549100  0.61923000  0.42317300  1
  C  1057  1  0.13824700  0.63739900  0.45211600  1
  C  1059  1  0.14717700  0.65409500  0.42273800  1
  C  1062  1  0.15010700  0.54508700  0.38598000  1
  C  1064  1  0.16715300  0.72538000  0.38491800  1
  C  1065  1  0.11213600  0.63704400  0.53100500  1
  C  1069  1  0.86966700  0.13767700  0.03000200  1
  C  1070  1  0.85068700  0.17202400  0.08936000  1
  C  1071  1  0.85475900  0.10078600  0.08831900  1
  C  1072  1  0.84471000  0.17226800  0.10918600  1
  C  1073  1  0.83984500  0.18986100  0.11869800  1
  C  1074  1  0.84077500  0.20794700  0.10872900  1
  C  1075  1  0.84698900  0.20780100  0.08903200  1
  C  1076  1  0.85190400  0.19023400  0.07958900  1
  C  1077  1  0.87400500  0.15535300  0.02014300  1
  C  1078  1  0.88055500  0.15536600  0.00063600  1
  C  1079  1  0.88279700  0.13768200  0.99017000  1
  C  1080  1  0.87829400  0.12003000  0.99988500  1
  C  1081  1  0.87182200  0.12004300  0.01936900  1
  C  1082  1  0.85454900  0.08325800  0.07729600  1
  C  1083  1  0.85336000  0.06491200  0.08642600  1
  C  1084  1  0.85266000  0.06334600  0.10700500  1
  C  1085  1  0.85248900  0.08077300  0.11809900  1
  C  1086  1  0.85349300  0.09915900  0.10890700  1
  C  1097  1  0.85645800  0.11929600  0.07891700  1
  C  1099  1  0.86379600  0.13747900  0.05000500  1
  C  1101  1  0.85481000  0.15416300  0.07937300  1
  C  1104  1  0.85195300  0.04510400  0.11602400  1
  C  1106  1  0.83490800  0.22544300  0.11723400  1
  C  1107  1  0.89053800  0.13711900  0.97135500  1
  C  1111  1  0.36962400  0.36454700  0.97211300  1
  C  1112  1  0.35086900  0.33012500  0.91272900  1
  C  1113  1  0.35489100  0.40135600  0.91368700  1
  C  1114  1  0.34491700  0.32986200  0.89289500  1
  C  1115  1  0.34003700  0.31226300  0.88340300  1
  C  1116  1  0.34093800  0.29418800  0.89339400  1
  C  1117  1  0.34714300  0.29435300  0.91309400  1
  C  1118  1  0.35205900  0.31192600  0.92252200  1
  C  1119  1  0.37381900  0.34687700  0.98204100  1
  C  1120  1  0.38015500  0.34687200  0.00161800  1
  C  1121  1  0.38234300  0.36456500  0.01208700  1
  C  1122  1  0.37802100  0.38221300  0.00228500  1
  C  1123  1  0.37175700  0.38219300  0.98273300  1
  C  1124  1  0.35450300  0.41889500  0.92468800  1
  C  1125  1  0.35321900  0.43722100  0.91552900  1
  C  1126  1  0.35262100  0.43875900  0.89494300  1
  C  1127  1  0.35264900  0.42131500  0.88387000  1
  C  1128  1  0.35373600  0.40294900  0.89309100  1
  C  1139  1  0.35661200  0.38286500  0.92312000  1
  C  1141  1  0.36386500  0.36472400  0.95207600  1
  C  1143  1  0.35498300  0.34799800  0.92270100  1
  C  1146  1  0.35172300  0.45700600  0.88592300  1
  C  1148  1  0.33505600  0.27668900  0.88490300  1
  C  1149  1  0.38971300  0.36520000  0.03105400  1
  C  1153  1  0.52999200  0.63235500  0.86454400  1
  C  1154  1  0.58931400  0.65132600  0.83013000  1
  C  1155  1  0.58838400  0.64722100  0.90136100  1
  C  1156  1  0.60914300  0.65729400  0.82987000  1
  C  1157  1  0.61863400  0.66218400  0.81227300  1
  C  1158  1  0.60864500  0.66127500  0.79419800  1
  C  1159  1  0.58894700  0.65506500  0.79436000  1
  C  1160  1  0.57952200  0.65013400  0.81193100  1
  C  1161  1  0.52011900  0.62800700  0.84687900  1
  C  1162  1  0.50059100  0.62152200  0.84688000  1
  C  1163  1  0.49011000  0.61936500  0.86456700  1
  C  1164  1  0.49984800  0.62385900  0.88221000  1
  C  1165  1  0.51935700  0.63025500  0.88218300  1
  C  1166  1  0.57741300  0.64731600  0.91892300  1
  C  1167  1  0.58659000  0.64857800  0.93724500  1
  C  1168  1  0.60716600  0.64946600  0.93874100  1
  C  1169  1  0.61820600  0.64972900  0.92128400  1
  C  1170  1  0.60896700  0.64864500  0.90292700  1
  C  1181  1  0.57894200  0.64551700  0.88286800  1
  C  1183  1  0.55000200  0.63820200  0.86472300  1
  C  1185  1  0.57934700  0.64718600  0.84800100  1
  C  1188  1  0.61621100  0.65034300  0.95695300  1
  C  1190  1  0.61713600  0.66716400  0.77670100  1
  C  1191  1  0.47124200  0.61173900  0.86515300  1
  C  1195  1  0.47215600  0.13242900  0.63757700  1
  C  1196  1  0.41278700  0.15132200  0.67193800  1
  C  1197  1  0.41378300  0.14721000  0.60070500  1
  C  1198  1  0.39296200  0.15730000  0.67218900  1
  C  1199  1  0.38346500  0.16218900  0.68978300  1
  C  1200  1  0.39344100  0.16126300  0.70786600  1
  C  1201  1  0.41313400  0.15503800  0.70771200  1
  C  1202  1  0.42256800  0.15011800  0.69014300  1
  C  1203  1  0.48199200  0.12802700  0.65524900  1
  C  1204  1  0.50152600  0.12155900  0.65526800  1
  C  1205  1  0.51205700  0.11948100  0.63759900  1
  C  1206  1  0.50235000  0.12403100  0.61995200  1
  C  1207  1  0.48283300  0.13040700  0.61995500  1
  C  1208  1  0.42478400  0.14743700  0.58316300  1
  C  1209  1  0.41563200  0.14864900  0.56482800  1
  C  1210  1  0.39505000  0.14936200  0.56328900  1
  C  1211  1  0.38397900  0.14951700  0.58073200  1
  C  1212  1  0.39319300  0.14847400  0.59910300  1
  C  1223  1  0.42320500  0.14552200  0.61920700  1
  C  1225  1  0.45213700  0.13824400  0.63737500  1
  C  1227  1  0.42276500  0.14719000  0.65407200  1
  C  1230  1  0.38601500  0.15015200  0.54506200  1
  C  1232  1  0.38494300  0.16713600  0.72536400  1
  C  1233  1  0.53092800  0.11185800  0.63703800  1
  C  1237  1  0.02997900  0.86966900  0.13765100  1
  C  1238  1  0.08933800  0.85069100  0.17199800  1
  C  1239  1  0.08829700  0.85476000  0.10076000  1
  C  1240  1  0.10916400  0.84471600  0.17224400  1
  C  1241  1  0.11867600  0.83985200  0.18983800  1
  C  1242  1  0.10870600  0.84078200  0.20792300  1
  C  1243  1  0.08900900  0.84699600  0.20777400  1
  C  1244  1  0.07956600  0.85190900  0.19020900  1
  C  1245  1  0.02012000  0.87400500  0.15532700  1
  C  1246  1  0.00061200  0.88055300  0.15534100  1
  C  1247  1  0.99014600  0.88279400  0.13765700  1
  C  1248  1  0.99986200  0.87829400  0.12000500  1
  C  1249  1  0.01934600  0.87182500  0.12001700  1
  C  1250  1  0.07727400  0.85455000  0.08323200  1
  C  1251  1  0.08640400  0.85335800  0.06488600  1
  C  1252  1  0.10698300  0.85265700  0.06332000  1
  C  1253  1  0.11807700  0.85248600  0.08074800  1
  C  1254  1  0.10888500  0.85349100  0.09913400  1
  C  1265  1  0.07889500  0.85646100  0.11927000  1
  C  1267  1  0.04998300  0.86379900  0.13745300  1
  C  1269  1  0.07935100  0.85481500  0.15413600  1
  C  1272  1  0.11600200  0.85194700  0.04507800  1
  C  1274  1  0.11721200  0.83491700  0.22542000  1
  C  1275  1  0.97133000  0.89053400  0.13709400  1
  C  1279  1  0.97212900  0.36963400  0.36456500  1
  C  1280  1  0.91274100  0.35087900  0.33014700  1
  C  1281  1  0.91370800  0.35489700  0.40137800  1
  C  1282  1  0.89290600  0.34493100  0.32988700  1
  C  1283  1  0.88341200  0.34004800  0.31228900  1
  C  1284  1  0.89340100  0.34094700  0.29421400  1
  C  1285  1  0.91310100  0.34715000  0.29437500  1
  C  1286  1  0.92253300  0.35206600  0.31194600  1
  C  1287  1  0.98205500  0.37382900  0.34689300  1
  C  1288  1  0.00163300  0.38016500  0.34688500  1
  C  1289  1  0.01210300  0.38235500  0.36457800  1
  C  1290  1  0.00230200  0.37803400  0.38222800  1
  C  1291  1  0.98274900  0.37176800  0.38220700  1
  C  1292  1  0.92470900  0.35451100  0.41891500  1
  C  1293  1  0.91555100  0.35322400  0.43724300  1
  C  1294  1  0.89496500  0.35262300  0.43878200  1
  C  1295  1  0.88389200  0.35264900  0.42133800  1
  C  1296  1  0.89311000  0.35373900  0.40297100  1
  C  1307  1  0.92313700  0.35662000  0.38288500  1
  C  1309  1  0.95209200  0.36387500  0.36474300  1
  C  1311  1  0.92271500  0.35499300  0.34801900  1
  C  1314  1  0.88594700  0.35172200  0.45703000  1
  C  1316  1  0.88490900  0.33506000  0.27671600  1
  C  1317  1  0.03106900  0.38972700  0.36521200  1
  C  1321  1  0.72842400  0.67131700  0.75598400  1
  C  1322  1  0.74140000  0.71383200  0.70051200  1
  C  1323  1  0.68592200  0.72680300  0.74302100  1
  C  1324  1  0.73593000  0.72918300  0.68771700  1
  C  1325  1  0.74748000  0.73418200  0.67144400  1
  C  1326  1  0.76508800  0.72424500  0.66757800  1
  C  1327  1  0.77055100  0.70873800  0.68007000  1
  C  1328  1  0.75892700  0.70366500  0.69624200  1
  C  1329  1  0.74377500  0.65852400  0.75051200  1
  C  1330  1  0.74876900  0.64224700  0.76205900  1
  C  1331  1  0.73882600  0.63837400  0.77966300  1
  C  1332  1  0.72332600  0.65087100  0.78513000  1
  C  1333  1  0.71825500  0.66704500  0.77351000  1
  C  1334  1  0.67312700  0.72133100  0.75837100  1
  C  1335  1  0.65685400  0.73288000  0.76336900  1
  C  1336  1  0.65299100  0.75049100  0.75343800  1
  C  1337  1  0.66548200  0.75595300  0.73792900  1
  C  1338  1  0.68165400  0.74433100  0.73285700  1
  C  1350  1  0.70244800  0.71512400  0.73793800  1
  C  1352  1  0.72334500  0.68784700  0.74430800  1
  C  1354  1  0.72972200  0.70875100  0.71703800  1
  C  1360  1  0.59163200  0.11948800  0.25590300  1
  C  1361  1  0.57865300  0.07693080  0.20046100  1
  C  1362  1  0.63415200  0.06401380  0.24296200  1
  C  1363  1  0.58413200  0.06157780  0.18767200  1
  C  1364  1  0.57258100  0.05656380  0.17140500  1
  C  1365  1  0.55496700  0.06648880  0.16753800  1
  C  1366  1  0.54949100  0.08199180  0.18002900  1
  C  1367  1  0.56111700  0.08708180  0.19619300  1
  C  1368  1  0.57626900  0.13227000  0.25043700  1
  C  1369  1  0.57127000  0.14854600  0.26198400  1
  C  1370  1  0.58122800  0.15243500  0.27957400  1
  C  1371  1  0.59674300  0.13995100  0.28503500  1
  C  1372  1  0.60181300  0.12377500  0.27341900  1
  C  1373  1  0.64694400  0.06949880  0.25830900  1
  C  1374  1  0.66322100  0.05795880  0.26331400  1
  C  1375  1  0.66708700  0.04034080  0.25339500  1
  C  1376  1  0.65460000  0.03486680  0.23788900  1
  C  1377  1  0.63842600  0.04648080  0.23280600  1
  C  1389  1  0.61761900  0.07568280  0.23787300  1
  C  1391  1  0.59671200  0.10295400  0.24423400  1
  C  1393  1  0.59033500  0.08203080  0.21698100  1
  C  1399  1  0.09153890  0.17128100  0.59327100  1
  C  1400  1  0.07862590  0.21377800  0.64877200  1
  C  1401  1  0.13409700  0.22672200  0.60625100  1
  C  1402  1  0.08411190  0.22912400  0.66156600  1
  C  1403  1  0.07257190  0.23412800  0.67784400  1
  C  1404  1  0.05496290  0.22419900  0.68172100  1
  C  1405  1  0.04947990  0.20870200  0.66922500  1
  C  1406  1  0.06109490  0.20362200  0.65304900  1
  C  1407  1  0.07618690  0.15849200  0.59874800  1
  C  1408  1  0.07117390  0.14222400  0.58719800  1
  C  1409  1  0.08109890  0.13835800  0.56958400  1
  C  1410  1  0.09660290  0.15084800  0.56411000  1
  C  1411  1  0.10169100  0.16701500  0.57573300  1
  C  1412  1  0.14687800  0.22125600  0.59088700  1
  C  1413  1  0.16315700  0.23279600  0.58589200  1
  C  1414  1  0.16704000  0.25039500  0.59583900  1
  C  1415  1  0.15456200  0.25585300  0.61135900  1
  C  1416  1  0.13838600  0.24423700  0.61643200  1
  C  1428  1  0.11756300  0.21505300  0.61133100  1
  C  1430  1  0.09663690  0.18780100  0.60495300  1
  C  1432  1  0.09029190  0.20869200  0.63224000  1
  C  1438  1  0.22837400  0.61954400  0.09325390  1
  C  1439  1  0.24131500  0.57702000  0.14872500  1
  C  1440  1  0.18586500  0.56405300  0.10617200  1
  C  1441  1  0.23584700  0.56165800  0.16150700  1
  C  1442  1  0.24739200  0.55665900  0.17778400  1
  C  1443  1  0.26499000  0.56660600  0.18166500  1
  C  1444  1  0.27044900  0.58212500  0.16918500  1
  C  1445  1  0.25883000  0.58719900  0.15301200  1
  C  1446  1  0.24372200  0.63233500  0.09873690  1
  C  1447  1  0.24872900  0.64861000  0.08719590  1
  C  1448  1  0.23880700  0.65247800  0.06958090  1
  C  1449  1  0.22329800  0.63999400  0.06410790  1
  C  1450  1  0.21821600  0.62382000  0.07572190  1
  C  1451  1  0.17307900  0.56953200  0.09081790  1
  C  1452  1  0.15681100  0.55798300  0.08580090  1
  C  1453  1  0.15294600  0.54036500  0.09571990  1
  C  1454  1  0.16543000  0.53489200  0.11122800  1
  C  1455  1  0.18159500  0.54651700  0.11632300  1
  C  1467  1  0.20238600  0.57573200  0.11127100  1
  C  1469  1  0.22328500  0.60301200  0.10492300  1
  C  1471  1  0.22964400  0.58210300  0.13219200  1
  C  1477  1  0.09159490  0.11949100  0.09325090  1
  C  1478  1  0.07863090  0.07698780  0.14873500  1
  C  1479  1  0.13410700  0.06401680  0.10622300  1
  C  1480  1  0.08410090  0.06163680  0.16153000  1
  C  1481  1  0.07255490  0.05664280  0.17780600  1
  C  1482  1  0.05495290  0.06658680  0.18167800  1
  C  1483  1  0.04948590  0.08208880  0.16918200  1
  C  1484  1  0.06110490  0.08715580  0.15300800  1
  C  1485  1  0.07624390  0.13228500  0.09872090  1
  C  1486  1  0.07124690  0.14855900  0.08717190  1
  C  1487  1  0.08117890  0.15242100  0.06955990  1
  C  1488  1  0.09668790  0.13993100  0.06409890  1
  C  1489  1  0.10176100  0.12375900  0.07572190  1
  C  1490  1  0.14690100  0.06948880  0.09087290  1
  C  1491  1  0.16317500  0.05794080  0.08587390  1
  C  1492  1  0.16704100  0.04033180  0.09580690  1
  C  1493  1  0.15455300  0.03486780  0.11131600  1
  C  1494  1  0.13838000  0.04648980  0.11639000  1
  C  1506  1  0.11757900  0.07569180  0.11130400  1
  C  1508  1  0.09667590  0.10296400  0.10493000  1
  C  1510  1  0.09030690  0.08206580  0.13220600  1
  C  1516  1  0.22839000  0.67133200  0.59333100  1
  C  1517  1  0.24135200  0.71388500  0.64878000  1
  C  1518  1  0.18586700  0.72680400  0.60626100  1
  C  1519  1  0.23587400  0.72924000  0.66156400  1
  C  1520  1  0.24742000  0.73425300  0.67783600  1
  C  1521  1  0.26503000  0.72432400  0.68171100  1
  C  1522  1  0.27050300  0.70881500  0.66922500  1
  C  1523  1  0.25888400  0.70372900  0.65305500  1
  C  1524  1  0.24375100  0.65855000  0.59879800  1
  C  1525  1  0.24874800  0.64227000  0.58725700  1
  C  1526  1  0.23880200  0.63838900  0.56965900  1
  C  1527  1  0.22328300  0.65086700  0.56419900  1
  C  1528  1  0.21821100  0.66704300  0.57581500  1
  C  1529  1  0.17307800  0.72131800  0.59091300  1
  C  1530  1  0.15680200  0.73285700  0.58590200  1
  C  1531  1  0.15293000  0.75047300  0.59582200  1
  C  1532  1  0.16541400  0.75595000  0.61133000  1
  C  1533  1  0.18159000  0.74433700  0.61641400  1
  C  1545  1  0.20240000  0.71513800  0.61135200  1
  C  1547  1  0.22330800  0.68786600  0.60499800  1
  C  1549  1  0.22967800  0.70878900  0.63225400  1
  C  1555  1  0.72847900  0.61954300  0.25595000  1
  C  1556  1  0.74139700  0.57703600  0.20045800  1
  C  1557  1  0.68592300  0.56409800  0.24297700  1
  C  1558  1  0.73591200  0.56168800  0.18766600  1
  C  1559  1  0.74745800  0.55667800  0.17139400  1
  C  1560  1  0.76507200  0.56660200  0.16752300  1
  C  1561  1  0.77054500  0.58211000  0.18000800  1
  C  1562  1  0.75893000  0.58719200  0.19618300  1
  C  1563  1  0.74383300  0.63232900  0.25047100  1
  C  1564  1  0.74884600  0.64860000  0.26201900  1
  C  1565  1  0.73892800  0.65246500  0.27963600  1
  C  1566  1  0.72342000  0.63998000  0.28510900  1
  C  1567  1  0.71832700  0.62381500  0.27348400  1
  C  1568  1  0.67314000  0.56956500  0.25833900  1
  C  1569  1  0.65686400  0.55802200  0.26333900  1
  C  1570  1  0.65297500  0.54042900  0.25338300  1
  C  1571  1  0.66545600  0.53496900  0.23786600  1
  C  1572  1  0.68163500  0.54658300  0.23279800  1
  C  1584  1  0.70245700  0.57576700  0.23789700  1
  C  1586  1  0.72338000  0.60302200  0.24427100  1
  C  1588  1  0.72972800  0.58212500  0.21698900  1
  C  1594  1  0.59165000  0.17127300  0.75598700  1
  C  1595  1  0.57870400  0.21379800  0.70051900  1
  C  1596  1  0.63415200  0.22677000  0.74307200  1
  C  1597  1  0.58417000  0.22916200  0.68773800  1
  C  1598  1  0.57262500  0.23416200  0.67146100  1
  C  1599  1  0.55502700  0.22421400  0.66758100  1
  C  1600  1  0.54957300  0.20868900  0.68005400  1
  C  1601  1  0.56119000  0.20361800  0.69623000  1
  C  1602  1  0.57630200  0.15848100  0.75050200  1
  C  1603  1  0.57130000  0.14220100  0.76204000  1
  C  1604  1  0.58122800  0.13832600  0.77964900  1
  C  1605  1  0.59672700  0.15082000  0.78513200  1
  C  1606  1  0.60180700  0.16699600  0.77351800  1
  C  1607  1  0.64694100  0.22129000  0.75842500  1
  C  1608  1  0.66320900  0.23283900  0.76343900  1
  C  1609  1  0.66707800  0.25045200  0.75351400  1
  C  1610  1  0.65458900  0.25592800  0.73801000  1
  C  1611  1  0.63842000  0.24430700  0.73292200  1
  C  1623  1  0.61763100  0.21509100  0.73797500  1
  C  1625  1  0.59673500  0.18780700  0.74432100  1
  C  1627  1  0.59037400  0.20871700  0.71705100  1
  C  1633  1  0.54651400  0.86645600  0.79328200  1
  C  1634  1  0.58094500  0.80714000  0.77431700  1
  C  1635  1  0.50971400  0.80805500  0.77840700  1
  C  1636  1  0.58121100  0.78731300  0.76834800  1
  C  1637  1  0.59881100  0.77782600  0.76346200  1
  C  1638  1  0.61688500  0.78781800  0.76437400  1
  C  1639  1  0.61671700  0.80751600  0.77058600  1
  C  1640  1  0.59914300  0.81693700  0.77551400  1
  C  1641  1  0.56417600  0.87633400  0.79763200  1
  C  1642  1  0.56416800  0.89586200  0.80411700  1
  C  1643  1  0.54647700  0.90633700  0.80627400  1
  C  1644  1  0.52883800  0.89659200  0.80178000  1
  C  1645  1  0.52887100  0.87708400  0.79538200  1
  C  1646  1  0.49214900  0.81902200  0.77830300  1
  C  1647  1  0.47383000  0.80984200  0.77703900  1
  C  1648  1  0.47233800  0.78926500  0.77615900  1
  C  1649  1  0.48979800  0.77822800  0.77590500  1
  C  1650  1  0.50815200  0.78747200  0.77698700  1
  C  1661  1  0.52820300  0.81750000  0.78011600  1
  C  1663  1  0.54634100  0.84644500  0.78743500  1
  C  1665  1  0.56307100  0.81710300  0.77845200  1
  C  1668  1  0.45412700  0.78021700  0.77528600  1
  C  1670  1  0.63438400  0.77933200  0.75849200  1
  C  1671  1  0.54588500  0.92520400  0.81390000  1
  C  1675  1  0.77345700  0.92429400  0.29322300  1
  C  1676  1  0.73909600  0.98366200  0.27432600  1
  C  1677  1  0.81032900  0.98267200  0.27845500  1
  C  1678  1  0.73884500  0.00348681  0.26834600  1
  C  1679  1  0.72125100  0.01298180  0.26345100  1
  C  1680  1  0.70317000  0.00300481  0.26437600  1
  C  1681  1  0.70332300  0.98331100  0.27060100  1
  C  1682  1  0.72089100  0.97387900  0.27552500  1
  C  1683  1  0.75578500  0.91445600  0.29762100  1
  C  1684  1  0.75576600  0.89492300  0.30408700  1
  C  1685  1  0.77343500  0.88439300  0.30616800  1
  C  1686  1  0.79108400  0.89410100  0.30162100  1
  C  1687  1  0.79107900  0.91361700  0.29524900  1
  C  1688  1  0.82787100  0.97167000  0.27823300  1
  C  1689  1  0.84620600  0.98082400  0.27702600  1
  C  1690  1  0.84774400  0.00140481  0.27631400  1
  C  1691  1  0.83030100  0.01247480  0.27615400  1
  C  1692  1  0.81193000  0.00326181  0.27719300  1
  C  1703  1  0.79182700  0.97324800  0.28013700  1
  C  1705  1  0.77365900  0.94431300  0.28741000  1
  C  1707  1  0.75696300  0.97368500  0.27846100  1
  C  1710  1  0.86597200  0.01044080  0.27552800  1
  C  1712  1  0.68567300  0.01149980  0.25849600  1
  C  1713  1  0.77399800  0.86552100  0.31379000  1
  C  1717  1  0.27338700  0.36647400  0.55600200  1
  C  1718  1  0.23903900  0.30711600  0.57498100  1
  C  1719  1  0.31027700  0.30815200  0.57089300  1
  C  1720  1  0.23879400  0.28728900  0.58095600  1
  C  1721  1  0.22120200  0.27777900  0.58582200  1
  C  1722  1  0.20311700  0.28774900  0.58489700  1
  C  1723  1  0.20326400  0.30744700  0.57868700  1
  C  1724  1  0.22083000  0.31688900  0.57376900  1
  C  1725  1  0.25571000  0.37633500  0.55166900  1
  C  1726  1  0.25569700  0.39584300  0.54512300  1
  C  1727  1  0.27338100  0.40630800  0.54288000  1
  C  1728  1  0.29103400  0.39659200  0.54737700  1
  C  1729  1  0.29102000  0.37710600  0.55384400  1
  C  1730  1  0.32780600  0.31917400  0.57109900  1
  C  1731  1  0.34615100  0.31004100  0.57228500  1
  C  1732  1  0.34771500  0.28946200  0.57298600  1
  C  1733  1  0.33028700  0.27837000  0.57316100  1
  C  1734  1  0.31190100  0.28756300  0.57216200  1
  C  1745  1  0.29176700  0.31755500  0.56919900  1
  C  1747  1  0.27358500  0.34647000  0.56187000  1
  C  1749  1  0.25690100  0.31710300  0.57085500  1
  C  1752  1  0.36595700  0.28044100  0.57369100  1
  C  1754  1  0.18562000  0.27924400  0.59076400  1
  C  1755  1  0.27394300  0.42512400  0.53514200  1
  C  1759  1  0.04650290  0.42431200  0.05603790  1
  C  1760  1  0.08092490  0.48369600  0.07479790  1
  C  1761  1  0.00969588  0.48274200  0.07076090  1
  C  1762  1  0.08118790  0.50353100  0.08074790  1
  C  1763  1  0.09878590  0.51302200  0.08563290  1
  C  1764  1  0.11686100  0.50303000  0.08473390  1
  C  1765  1  0.11669700  0.48333000  0.07853090  1
  C  1766  1  0.09912390  0.47390200  0.07361190  1
  C  1767  1  0.06417490  0.41438400  0.05184590  1
  C  1768  1  0.06417890  0.39480700  0.04551090  1
  C  1769  1  0.04648690  0.38433700  0.04332190  1
  C  1770  1  0.02883690  0.39414100  0.04764090  1
  C  1771  1  0.02885890  0.41369400  0.05390390  1
  C  1772  1  0.99215500  0.47174200  0.07114290  1
  C  1773  1  0.97382900  0.48090400  0.07242290  1
  C  1774  1  0.97229400  0.50148900  0.07302490  1
  C  1775  1  0.98973800  0.51256000  0.07300090  1
  C  1776  1  0.00810388  0.50333800  0.07191790  1
  C  1787  1  0.02818590  0.47330800  0.06904290  1
  C  1789  1  0.04632590  0.44434900  0.06179590  1
  C  1791  1  0.06305290  0.47372500  0.07067990  1
  C  1794  1  0.95404700  0.51051100  0.07391990  1
  C  1796  1  0.13435900  0.51152000  0.09061890  1
  C  1797  1  0.04585190  0.36537000  0.03595290  1
  C  1801  1  0.77869600  0.53193000  0.89565000  1
  C  1802  1  0.75972200  0.56634600  0.83632900  1
  C  1803  1  0.76381700  0.49511600  0.83725900  1
  C  1804  1  0.75375400  0.56660800  0.81650100  1
  C  1805  1  0.74886500  0.58420500  0.80701000  1
  C  1806  1  0.74977300  0.60228000  0.81699900  1
  C  1807  1  0.75598400  0.60211800  0.83669700  1
  C  1808  1  0.76091400  0.58454500  0.84612200  1
  C  1809  1  0.78304900  0.54959400  0.90552100  1
  C  1810  1  0.78953700  0.54959100  0.92504900  1
  C  1811  1  0.79169400  0.53190500  0.93552900  1
  C  1812  1  0.78719600  0.51426300  0.92579100  1
  C  1813  1  0.78079500  0.51429000  0.90628300  1
  C  1814  1  0.76371800  0.47755200  0.84822900  1
  C  1815  1  0.76245300  0.45923200  0.83905300  1
  C  1816  1  0.76156800  0.45773600  0.81847700  1
  C  1817  1  0.76130800  0.47519400  0.80743700  1
  C  1818  1  0.76239600  0.49355000  0.81667500  1
  C  1829  1  0.76552500  0.51360700  0.84670100  1
  C  1831  1  0.77284500  0.53175200  0.87564000  1
  C  1833  1  0.76386000  0.54847600  0.84629600  1
  C  1836  1  0.76069200  0.43952300  0.80943200  1
  C  1838  1  0.74388700  0.61977800  0.80850900  1
  C  1839  1  0.79932300  0.53131800  0.95439600  1
  C  1843  1  0.27862900  0.75884700  0.95352700  1
  C  1844  1  0.25973100  0.72448600  0.01289390  1
  C  1845  1  0.26384700  0.79571800  0.01189990  1
  C  1846  1  0.25375000  0.72423500  0.03271890  1
  C  1847  1  0.24886000  0.70664200  0.04221590  1
  C  1848  1  0.24978500  0.68855900  0.03224190  1
  C  1849  1  0.25601000  0.68871300  0.01254790  1
  C  1850  1  0.26093200  0.70628100  0.00311294  1
  C  1851  1  0.28303200  0.74117500  0.94369100  1
  C  1852  1  0.28950100  0.74115700  0.92415800  1
  C  1853  1  0.29158000  0.75882600  0.91362700  1
  C  1854  1  0.28702900  0.77647300  0.92333300  1
  C  1855  1  0.28065200  0.77646900  0.94285000  1
  C  1856  1  0.26362200  0.81326000  0.00089695  1
  C  1857  1  0.26241000  0.83159500  0.01005090  1
  C  1858  1  0.26170000  0.83313500  0.03063190  1
  C  1859  1  0.26154400  0.81569400  0.04170290  1
  C  1860  1  0.26258500  0.79732100  0.03248990  1
  C  1871  1  0.26553400  0.77721700  0.00247694  1
  C  1873  1  0.27281300  0.75904700  0.97354400  1
  C  1875  1  0.26386300  0.74235200  0.00291694  1
  C  1878  1  0.26091100  0.85136300  0.03966590  1
  C  1880  1  0.24390700  0.67106300  0.04073790  1
  C  1881  1  0.29920600  0.75938900  0.89475600  1
  C  1885  1  0.54138800  0.25877300  0.39566300  1
  C  1886  1  0.56037100  0.22442900  0.33630400  1
  C  1887  1  0.55629600  0.29566700  0.33734800  1
  C  1888  1  0.56634300  0.22418600  0.31647600  1
  C  1889  1  0.57121000  0.20659300  0.30696300  1
  C  1890  1  0.57028400  0.18850800  0.31693200  1
  C  1891  1  0.56407300  0.18865400  0.33662900  1
  C  1892  1  0.55915700  0.20621800  0.34607400  1
  C  1893  1  0.53705000  0.24109700  0.40552200  1
  C  1894  1  0.53050000  0.24108400  0.42502900  1
  C  1895  1  0.52825800  0.25876700  0.43549400  1
  C  1896  1  0.53276100  0.27641900  0.42578100  1
  C  1897  1  0.53923200  0.27640700  0.40629600  1
  C  1898  1  0.55650700  0.31319400  0.34837100  1
  C  1899  1  0.55769600  0.33154100  0.33924200  1
  C  1900  1  0.55839600  0.33310800  0.31866200  1
  C  1901  1  0.55856700  0.31568000  0.30756800  1
  C  1902  1  0.55756300  0.29729400  0.31675900  1
  C  1913  1  0.55459600  0.27715600  0.34674800  1
  C  1915  1  0.54725900  0.25897200  0.37566000  1
  C  1917  1  0.55624400  0.24229000  0.34629100  1
  C  1920  1  0.55910400  0.35134900  0.30964500  1
  C  1922  1  0.57615400  0.17101300  0.30842500  1
  C  1923  1  0.52051600  0.25933000  0.45430900  1
  C  1927  1  0.04139490  0.03188080  0.45356200  1
  C  1928  1  0.06018990  0.06633180  0.51292000  1
  C  1929  1  0.05618790  0.99510400  0.51200500  1
  C  1930  1  0.06613690  0.06660080  0.53275500  1
  C  1931  1  0.07101790  0.08420080  0.54224300  1
  C  1932  1  0.07011990  0.10227200  0.53224600  1
  C  1933  1  0.06392190  0.10210400  0.51254500  1
  C  1934  1  0.05900590  0.08452880  0.50311900  1
  C  1935  1  0.03720290  0.04954880  0.44362800  1
  C  1936  1  0.03086390  0.04954680  0.42405100  1
  C  1937  1  0.02867190  0.03185180  0.41358900  1
  C  1938  1  0.03298990  0.01420480  0.42340000  1
  C  1939  1  0.03925690  0.01423280  0.44295100  1
  C  1940  1  0.05643990  0.97754400  0.50103400  1
  C  1941  1  0.05777990  0.95923000  0.51021500  1
  C  1942  1  0.05858190  0.95773600  0.53079400  1
  C  1943  1  0.05867690  0.97519600  0.54183800  1
  C  1944  1  0.05752490  0.99354600  0.53259400  1
  C  1955  1  0.05444290  0.01358680  0.50255700  1
  C  1957  1  0.04716490  0.03171280  0.47359600  1
  C  1959  1  0.05607190  0.04845580  0.50295500  1
  C  1962  1  0.05958090  0.93950500  0.53982300  1
  C  1964  1  0.07600190  0.11977300  0.54073500  1
  C  1965  1  0.02130290  0.03121080  0.39462100  1
  C  1969  1  0.88105900  0.76406400  0.56109400  1
  C  1970  1  0.82174300  0.74511100  0.59553300  1
  C  1971  1  0.82265500  0.74918800  0.52430200  1
  C  1972  1  0.80191400  0.73914600  0.59580100  1
  C  1973  1  0.79242600  0.73426600  0.61340100  1
  C  1974  1  0.80241800  0.73517800  0.63147400  1
  C  1975  1  0.82211700  0.74138500  0.63130500  1
  C  1976  1  0.83154100  0.74630800  0.61373100  1
  C  1977  1  0.89094000  0.76841700  0.57875200  1
  C  1978  1  0.91046800  0.77490200  0.57874100  1
  C  1979  1  0.92094100  0.77705800  0.56104800  1
  C  1980  1  0.91119400  0.77255800  0.54341100  1
  C  1981  1  0.89168500  0.76616000  0.54344800  1
  C  1982  1  0.83362100  0.74908300  0.50673600  1
  C  1983  1  0.82444000  0.74781800  0.48841800  1
  C  1984  1  0.80386300  0.74693700  0.48692700  1
  C  1985  1  0.79282600  0.74668300  0.50438800  1
  C  1986  1  0.80207100  0.74777100  0.52274100  1
  C  1997  1  0.83210200  0.75089800  0.54279000  1
  C  1999  1  0.86104800  0.75821700  0.56092500  1
  C  2001  1  0.83170600  0.74924200  0.57765800  1
  C  2004  1  0.79481300  0.74606100  0.46871700  1
  C  2006  1  0.79393100  0.72930000  0.64897500  1
  C  2007  1  0.93980600  0.78468500  0.56045200  1
  C  2011  1  0.93889300  0.26398600  0.78808500  1
  C  2012  1  0.99827700  0.24514000  0.75372300  1
  C  2013  1  0.99728800  0.24927800  0.82495500  1
  C  2014  1  0.01810490  0.23916900  0.75347200  1
  C  2015  1  0.02759990  0.23427300  0.73588000  1
  C  2016  1  0.01762090  0.23518600  0.71779800  1
  C  2017  1  0.99792600  0.24140400  0.71795100  1
  C  2018  1  0.98849200  0.24632900  0.73551900  1
  C  2019  1  0.92902400  0.26828800  0.77040700  1
  C  2020  1  0.90946700  0.27468800  0.77038400  1
  C  2021  1  0.89895100  0.27681000  0.78805600  1
  C  2022  1  0.90869300  0.27237000  0.80571000  1
  C  2023  1  0.92823000  0.26605700  0.80571000  1
  C  2024  1  0.98628700  0.24905000  0.84249700  1
  C  2025  1  0.99544000  0.24783800  0.86083100  1
  C  2026  1  0.01602290  0.24712800  0.86236900  1
  C  2027  1  0.02709290  0.24697700  0.84492800  1
  C  2028  1  0.01787790  0.24802000  0.82655600  1
  C  2039  1  0.98786400  0.25095900  0.80645400  1
  C  2041  1  0.95892100  0.25820400  0.78828500  1
  C  2043  1  0.98829900  0.24927500  0.77158900  1
  C  2046  1  0.02505790  0.24633500  0.88059700  1
  C  2048  1  0.02611690  0.22930300  0.70030300  1
  C  2049  1  0.88002900  0.28430600  0.78863900  1
  C  2053  1  0.38107400  0.52678100  0.28801300  1
  C  2054  1  0.32171400  0.54575900  0.25366500  1
  C  2055  1  0.32275700  0.54168800  0.32490400  1
  C  2056  1  0.30188700  0.55173400  0.25342100  1
  C  2057  1  0.29237600  0.55659700  0.23582800  1
  C  2058  1  0.30234500  0.55566800  0.21774200  1
  C  2059  1  0.32204100  0.54945600  0.21788900  1
  C  2060  1  0.33148500  0.54454200  0.23545600  1
  C  2061  1  0.39093200  0.52244400  0.27033700  1
  C  2062  1  0.41044000  0.51589500  0.27032200  1
  C  2063  1  0.42090600  0.51365400  0.28800700  1
  C  2064  1  0.41119200  0.51815600  0.30565900  1
  C  2065  1  0.39170700  0.52462600  0.30564700  1
  C  2066  1  0.33378000  0.54189800  0.34243200  1
  C  2067  1  0.32464900  0.54309000  0.36077900  1
  C  2068  1  0.30407000  0.54379100  0.36234500  1
  C  2069  1  0.29297600  0.54396400  0.34491700  1
  C  2070  1  0.30216900  0.54295900  0.32653100  1
  C  2081  1  0.33215800  0.53998900  0.30639300  1
  C  2083  1  0.36107000  0.53265200  0.28821200  1
  C  2085  1  0.33170100  0.54163600  0.27152700  1
  C  2088  1  0.29505200  0.54450100  0.38058600  1
  C  2090  1  0.29383800  0.56153200  0.20024500  1
  C  2091  1  0.43972100  0.50591400  0.28856900  1
  C  2095  1  0.43892600  0.02679780  0.06108090  1
  C  2096  1  0.49829700  0.04557680  0.09551490  1
  C  2097  1  0.49735700  0.04156780  0.02428590  1
  C  2098  1  0.51813200  0.05152580  0.09578090  1
  C  2099  1  0.52762200  0.05640780  0.11338000  1
  C  2100  1  0.51762900  0.05550580  0.13145300  1
  C  2101  1  0.49792900  0.04930580  0.13128700  1
  C  2102  1  0.48850100  0.04438980  0.11371300  1
  C  2103  1  0.42899600  0.02260580  0.07875190  1
  C  2104  1  0.40941900  0.01626880  0.07875490  1
  C  2105  1  0.39895200  0.01407580  0.06106090  1
  C  2106  1  0.40875900  0.01839380  0.04341190  1
  C  2107  1  0.42831000  0.02466080  0.04343590  1
  C  2108  1  0.48637100  0.04188480  0.00673694  1
  C  2109  1  0.49554100  0.04320080  0.98841600  1
  C  2110  1  0.51612300  0.04390780  0.98690000  1
  C  2111  1  0.52718100  0.04394380  0.00435094  1
  C  2112  1  0.51795000  0.04282080  0.02270990  1
  C  2123  1  0.48791800  0.03983280  0.04277290  1
  C  2125  1  0.45896100  0.03256280  0.06090790  1
  C  2127  1  0.48832800  0.04145980  0.07764190  1
  C  2130  1  0.52514700  0.04486080  0.96866100  1
  C  2132  1  0.52611900  0.06138780  0.14895300  1
  C  2133  1  0.37998600  0.00670581  0.06042590  1
  C  2137  1  0.27349600  0.92435300  0.05594390  1
  C  2138  1  0.23907500  0.98367100  0.07491590  1
  C  2139  1  0.31030600  0.98274900  0.07081190  1
  C  2140  1  0.23881300  0.00349981  0.08088290  1
  C  2141  1  0.22121400  0.01298980  0.08576990  1
  C  2142  1  0.20314000  0.00299781  0.08486190  1
  C  2143  1  0.20330500  0.98330000  0.07865390  1
  C  2144  1  0.22087800  0.97387600  0.07372590  1
  C  2145  1  0.25583300  0.91447900  0.05159590  1
  C  2146  1  0.25583600  0.89495100  0.04511090  1
  C  2147  1  0.27352400  0.88447200  0.04295190  1
  C  2148  1  0.29116500  0.89421200  0.04744690  1
  C  2149  1  0.29113700  0.91372100  0.05384290  1
  C  2150  1  0.32787200  0.97178100  0.07090990  1
  C  2151  1  0.34619000  0.98096000  0.07216990  1
  C  2152  1  0.34768500  0.00153481  0.07305090  1
  C  2153  1  0.33022500  0.01257480  0.07331190  1
  C  2154  1  0.31187100  0.00333281  0.07223290  1
  C  2165  1  0.29181500  0.97330600  0.06910690  1
  C  2167  1  0.27367300  0.94436300  0.06179290  1
  C  2169  1  0.25694700  0.97370700  0.07077790  1
  C  2172  1  0.36589600  0.01058380  0.07392390  1
  C  2174  1  0.18563900  0.01148780  0.09074190  1
  C  2175  1  0.27411100  0.86560400  0.03532790  1
  C  2179  1  0.04655290  0.86654900  0.55608900  1
  C  2180  1  0.08092190  0.80715100  0.57487200  1
  C  2181  1  0.00969288  0.80812200  0.57070400  1
  C  2182  1  0.08117790  0.78732000  0.58083400  1
  C  2183  1  0.09877090  0.77782600  0.58573100  1
  C  2184  1  0.11684900  0.78781100  0.58483000  1
  C  2185  1  0.11669300  0.80750800  0.57862200  1
  C  2186  1  0.09912590  0.81694100  0.57369400  1
  C  2187  1  0.06423290  0.87645200  0.55188100  1
  C  2188  1  0.06425790  0.89603100  0.54555200  1
  C  2189  1  0.04658190  0.90653600  0.54340200  1
  C  2190  1  0.02892290  0.89675600  0.54774000  1
  C  2191  1  0.02892190  0.87719500  0.55398400  1
  C  2192  1  0.99214800  0.81911900  0.57093500  1
  C  2193  1  0.97381600  0.80996100  0.57214500  1
  C  2194  1  0.97228200  0.78937800  0.57284600  1
  C  2195  1  0.98972600  0.77831200  0.57299200  1
  C  2196  1  0.00809588  0.78753200  0.57195300  1
  C  2207  1  0.02819090  0.81755200  0.56903500  1
  C  2209  1  0.04635590  0.84651000  0.56183200  1
  C  2211  1  0.06305590  0.81712700  0.57073700  1
  C  2214  1  0.95405700  0.78033800  0.57363700  1
  C  2216  1  0.13434500  0.77931600  0.59071500  1
  C  2217  1  0.04596690  0.92550900  0.53603900  1
  C  2221  1  0.54664000  0.42434400  0.29324000  1
  C  2222  1  0.58098400  0.48370300  0.27425600  1
  C  2223  1  0.50974700  0.48266300  0.27834800  1
  C  2224  1  0.58122700  0.50353000  0.26828200  1
  C  2225  1  0.59881700  0.51304200  0.26341100  1
  C  2226  1  0.61690300  0.50307300  0.26433400  1
  C  2227  1  0.61675900  0.48337600  0.27054400  1
  C  2228  1  0.59919400  0.47393200  0.27546500  1
  C  2229  1  0.56431700  0.41448400  0.29757300  1
  C  2230  1  0.56433200  0.39497500  0.30412100  1
  C  2231  1  0.54664700  0.38451000  0.30636400  1
  C  2232  1  0.52899500  0.39422600  0.30186700  1
  C  2233  1  0.52900700  0.41371000  0.29539800  1
  C  2234  1  0.49221900  0.47164100  0.27814400  1
  C  2235  1  0.47387200  0.48077200  0.27695600  1
  C  2236  1  0.47230700  0.50135100  0.27625500  1
  C  2237  1  0.48973500  0.51244400  0.27607800  1
  C  2238  1  0.50812100  0.50325100  0.27707900  1
  C  2249  1  0.52825700  0.47326100  0.28004200  1
  C  2251  1  0.54644100  0.44434800  0.28737200  1
  C  2253  1  0.56312200  0.47371600  0.27838500  1
  C  2256  1  0.45406500  0.51037100  0.27554800  1
  C  2258  1  0.63439700  0.51157800  0.25845900  1
  C  2259  1  0.54608500  0.36569400  0.31410200  1
  C  2263  1  0.77353200  0.36649200  0.79321900  1
  C  2264  1  0.73909800  0.30712100  0.77443900  1
  C  2265  1  0.81032600  0.30805700  0.77846400  1
  C  2266  1  0.73883200  0.28728600  0.76849100  1
  C  2267  1  0.72123500  0.27779600  0.76360700  1
  C  2268  1  0.70316100  0.28779000  0.76450200  1
  C  2269  1  0.70332600  0.30749000  0.77070100  1
  C  2270  1  0.72090000  0.31691900  0.77562200  1
  C  2271  1  0.75586100  0.37642400  0.79741000  1
  C  2272  1  0.75586000  0.39600000  0.80374600  1
  C  2273  1  0.77355400  0.40646600  0.80593800  1
  C  2274  1  0.79120200  0.39665900  0.80162200  1
  C  2275  1  0.79117700  0.37710700  0.79535700  1
  C  2276  1  0.82787700  0.31904200  0.77815000  1
  C  2277  1  0.84619700  0.30987100  0.77684000  1
  C  2278  1  0.84771200  0.28929000  0.77613400  1
  C  2279  1  0.83026000  0.27823100  0.77609500  1
  C  2280  1  0.81190200  0.28746400  0.77721400  1
  C  2291  1  0.79183900  0.31749700  0.78019300  1
  C  2293  1  0.77370400  0.34645600  0.78745600  1
  C  2295  1  0.75697100  0.31708900  0.77855900  1
  C  2298  1  0.86595000  0.28026500  0.77518500  1
  C  2300  1  0.68566200  0.27930100  0.75861600  1
  C  2301  1  0.77419000  0.42543300  0.81330700  1
  C  2305  1  0.04134290  0.25889600  0.95358900  1
  C  2306  1  0.06030690  0.22446500  0.01290490  1
  C  2307  1  0.05622590  0.29569600  0.01198690  1
  C  2308  1  0.06627490  0.22419900  0.03273390  1
  C  2309  1  0.07115990  0.20660000  0.04222190  1
  C  2310  1  0.07024490  0.18852500  0.03223090  1
  C  2311  1  0.06403490  0.18869200  0.01253390  1
  C  2312  1  0.05910990  0.20626600  0.00310994  1
  C  2313  1  0.03698890  0.24123400  0.94371300  1
  C  2314  1  0.03050090  0.24124300  0.92418600  1
  C  2315  1  0.02834490  0.25893400  0.91371000  1
  C  2316  1  0.03284490  0.27657200  0.92345300  1
  C  2317  1  0.03924490  0.27653900  0.94296100  1
  C  2318  1  0.05632990  0.31326100  0.00101994  1
  C  2319  1  0.05759590  0.33158000  0.01019990  1
  C  2320  1  0.05847890  0.33307300  0.03077490  1
  C  2321  1  0.05873390  0.31561300  0.04181390  1
  C  2322  1  0.05764490  0.29725900  0.03257190  1
  C  2333  1  0.05451490  0.27720600  0.00254294  1
  C  2335  1  0.04719290  0.25906800  0.97360000  1
  C  2337  1  0.05617390  0.24233700  0.00294194  1
  C  2340  1  0.05935490  0.35128400  0.03982390  1
  C  2342  1  0.07612590  0.17102600  0.04071890  1
  C  2343  1  0.02071590  0.25952500  0.89484400  1
  C  2347  1  0.54143400  0.03196380  0.89572000  1
  C  2348  1  0.56028300  0.06632380  0.83633600  1
  C  2349  1  0.55614100  0.99509300  0.83732500  1
  C  2350  1  0.56625400  0.06657480  0.81650900  1
  C  2351  1  0.57115000  0.08416780  0.80701300  1
  C  2352  1  0.57023900  0.10224900  0.81699100  1
  C  2353  1  0.56402100  0.10209700  0.83668700  1
  C  2354  1  0.55909400  0.08452880  0.84612100  1
  C  2355  1  0.53713000  0.04964080  0.90559000  1
  C  2356  1  0.53072700  0.04966380  0.92514400  1
  C  2357  1  0.52860600  0.03199180  0.93566000  1
  C  2358  1  0.53304900  0.01433780  0.92591800  1
  C  2359  1  0.53936300  0.01433780  0.90638100  1
  C  2360  1  0.55636900  0.97755200  0.84832600  1
  C  2361  1  0.55757900  0.95921700  0.83917300  1
  C  2362  1  0.55828600  0.95767800  0.81859100  1
  C  2363  1  0.55843700  0.97512000  0.80752000  1
  C  2364  1  0.55739500  0.99349200  0.81673500  1
  C  2375  1  0.55446100  0.01359380  0.84674900  1
  C  2377  1  0.54721700  0.03176280  0.87569200  1
  C  2379  1  0.55614700  0.04845880  0.84631400  1
  C  2382  1  0.55907700  0.93945100  0.80955600  1
  C  2384  1  0.57612300  0.11974400  0.80849400  1
  C  2385  1  0.52110600  0.03140780  0.95458100  1
  C  2389  1  0.27863700  0.53204100  0.45357800  1
  C  2390  1  0.25965700  0.56638800  0.51293600  1
  C  2391  1  0.26372900  0.49515000  0.51189500  1
  C  2392  1  0.25368000  0.56663200  0.53276200  1
  C  2393  1  0.24881500  0.58422500  0.54227400  1
  C  2394  1  0.24974500  0.60231100  0.53230500  1
  C  2395  1  0.25595900  0.60216500  0.51260800  1
  C  2396  1  0.26087400  0.58459800  0.50316500  1
  C  2397  1  0.28297500  0.54971700  0.44371900  1
  C  2398  1  0.28952500  0.54973000  0.42421200  1
  C  2399  1  0.29176700  0.53204600  0.41374600  1
  C  2400  1  0.28726400  0.51439400  0.42346100  1
  C  2401  1  0.28079200  0.51440700  0.44294500  1
  C  2402  1  0.26351900  0.47762200  0.50087200  1
  C  2403  1  0.26233000  0.45927600  0.51000200  1
  C  2404  1  0.26163000  0.45771000  0.53058100  1
  C  2405  1  0.26145900  0.47513700  0.54167500  1
  C  2406  1  0.26246300  0.49352300  0.53248300  1
  C  2417  1  0.26542800  0.51366000  0.50249300  1
  C  2419  1  0.27276600  0.53184300  0.47358100  1
  C  2421  1  0.26378000  0.54852700  0.50294900  1
  C  2424  1  0.26092300  0.43946800  0.53960000  1
  C  2426  1  0.24387800  0.61980700  0.54081000  1
  C  2427  1  0.29950800  0.53148300  0.39493100  1
  C  2431  1  0.77859400  0.75891100  0.39568900  1
  C  2432  1  0.75983900  0.72448900  0.33630500  1
  C  2433  1  0.76386100  0.79572000  0.33726300  1
  C  2434  1  0.75388700  0.72422600  0.31647100  1
  C  2435  1  0.74900700  0.70662700  0.30697900  1
  C  2436  1  0.74990800  0.68855200  0.31697000  1
  C  2437  1  0.75611300  0.68871700  0.33667000  1
  C  2438  1  0.76102900  0.70629000  0.34609800  1
  C  2439  1  0.78278900  0.74124100  0.40561700  1
  C  2440  1  0.78912500  0.74123600  0.42519400  1
  C  2441  1  0.79131300  0.75892900  0.43566300  1
  C  2442  1  0.78699100  0.77657700  0.42586100  1
  C  2443  1  0.78072700  0.77655700  0.40630900  1
  C  2444  1  0.76347300  0.81325900  0.34826400  1
  C  2445  1  0.76218900  0.83158500  0.33910500  1
  C  2446  1  0.76159100  0.83312300  0.31851900  1
  C  2447  1  0.76161900  0.81567900  0.30744600  1
  C  2448  1  0.76270600  0.79731300  0.31666700  1
  C  2459  1  0.76558200  0.77722900  0.34669600  1
  C  2461  1  0.77283500  0.75908800  0.37565200  1
  C  2463  1  0.76395300  0.74236200  0.34627700  1
  C  2466  1  0.76069300  0.85137000  0.30949900  1
  C  2468  1  0.74402600  0.67105300  0.30847900  1
  C  2469  1  0.79868300  0.75956400  0.45463000  1
  C  2473  1  0.93896200  0.02671880  0.28812000  1
  C  2474  1  0.99828400  0.04568980  0.25370600  1
  C  2475  1  0.99735400  0.04158480  0.32493700  1
  C  2476  1  0.01811290  0.05165780  0.25344600  1
  C  2477  1  0.02760390  0.05654780  0.23584900  1
  C  2478  1  0.01761490  0.05563880  0.21777400  1
  C  2479  1  0.99791700  0.04942880  0.21793600  1
  C  2480  1  0.98849200  0.04449780  0.23550700  1
  C  2481  1  0.92908900  0.02237080  0.27045500  1
  C  2482  1  0.90956100  0.01588580  0.27045600  1
  C  2483  1  0.89908000  0.01372880  0.28814300  1
  C  2484  1  0.90881800  0.01822280  0.30578600  1
  C  2485  1  0.92832700  0.02461880  0.30575900  1
  C  2486  1  0.98638300  0.04167980  0.34249900  1
  C  2487  1  0.99556000  0.04294180  0.36082100  1
  C  2488  1  0.01613590  0.04382980  0.36231700  1
  C  2489  1  0.02717590  0.04409280  0.34486000  1
  C  2490  1  0.01793690  0.04300880  0.32650300  1
  C  2501  1  0.98791200  0.03988080  0.30644400  1
  C  2503  1  0.95897200  0.03256580  0.28829900  1
  C  2505  1  0.98831700  0.04154980  0.27157700  1
  C  2508  1  0.02518090  0.04470680  0.38052900  1
  C  2510  1  0.02610590  0.06152780  0.20027700  1
  C  2511  1  0.88021200  0.00610281  0.28872900  1
  C  2515  1  0.88112600  0.52679300  0.06115290  1
  C  2516  1  0.82175700  0.54568600  0.09551390  1
  C  2517  1  0.82275300  0.54157400  0.02428090  1
  C  2518  1  0.80193200  0.55166400  0.09576490  1
  C  2519  1  0.79243500  0.55655300  0.11335900  1
  C  2520  1  0.80241100  0.55562700  0.13144200  1
  C  2521  1  0.82210400  0.54940200  0.13128800  1
  C  2522  1  0.83153800  0.54448200  0.11371900  1
  C  2523  1  0.89096200  0.52239100  0.07882490  1
  C  2524  1  0.91049600  0.51592300  0.07884390  1
  C  2525  1  0.92102700  0.51384500  0.06117490  1
  C  2526  1  0.91132000  0.51839500  0.04352790  1
  C  2527  1  0.89180300  0.52477100  0.04353090  1
  C  2528  1  0.83375400  0.54180100  0.00673894  1
  C  2529  1  0.82460200  0.54301300  0.98840400  1
  C  2530  1  0.80402000  0.54372600  0.98686500  1
  C  2531  1  0.79294900  0.54388100  0.00430794  1
  C  2532  1  0.80216300  0.54283800  0.02267890  1
  C  2543  1  0.83217500  0.53988600  0.04278290  1
  C  2545  1  0.86110700  0.53260800  0.06095090  1
  C  2547  1  0.83173500  0.54155400  0.07764790  1
  C  2550  1  0.79498500  0.54451600  0.96863800  1
  C  2552  1  0.79391300  0.56150000  0.14894000  1
  C  2553  1  0.93989800  0.50622200  0.06061390  1
  C  2557  1  0.43894900  0.26403300  0.56122700  1
  C  2558  1  0.49830800  0.24505500  0.59557400  1
  C  2559  1  0.49726700  0.24912400  0.52433600  1
  C  2560  1  0.51813400  0.23908000  0.59582000  1
  C  2561  1  0.52764600  0.23421600  0.61341400  1
  C  2562  1  0.51767600  0.23514600  0.63149900  1
  C  2563  1  0.49797900  0.24136000  0.63135000  1
  C  2564  1  0.48853600  0.24627300  0.61378500  1
  C  2565  1  0.42909000  0.26836900  0.57890300  1
  C  2566  1  0.40958200  0.27491700  0.57891700  1
  C  2567  1  0.39911600  0.27715800  0.56123300  1
  C  2568  1  0.40883200  0.27265800  0.54358100  1
  C  2569  1  0.42831600  0.26618900  0.54359300  1
  C  2570  1  0.48624400  0.24891400  0.50680800  1
  C  2571  1  0.49537400  0.24772200  0.48846200  1
  C  2572  1  0.51595300  0.24702100  0.48689600  1
  C  2573  1  0.52704700  0.24685000  0.50432400  1
  C  2574  1  0.51785500  0.24785500  0.52271000  1
  C  2585  1  0.48786500  0.25082500  0.54284600  1
  C  2587  1  0.45895300  0.25816300  0.56102900  1
  C  2589  1  0.48832100  0.24917900  0.57771200  1
  C  2592  1  0.52497200  0.24631100  0.46865400  1
  C  2594  1  0.52618200  0.22928100  0.64899600  1
  C  2595  1  0.38030000  0.28489800  0.56067000  1
  C  2599  1  0.38109900  0.76399800  0.78814100  1
  C  2600  1  0.32171100  0.74524300  0.75372300  1
  C  2601  1  0.32267800  0.74926100  0.82495400  1
  C  2602  1  0.30187600  0.73929500  0.75346300  1
  C  2603  1  0.29238200  0.73441200  0.73586500  1
  C  2604  1  0.30237100  0.73531100  0.71779000  1
  C  2605  1  0.32207100  0.74151400  0.71795100  1
  C  2606  1  0.33150300  0.74643000  0.73552200  1
  C  2607  1  0.39102500  0.76819300  0.77046900  1
  C  2608  1  0.41060300  0.77452900  0.77046100  1
  C  2609  1  0.42107300  0.77671900  0.78815400  1
  C  2610  1  0.41127200  0.77239800  0.80580400  1
  C  2611  1  0.39171900  0.76613200  0.80578300  1
  C  2612  1  0.33367900  0.74887500  0.84249100  1
  C  2613  1  0.32452100  0.74758800  0.86081900  1
  C  2614  1  0.30393500  0.74698700  0.86235800  1
  C  2615  1  0.29286200  0.74701300  0.84491400  1
  C  2616  1  0.30208000  0.74810300  0.82654700  1
  C  2627  1  0.33210700  0.75098400  0.80646100  1
  C  2629  1  0.36106200  0.75823900  0.78831900  1
  C  2631  1  0.33168500  0.74935700  0.77159500  1
  C  2634  1  0.29491700  0.74608600  0.88060600  1
  C  2636  1  0.29387900  0.72942400  0.70029200  1
  C  2637  1  0.44003900  0.78409100  0.78878800  1
  N  31  1  0.29867100  0.30485900  0.32508700  1
  N  33  1  0.32510300  0.29867800  0.30483600  1
  N  35  1  0.30485500  0.32511500  0.29865800  1
  N  37  1  0.22833500  0.36639500  0.33509500  1
  N  38  1  0.33509800  0.22833100  0.36636100  1
  N  39  1  0.36638700  0.33511600  0.22831800  1
  N  70  1  0.20345400  0.69722400  0.82501400  1
  N  72  1  0.17701000  0.70338000  0.80476800  1
  N  74  1  0.19726800  0.67694900  0.79860000  1
  N  76  1  0.27380000  0.63571200  0.83506600  1
  N  77  1  0.16701600  0.77375100  0.86627300  1
  N  78  1  0.13572400  0.66687100  0.72828500  1
  N  109  1  0.70338200  0.80480000  0.17702100  1
  N  111  1  0.67695100  0.79863200  0.19728100  1
  N  113  1  0.69722700  0.82504400  0.20346700  1
  N  115  1  0.77375100  0.86630400  0.16702300  1
  N  116  1  0.66687500  0.72831900  0.13573300  1
  N  117  1  0.63572300  0.83508600  0.27382400  1
  N  148  1  0.79861500  0.19727100  0.67697700  1
  N  150  1  0.82503100  0.20345100  0.69725000  1
  N  152  1  0.80478300  0.17701000  0.70340800  1
  N  154  1  0.72829800  0.13573100  0.66689000  1
  N  155  1  0.83508300  0.27379800  0.63573800  1
  N  156  1  0.86629200  0.16700400  0.77377100  1
  N  187  1  0.70341400  0.69722500  0.67700000  1
  N  189  1  0.67698100  0.70340800  0.69725300  1
  N  191  1  0.69723400  0.67697500  0.70343600  1
  N  193  1  0.77375400  0.63569600  0.66699100  1
  N  194  1  0.66697600  0.77374200  0.63571600  1
  N  195  1  0.63570700  0.66698200  0.77378300  1
  N  226  1  0.79862800  0.30487000  0.17706100  1
  N  228  1  0.82506500  0.29871000  0.19731500  1
  N  230  1  0.80480500  0.32514300  0.20347900  1
  N  232  1  0.72827900  0.36637600  0.16699300  1
  N  233  1  0.83507100  0.22834100  0.13581000  1
  N  234  1  0.86633400  0.33521700  0.27381000  1
  N  265  1  0.29869600  0.19729400  0.82505200  1
  N  267  1  0.32512800  0.20346000  0.80479200  1
  N  269  1  0.30485400  0.17704500  0.79861000  1
  N  271  1  0.22832600  0.13579000  0.83505100  1
  N  272  1  0.33520800  0.27378100  0.86633000  1
  N  273  1  0.36636800  0.16699100  0.72826500  1
  N  304  1  0.20346400  0.80482200  0.32511500  1
  N  306  1  0.17704900  0.79864000  0.30484200  1
  N  308  1  0.19729400  0.82508400  0.29868500  1
  N  310  1  0.27378400  0.86636200  0.33519500  1
  N  311  1  0.16700600  0.72828200  0.36634400  1
  N  312  1  0.13578700  0.83508500  0.22831900  1
  N  342  1  0.12028600  0.44222200  0.36184200  1
  N  344  1  0.15403400  0.44189900  0.36025900  1
  N  346  1  0.13642800  0.41374200  0.35316500  1
  N  384  1  0.38178500  0.55979100  0.86183600  1
  N  386  1  0.34803900  0.56015500  0.86024100  1
  N  388  1  0.36567500  0.58830500  0.85319300  1
  N  426  1  0.88171300  0.94227400  0.14031600  1
  N  428  1  0.84796900  0.94189600  0.14189300  1
  N  430  1  0.86561900  0.91376500  0.14899400  1
  N  468  1  0.62026900  0.05984300  0.64022400  1
  N  470  1  0.65401800  0.06018400  0.64178300  1
  N  472  1  0.63640800  0.08835900  0.64880200  1
  N  510  1  0.36186000  0.12030000  0.44220900  1
  N  512  1  0.36027300  0.15404900  0.44187700  1
  N  514  1  0.35317800  0.13643600  0.41372600  1
  N  552  1  0.86184000  0.38178100  0.55981000  1
  N  554  1  0.86025100  0.34803300  0.56017500  1
  N  556  1  0.85319800  0.36567200  0.58832400  1
  N  594  1  0.14031600  0.88170700  0.94225400  1
  N  596  1  0.14188600  0.84796300  0.94187300  1
  N  598  1  0.14899500  0.86561400  0.91374400  1
  N  636  1  0.64021200  0.62026600  0.05988300  1
  N  638  1  0.64176300  0.65401600  0.06020700  1
  N  640  1  0.64881500  0.63642200  0.08838100  1
  N  678  1  0.44221800  0.36183500  0.12026400  1
  N  680  1  0.44189600  0.36025700  0.15401200  1
  N  682  1  0.41373700  0.35316500  0.13641000  1
  N  720  1  0.55979700  0.86185300  0.38180600  1
  N  722  1  0.56015700  0.86024900  0.34806000  1
  N  724  1  0.58831600  0.85323000  0.36569500  1
  N  762  1  0.94227000  0.14031500  0.88173300  1
  N  764  1  0.94189000  0.14188400  0.84798900  1
  N  766  1  0.91376000  0.14899200  0.86563900  1
  N  804  1  0.05984900  0.64021300  0.62024500  1
  N  806  1  0.06018500  0.64176400  0.65399600  1
  N  808  1  0.08835600  0.64880500  0.63639200  1
  N  846  1  0.88179000  0.55985700  0.64022900  1
  N  848  1  0.84804300  0.56018400  0.64182000  1
  N  850  1  0.86565200  0.58833800  0.64891000  1
  N  888  1  0.62029100  0.44229200  0.14022400  1
  N  890  1  0.65403500  0.44193900  0.14184600  1
  N  892  1  0.63640600  0.41376800  0.14882300  1
  N  930  1  0.12037200  0.05981500  0.86177400  1
  N  932  1  0.15411600  0.06019400  0.86019500  1
  N  934  1  0.13646500  0.08832400  0.85309400  1
  N  972  1  0.38182000  0.94223200  0.36187100  1
  N  974  1  0.34807100  0.94189900  0.36031300  1
  N  976  1  0.36567500  0.91372500  0.35327900  1
  N  1014  1  0.64024100  0.88178900  0.55988100  1
  N  1016  1  0.64182100  0.84804200  0.56020700  1
  N  1018  1  0.64891900  0.86564800  0.58836300  1
  N  1056  1  0.14023300  0.62030400  0.44227000  1
  N  1058  1  0.14183900  0.65404800  0.44191000  1
  N  1060  1  0.14885600  0.63641300  0.41375100  1
  N  1098  1  0.86176800  0.12038000  0.05983500  1
  N  1100  1  0.86020000  0.15412500  0.06021500  1
  N  1102  1  0.85309100  0.13647500  0.08834500  1
  N  1140  1  0.36185800  0.38181300  0.94222000  1
  N  1142  1  0.36030400  0.34806400  0.94187700  1
  N  1144  1  0.35328000  0.36567300  0.91370300  1
  N  1182  1  0.55985700  0.64021500  0.88181100  1
  N  1184  1  0.56018800  0.64180500  0.84806400  1
  N  1186  1  0.58834100  0.64889500  0.86567700  1
  N  1224  1  0.44229700  0.14024700  0.62027900  1
  N  1226  1  0.44193200  0.14183400  0.65402500  1
  N  1228  1  0.41378300  0.14888700  0.63638800  1
  N  1266  1  0.05981300  0.86177100  0.12035400  1
  N  1268  1  0.06019300  0.86020300  0.15409800  1
  N  1270  1  0.08832300  0.85309400  0.13644900  1
  N  1308  1  0.94223900  0.36186700  0.38183200  1
  N  1310  1  0.94189200  0.36031600  0.34808300  1
  N  1312  1  0.91372100  0.35329000  0.36569500  1
  N  1351  1  0.70764100  0.69922300  0.74866300  1
  N  1353  1  0.73407300  0.69304200  0.72841200  1
  N  1355  1  0.71382500  0.71947900  0.72223400  1
  N  1357  1  0.63730500  0.76075900  0.75867100  1
  N  1358  1  0.74406800  0.62269500  0.78993700  1
  N  1359  1  0.77535700  0.72948000  0.65189400  1
  N  1390  1  0.61242400  0.09158780  0.24859000  1
  N  1392  1  0.58598000  0.09774380  0.22834400  1
  N  1394  1  0.60623800  0.07131280  0.22217600  1
  N  1396  1  0.68277000  0.03007580  0.25864200  1
  N  1397  1  0.57598600  0.16811500  0.28984900  1
  N  1398  1  0.54469400  0.06123480  0.15186100  1
  N  1429  1  0.11235200  0.19916400  0.60059700  1
  N  1431  1  0.08592090  0.19299600  0.62085700  1
  N  1433  1  0.10619700  0.21940800  0.62704300  1
  N  1435  1  0.18272100  0.26066800  0.59059900  1
  N  1436  1  0.07584490  0.12268300  0.55930900  1
  N  1437  1  0.04469290  0.22945000  0.69740000  1
  N  1468  1  0.20758500  0.59163500  0.10055300  1
  N  1470  1  0.23400100  0.59781500  0.12082600  1
  N  1472  1  0.21375300  0.57137400  0.12698400  1
  N  1474  1  0.13726800  0.53009500  0.09046590  1
  N  1475  1  0.24405300  0.66816200  0.05931390  1
  N  1476  1  0.27526200  0.56136800  0.19734700  1
  N  1507  1  0.11238400  0.09158880  0.10057600  1
  N  1509  1  0.08595090  0.09777180  0.12082900  1
  N  1511  1  0.10620400  0.07133880  0.12701200  1
  N  1513  1  0.18272400  0.03005980  0.09056690  1
  N  1514  1  0.07594590  0.16810600  0.05929190  1
  N  1515  1  0.04467690  0.06134580  0.19735900  1
  N  1546  1  0.20759800  0.69923400  0.60063700  1
  N  1548  1  0.23403500  0.69307400  0.62089100  1
  N  1550  1  0.21377500  0.71950700  0.62705500  1
  N  1552  1  0.13724900  0.76074000  0.59056900  1
  N  1553  1  0.24404100  0.62270500  0.55938600  1
  N  1554  1  0.27530400  0.72958100  0.69738600  1
  N  1585  1  0.70766600  0.59165800  0.24862800  1
  N  1587  1  0.73409800  0.59782400  0.22836800  1
  N  1589  1  0.71382400  0.57140900  0.22218600  1
  N  1591  1  0.63729600  0.53015400  0.25862700  1
  N  1592  1  0.74417800  0.66814500  0.28990600  1
  N  1593  1  0.77533800  0.56135500  0.15184100  1
  N  1624  1  0.61243400  0.19918600  0.74869100  1
  N  1626  1  0.58601900  0.19300400  0.72841800  1
  N  1628  1  0.60626400  0.21944800  0.72226100  1
  N  1630  1  0.68275400  0.26072600  0.75877100  1
  N  1631  1  0.57597600  0.12264600  0.78992000  1
  N  1632  1  0.54475700  0.22944900  0.65189500  1
  N  1662  1  0.52925600  0.83658600  0.78541800  1
  N  1664  1  0.56300400  0.83626300  0.78383500  1
  N  1666  1  0.54539800  0.80810600  0.77674100  1
  N  1704  1  0.79075500  0.95415500  0.28541200  1
  N  1706  1  0.75700900  0.95451900  0.28381700  1
  N  1708  1  0.77464500  0.98266900  0.27676900  1
  N  1746  1  0.29068300  0.33663800  0.56389200  1
  N  1748  1  0.25693900  0.33626000  0.56546900  1
  N  1750  1  0.27458900  0.30812900  0.57257000  1
  N  1788  1  0.02923890  0.45420700  0.06379990  1
  N  1790  1  0.06298790  0.45454800  0.06535890  1
  N  1792  1  0.04537790  0.48272300  0.07237790  1
  N  1830  1  0.77083000  0.51466400  0.86578500  1
  N  1832  1  0.76924300  0.54841300  0.86545300  1
  N  1834  1  0.76214800  0.53080000  0.83730200  1
  N  1872  1  0.27081000  0.77614500  0.98338600  1
  N  1874  1  0.26922100  0.74239700  0.98375100  1
  N  1876  1  0.26216800  0.76003600  0.01189990  1
  N  1914  1  0.54928600  0.27607100  0.36583000  1
  N  1916  1  0.55085600  0.24232700  0.36544900  1
  N  1918  1  0.55796500  0.25997800  0.33732000  1
  N  1956  1  0.04918190  0.01462980  0.48345900  1
  N  1958  1  0.05073290  0.04837980  0.48378300  1
  N  1960  1  0.05778490  0.03078580  0.51195700  1
  N  1998  1  0.85118800  0.75619900  0.54384000  1
  N  2000  1  0.85086600  0.75462100  0.57758800  1
  N  2002  1  0.82270700  0.74752900  0.55998600  1
  N  2040  1  0.96876700  0.25621700  0.80538200  1
  N  2042  1  0.96912700  0.25461300  0.77163600  1
  N  2044  1  0.99728600  0.24759400  0.78927100  1
  N  2082  1  0.35124000  0.53467900  0.30530900  1
  N  2084  1  0.35086000  0.53624800  0.27156500  1
  N  2086  1  0.32273000  0.54335600  0.28921500  1
  N  2124  1  0.46881900  0.03457680  0.04382090  1
  N  2126  1  0.46915500  0.03612780  0.07757190  1
  N  2128  1  0.49732600  0.04316880  0.05996790  1
  N  2166  1  0.29076000  0.95422100  0.06380490  1
  N  2168  1  0.25701300  0.95454800  0.06539590  1
  N  2170  1  0.27462200  0.98270200  0.07248590  1
  N  2208  1  0.02926090  0.83665600  0.56380000  1
  N  2210  1  0.06300490  0.83630300  0.56542200  1
  N  2212  1  0.04537590  0.80813200  0.57239900  1
  N  2250  1  0.52934200  0.45417900  0.28535000  1
  N  2252  1  0.56308600  0.45455800  0.28377100  1
  N  2254  1  0.54543500  0.48268800  0.27667000  1
  N  2292  1  0.79079000  0.33659600  0.78544700  1
  N  2294  1  0.75704100  0.33626300  0.78388900  1
  N  2296  1  0.77464500  0.30808900  0.77685500  1
  N  2334  1  0.04921090  0.27615300  0.98345700  1
  N  2336  1  0.05079090  0.24240600  0.98378300  1
  N  2338  1  0.05788890  0.26001200  0.01193890  1
  N  2376  1  0.54920300  0.01466780  0.86584600  1
  N  2378  1  0.55080900  0.04841180  0.86548600  1
  N  2380  1  0.55782600  0.03077680  0.83732700  1
  N  2418  1  0.27073800  0.51474400  0.48341100  1
  N  2420  1  0.26917000  0.54848900  0.48379100  1
  N  2422  1  0.26206100  0.53083900  0.51192100  1
  N  2460  1  0.77082800  0.77617700  0.36579600  1
  N  2462  1  0.76927400  0.74242800  0.36545300  1
  N  2464  1  0.76225000  0.76003700  0.33727900  1
  N  2502  1  0.96882700  0.03457880  0.30538700  1
  N  2504  1  0.96915800  0.03616880  0.27164000  1
  N  2506  1  0.99731100  0.04325880  0.28925300  1
  N  2544  1  0.85126700  0.53461100  0.04385490  1
  N  2546  1  0.85090200  0.53619800  0.07760090  1
  N  2548  1  0.82275300  0.54325100  0.05996390  1
  N  2586  1  0.46878300  0.25613500  0.54393000  1
  N  2588  1  0.46916300  0.25456700  0.57767400  1
  N  2590  1  0.49729300  0.24745800  0.56002500  1
  N  2628  1  0.35120900  0.75623100  0.80540800  1
  N  2630  1  0.35086200  0.75468000  0.77165900  1
  N  2632  1  0.32269100  0.74765400  0.78927100  1
