# generated using pymatgen
data_H7C11(NO)2
_symmetry_space_group_name_H-M   'P 1'
_cell_length_a   24.56790000
_cell_length_b   49.73770000
_cell_length_c   49.73770000
_cell_angle_alpha   120.00000000
_cell_angle_beta   90.00000000
_cell_angle_gamma   90.00000000
_symmetry_Int_Tables_number   1
_chemical_formula_structural   H7C11(NO)2
_chemical_formula_sum   'H336 C528 N96 O96'
_cell_volume   52634.44699828
_cell_formula_units_Z   48
loop_
 _symmetry_equiv_pos_site_id
 _symmetry_equiv_pos_as_xyz
  1  'x, y, z'
loop_
 _atom_site_type_symbol
 _atom_site_label
 _atom_site_symmetry_multiplicity
 _atom_site_fract_x
 _atom_site_fract_y
 _atom_site_fract_z
 _atom_site_occupancy
  C  1  1  0.96053300  0.70589300  0.10083100  1
  C  2  1  0.97192700  0.67737900  0.09943800  1
  C  3  1  0.99031600  0.67666700  0.12597900  1
  C  4  1  0.99752000  0.70499900  0.15424100  1
  C  5  1  0.98840300  0.73382200  0.15562300  1
  C  6  1  0.96951200  0.73391900  0.12885500  1
  C  9  1  0.93115900  0.70623900  0.07650300  1
  C  10  1  0.95563700  0.69678900  0.04749800  1
  C  11  1  0.92473500  0.69467600  0.02256000  1
  C  12  1  0.86842200  0.70183200  0.02663300  1
  C  13  1  0.84312700  0.71110900  0.05562400  1
  C  14  1  0.87489300  0.71297100  0.08018500  1
  C  21  1  0.96061400  0.50742500  0.29542300  1
  C  22  1  0.97214600  0.53451700  0.32394200  1
  C  23  1  0.99043800  0.56178700  0.32464400  1
  C  24  1  0.99761400  0.56170500  0.29630400  1
  C  25  1  0.98849200  0.53426500  0.26748300  1
  C  26  1  0.96954500  0.50741600  0.26739400  1
  C  29  1  0.93120200  0.48278500  0.29512400  1
  C  30  1  0.95572300  0.46318900  0.30451100  1
  C  31  1  0.92482400  0.44036700  0.30663900  1
  C  32  1  0.86850200  0.43729900  0.29950400  1
  C  33  1  0.84319000  0.45701900  0.29023900  1
  C  34  1  0.87493800  0.47973300  0.28839500  1
  C  41  1  0.96051400  0.90049000  0.49392300  1
  C  42  1  0.97192500  0.90188400  0.46680300  1
  C  43  1  0.99032100  0.87534100  0.43955200  1
  C  44  1  0.99751300  0.84707900  0.43962300  1
  C  45  1  0.98838600  0.84569900  0.46706500  1
  C  46  1  0.96949100  0.87246700  0.49392600  1
  C  49  1  0.93113000  0.92481500  0.51859200  1
  C  50  1  0.95560000  0.95382500  0.53814600  1
  C  51  1  0.92469000  0.97875800  0.56097100  1
  C  52  1  0.86838000  0.97468000  0.56405500  1
  C  53  1  0.84309600  0.94568300  0.54434200  1
  C  54  1  0.87486800  0.92112600  0.52164200  1
  C  61  1  0.46058800  0.36994000  0.82592200  1
  C  62  1  0.47213600  0.39845900  0.82735200  1
  C  63  1  0.49043200  0.39916300  0.80078500  1
  C  64  1  0.49759000  0.37082400  0.77252200  1
  C  65  1  0.48845400  0.34200200  0.77113900  1
  C  66  1  0.46950600  0.34191300  0.79789900  1
  C  69  1  0.43117200  0.36964200  0.85026200  1
  C  70  1  0.45568400  0.37904300  0.87925100  1
  C  71  1  0.42477800  0.38117300  0.90419900  1
  C  72  1  0.36846000  0.37403000  0.90012800  1
  C  73  1  0.34315800  0.36475200  0.87113700  1
  C  74  1  0.37491200  0.36290500  0.84658100  1
  C  81  1  0.46050700  0.56846800  0.63137400  1
  C  82  1  0.47191800  0.54135100  0.60286000  1
  C  83  1  0.49030600  0.51409700  0.60214700  1
  C  84  1  0.49749200  0.51416200  0.63047800  1
  C  85  1  0.48836000  0.54160200  0.65930200  1
  C  86  1  0.46947000  0.56846600  0.65939900  1
  C  89  1  0.43112800  0.59313700  0.63171700  1
  C  90  1  0.45559400  0.61269100  0.62226000  1
  C  91  1  0.42468000  0.63551400  0.62014500  1
  C  92  1  0.36837000  0.63859700  0.62730700  1
  C  93  1  0.34308800  0.61888300  0.63659100  1
  C  94  1  0.37486200  0.59618900  0.63845600  1
  C  101  1  0.46059600  0.17539200  0.43287100  1
  C  102  1  0.47212800  0.17396300  0.45996300  1
  C  103  1  0.49042000  0.20053100  0.48723500  1
  C  104  1  0.49759600  0.22879100  0.48715700  1
  C  105  1  0.48847000  0.23017400  0.45971700  1
  C  106  1  0.46952300  0.20341500  0.43286800  1
  C  109  1  0.43118600  0.15105000  0.40823200  1
  C  110  1  0.45570800  0.12206600  0.38864100  1
  C  111  1  0.42480600  0.09711300  0.36582400  1
  C  112  1  0.36848600  0.10117900  0.36275600  1
  C  113  1  0.34317500  0.13016500  0.38247000  1
  C  114  1  0.37492200  0.15472600  0.40518000  1
  C  121  1  0.99461900  0.56742100  0.82588000  1
  C  122  1  0.98268800  0.54030000  0.82715900  1
  C  123  1  0.96417700  0.51317400  0.80053900  1
  C  124  1  0.95730600  0.51337700  0.77232800  1
  C  125  1  0.96668300  0.54090000  0.77113200  1
  C  126  1  0.98584800  0.56762300  0.79794800  1
  C  129  1  0.02266400  0.59231800  0.85073800  1
  C  130  1  0.99665500  0.61129800  0.87935500  1
  C  131  1  0.02539400  0.63464600  0.90521200  1
  C  132  1  0.08190800  0.63856100  0.90187700  1
  C  133  1  0.10901600  0.61916800  0.87336700  1
  C  134  1  0.07886600  0.59623600  0.84809700  1
  C  141  1  0.99454100  0.17543000  0.63038300  1
  C  142  1  0.98245900  0.17412800  0.60198400  1
  C  143  1  0.96403800  0.20077300  0.60149200  1
  C  144  1  0.95721200  0.22898100  0.62991800  1
  C  145  1  0.96661100  0.23017200  0.65863100  1
  C  146  1  0.98583000  0.20335900  0.65852300  1
  C  149  1  0.02263000  0.15056300  0.63038200  1
  C  150  1  0.99660600  0.12195800  0.62078000  1
  C  151  1  0.02534200  0.09610400  0.61828500  1
  C  152  1  0.08186600  0.09943500  0.62551000  1
  C  153  1  0.10897100  0.12794300  0.63461900  1
  C  154  1  0.07883400  0.15320300  0.63693400  1
  C  161  1  0.99466400  0.37091600  0.43386700  1
  C  162  1  0.98271500  0.39931500  0.46098600  1
  C  163  1  0.96419500  0.39982100  0.48810900  1
  C  164  1  0.95733000  0.37140800  0.48790900  1
  C  165  1  0.96671700  0.34268900  0.46038900  1
  C  166  1  0.98589300  0.34278100  0.43366400  1
  C  169  1  0.02271600  0.37087400  0.40897200  1
  C  170  1  0.99673200  0.38052800  0.39000200  1
  C  171  1  0.02547600  0.38302900  0.36664800  1
  C  172  1  0.08198400  0.37577200  0.36273800  1
  C  173  1  0.10907200  0.36663700  0.38212400  1
  C  174  1  0.07891600  0.36430000  0.40505100  1
  C  181  1  0.49458400  0.50842000  0.10087600  1
  C  182  1  0.48249100  0.53551200  0.09957000  1
  C  183  1  0.46406400  0.56265100  0.12621500  1
  C  184  1  0.45725000  0.56243800  0.15442500  1
  C  185  1  0.46665800  0.53492100  0.15562100  1
  C  186  1  0.48587800  0.50821400  0.12880900  1
  C  189  1  0.52267800  0.48355400  0.07601200  1
  C  190  1  0.49667200  0.46456400  0.04739700  1
  C  191  1  0.52541900  0.44120500  0.02154700  1
  C  192  1  0.58193400  0.43730200  0.02488900  1
  C  193  1  0.60902200  0.45669200  0.05340800  1
  C  194  1  0.57887300  0.47963400  0.07866700  1
  C  201  1  0.49466000  0.90043000  0.29638500  1
  C  202  1  0.48271500  0.90171100  0.32478400  1
  C  203  1  0.46420300  0.87509400  0.32529200  1
  C  204  1  0.45734000  0.84688000  0.29687900  1
  C  205  1  0.46672400  0.84567800  0.26815900  1
  C  206  1  0.48589400  0.87249500  0.26825000  1
  C  209  1  0.52270600  0.92528400  0.29634000  1
  C  210  1  0.49672100  0.95390800  0.30599600  1
  C  211  1  0.52546200  0.97976400  0.30849500  1
  C  212  1  0.58197000  0.97641500  0.30123700  1
  C  213  1  0.60906200  0.94789700  0.29210100  1
  C  214  1  0.57890600  0.92263100  0.28976300  1
  C  221  1  0.49454800  0.70491300  0.49287600  1
  C  222  1  0.48247000  0.67651600  0.46577900  1
  C  223  1  0.46405200  0.67602400  0.43864000  1
  C  224  1  0.45722200  0.70444800  0.43885900  1
  C  225  1  0.46661600  0.73316300  0.46638100  1
  C  226  1  0.48583700  0.73305400  0.49308600  1
  C  229  1  0.52263700  0.70491300  0.51774200  1
  C  230  1  0.49661600  0.69530400  0.53674000  1
  C  231  1  0.52535200  0.69281000  0.56010100  1
  C  232  1  0.58187200  0.70004000  0.56399700  1
  C  233  1  0.60897800  0.70915500  0.54460100  1
  C  234  1  0.57883600  0.71147200  0.52165700  1
  C  241  1  0.99940200  0.37224100  0.82524200  1
  C  242  1  0.98569100  0.40030600  0.82629300  1
  C  243  1  0.96170900  0.40025600  0.80048500  1
  C  244  1  0.95010500  0.37148100  0.77347000  1
  C  245  1  0.96464000  0.34305900  0.77181100  1
  C  246  1  0.99008400  0.34388300  0.79769400  1
  C  249  1  0.02800800  0.37301000  0.85030100  1
  C  250  1  0.00276000  0.38490300  0.87949500  1
  C  251  1  0.03258200  0.38935700  0.90565800  1
  C  252  1  0.08901800  0.38247700  0.90259700  1
  C  253  1  0.11483200  0.36962600  0.87314200  1
  C  254  1  0.08367200  0.36505200  0.84727000  1
  C  261  1  0.99929600  0.56543700  0.62906200  1
  C  262  1  0.98547900  0.53844900  0.60099200  1
  C  263  1  0.96153800  0.51267100  0.60103500  1
  C  264  1  0.94999900  0.51442800  0.62981500  1
  C  265  1  0.96457200  0.54118100  0.65823500  1
  C  266  1  0.99002400  0.56623800  0.65741700  1
  C  269  1  0.02794400  0.58970800  0.62827400  1
  C  270  1  0.00268600  0.60703200  0.61641100  1
  C  271  1  0.03252200  0.62873100  0.61194300  1
  C  272  1  0.08896200  0.63253500  0.61881200  1
  C  273  1  0.11476600  0.61592500  0.63166000  1
  C  274  1  0.08360800  0.59462100  0.63622400  1
  C  281  1  0.99942200  0.17608000  0.43587200  1
  C  282  1  0.98568400  0.17503200  0.46288200  1
  C  283  1  0.96168600  0.20084300  0.48863500  1
  C  284  1  0.95009400  0.22785300  0.48686500  1
  C  285  1  0.96466500  0.22951400  0.46010500  1
  C  286  1  0.99012000  0.20362600  0.43505700  1
  C  289  1  0.02802400  0.15101100  0.41158500  1
  C  290  1  0.00277200  0.12181900  0.39429400  1
  C  291  1  0.03258600  0.09565100  0.37259000  1
  C  292  1  0.08902200  0.09870600  0.36876600  1
  C  293  1  0.11484200  0.12816100  0.38536200  1
  C  294  1  0.08369000  0.15403900  0.40665500  1
  C  301  1  0.49933400  0.70359800  0.10155400  1
  C  302  1  0.48549500  0.67553100  0.10047300  1
  C  303  1  0.46154100  0.67558000  0.12629400  1
  C  304  1  0.45001400  0.70436300  0.15331500  1
  C  305  1  0.46461000  0.73278000  0.15498300  1
  C  306  1  0.49007600  0.73195500  0.12910800  1
  C  309  1  0.52798200  0.70280400  0.07649000  1
  C  310  1  0.50271600  0.69093700  0.04730400  1
  C  311  1  0.53254800  0.68645900  0.02113300  1
  C  312  1  0.58899000  0.69332300  0.02419200  1
  C  313  1  0.61479900  0.70617600  0.05364900  1
  C  314  1  0.58364800  0.71074800  0.07952200  1
  C  321  1  0.49943400  0.51040400  0.29771000  1
  C  322  1  0.48569200  0.53741700  0.32577000  1
  C  323  1  0.46169600  0.56316800  0.32571200  1
  C  324  1  0.45010200  0.56139900  0.29693100  1
  C  325  1  0.46467100  0.53463700  0.26851400  1
  C  326  1  0.49013400  0.50958900  0.26934900  1
  C  329  1  0.52803800  0.48612000  0.29849200  1
  C  330  1  0.50278600  0.46882700  0.31039000  1
  C  331  1  0.53260400  0.44712400  0.31485600  1
  C  332  1  0.58904000  0.44330300  0.30798000  1
  C  333  1  0.61485800  0.45990000  0.29512300  1
  C  334  1  0.58370400  0.48119400  0.29053900  1
  C  341  1  0.49929800  0.89976100  0.49091000  1
  C  342  1  0.48548900  0.90084300  0.46392100  1
  C  343  1  0.46153700  0.87502500  0.43814700  1
  C  344  1  0.44998200  0.84800500  0.43990600  1
  C  345  1  0.46454900  0.84633800  0.46666000  1
  C  346  1  0.49001300  0.87221000  0.49171400  1
  C  349  1  0.52794800  0.92481900  0.51518300  1
  C  350  1  0.50268800  0.95400600  0.53250700  1
  C  351  1  0.53252600  0.98017200  0.55420400  1
  C  352  1  0.58896800  0.97710800  0.55800400  1
  C  353  1  0.61477300  0.94765100  0.54139500  1
  C  354  1  0.58361500  0.92178200  0.52009300  1
  C  361  1  0.95046300  0.51123000  0.10152200  1
  C  362  1  0.96429300  0.53830800  0.10061800  1
  C  363  1  0.98831700  0.56398600  0.12647700  1
  C  364  1  0.99985000  0.56207500  0.15341600  1
  C  365  1  0.98537400  0.53520100  0.15490000  1
  C  366  1  0.95983000  0.51023500  0.12896900  1
  C  369  1  0.92314800  0.48666700  0.07599500  1
  C  370  1  0.94954700  0.47010200  0.04708700  1
  C  371  1  0.92170100  0.44781900  0.02021600  1
  C  372  1  0.86528800  0.44300300  0.02274300  1
  C  373  1  0.83796300  0.45924900  0.05177900  1
  C  374  1  0.86774100  0.48073800  0.07820600  1
  C  381  1  0.95055400  0.89978100  0.29857000  1
  C  382  1  0.96449100  0.90070600  0.32655100  1
  C  383  1  0.98848400  0.87483400  0.32636700  1
  C  384  1  0.99993900  0.84788600  0.29750900  1
  C  385  1  0.98542000  0.84640000  0.26915700  1
  C  386  1  0.95987000  0.87233000  0.27012600  1
  C  389  1  0.92319200  0.92530400  0.29955000  1
  C  390  1  0.94958000  0.95421800  0.31189200  1
  C  391  1  0.92172200  0.98108400  0.31647600  1
  C  392  1  0.86530400  0.97855100  0.30913900  1
  C  393  1  0.83800000  0.94951100  0.29634800  1
  C  394  1  0.86777900  0.92309000  0.29141800  1
  C  401  1  0.95043000  0.70274800  0.49007700  1
  C  402  1  0.96428300  0.67477200  0.46299900  1
  C  403  1  0.98832100  0.67496500  0.43733000  1
  C  404  1  0.99984500  0.70382200  0.43925200  1
  C  405  1  0.98533500  0.73217500  0.46612400  1
  C  406  1  0.95978300  0.73119400  0.49108000  1
  C  409  1  0.92311100  0.70177400  0.51463300  1
  C  410  1  0.94950700  0.68942500  0.53119700  1
  C  411  1  0.92166500  0.68483700  0.55347900  1
  C  412  1  0.86524600  0.69216800  0.55828400  1
  C  413  1  0.83792100  0.70496300  0.54204300  1
  C  414  1  0.86770200  0.70991100  0.52056300  1
  C  421  1  0.45051800  0.56459400  0.82525900  1
  C  422  1  0.46447200  0.53753600  0.82617800  1
  C  423  1  0.48847400  0.51185200  0.80030400  1
  C  424  1  0.49992400  0.51377300  0.77336000  1
  C  425  1  0.48538100  0.54063600  0.77187700  1
  C  426  1  0.45982400  0.56558900  0.79780700  1
  C  429  1  0.42315200  0.58913000  0.85078400  1
  C  430  1  0.44953800  0.60569700  0.87969900  1
  C  431  1  0.42168000  0.62798000  0.90656700  1
  C  432  1  0.36526000  0.63277900  0.90403500  1
  C  433  1  0.33795700  0.61653200  0.87499300  1
  C  434  1  0.36773800  0.59504600  0.84857200  1
  C  441  1  0.45042400  0.17604600  0.62819000  1
  C  442  1  0.46428000  0.17514800  0.60021300  1
  C  443  1  0.48832000  0.20101100  0.60040600  1
  C  444  1  0.49985200  0.22794300  0.62926300  1
  C  445  1  0.48534400  0.22942300  0.65761500  1
  C  446  1  0.45978200  0.20349100  0.65663800  1
  C  449  1  0.42310400  0.15051700  0.62721600  1
  C  450  1  0.44950100  0.12160700  0.61487300  1
  C  451  1  0.42166000  0.09473800  0.61028900  1
  C  452  1  0.36524000  0.09726500  0.61762200  1
  C  453  1  0.33791600  0.12630000  0.63041000  1
  C  454  1  0.36769500  0.15272500  0.63535400  1
  C  461  1  0.45056800  0.37312000  0.43671700  1
  C  462  1  0.46449600  0.40110300  0.46377400  1
  C  463  1  0.48849900  0.40091900  0.48946000  1
  C  464  1  0.49997600  0.37206300  0.48754700  1
  C  465  1  0.48546200  0.34371100  0.46068200  1
  C  466  1  0.45990000  0.34467600  0.43572100  1
  C  469  1  0.42320200  0.37409700  0.41217300  1
  C  470  1  0.44959000  0.38643800  0.39560000  1
  C  471  1  0.42173300  0.39101700  0.37331500  1
  C  472  1  0.36531800  0.38368000  0.36851000  1
  C  473  1  0.33801200  0.37089000  0.38476100  1
  C  474  1  0.36779200  0.36596400  0.40625500  1
  C  481  1  0.01491400  0.81560200  0.21368100  1
  C  482  1  0.98902200  0.81814400  0.24032800  1
  C  483  1  0.96213300  0.79137900  0.23660500  1
  C  485  1  0.99032800  0.76210900  0.18410500  1
  C  489  1  0.02657000  0.84941000  0.19348700  1
  C  493  1  0.01492800  0.51053300  0.18569500  1
  C  494  1  0.98896500  0.53461900  0.18315000  1
  C  495  1  0.96207900  0.55765900  0.20991800  1
  C  497  1  0.99038100  0.53445600  0.23919500  1
  C  501  1  0.02667600  0.45654300  0.15188600  1
  C  505  1  0.01485600  0.78764600  0.49079900  1
  C  506  1  0.98892700  0.76100900  0.46670700  1
  C  507  1  0.96206300  0.76472600  0.44365300  1
  C  509  1  0.99030000  0.81721800  0.46687300  1
  C  513  1  0.02651400  0.80783900  0.54479900  1
  C  517  1  0.51487000  0.26021200  0.71308300  1
  C  518  1  0.48892600  0.25767100  0.68645100  1
  C  519  1  0.46205600  0.28444200  0.69017500  1
  C  521  1  0.49034200  0.31371300  0.74265700  1
  C  525  1  0.52658200  0.22639600  0.73326000  1
  C  529  1  0.51485400  0.56532500  0.74108500  1
  C  530  1  0.48897600  0.54121400  0.74362300  1
  C  531  1  0.46209800  0.51816800  0.71685500  1
  C  533  1  0.49028200  0.54140600  0.68759000  1
  C  537  1  0.52648400  0.61932700  0.77489600  1
  C  541  1  0.51495200  0.28823000  0.43599000  1
  C  542  1  0.48908900  0.31488100  0.46010500  1
  C  543  1  0.46217200  0.31115100  0.48313600  1
  C  545  1  0.49038400  0.25865500  0.45991100  1
  C  549  1  0.52663400  0.26804500  0.38199300  1
  C  553  1  0.93699000  0.56535100  0.71396500  1
  C  554  1  0.96205100  0.54135800  0.68689400  1
  C  555  1  0.98969300  0.51816400  0.69004200  1
  C  557  1  0.96371600  0.54105000  0.74285300  1
  C  561  1  0.92500300  0.61942500  0.73472300  1
  C  565  1  0.93701100  0.28734000  0.74025900  1
  C  566  1  0.96214500  0.31439300  0.74333700  1
  C  567  1  0.98978000  0.31124000  0.71699200  1
  C  569  1  0.96369600  0.25844900  0.68706400  1
  C  573  1  0.92493400  0.26660300  0.77358300  1
  C  577  1  0.93706700  0.26106400  0.43593000  1
  C  578  1  0.96216100  0.25798800  0.45991400  1
  C  579  1  0.98977100  0.28433600  0.48311900  1
  C  581  1  0.96376500  0.31425800  0.46023600  1
  C  585  1  0.92508900  0.22774400  0.38185900  1
  C  589  1  0.43707000  0.51045900  0.21279000  1
  C  590  1  0.46218400  0.53444100  0.23984600  1
  C  591  1  0.48980600  0.55763800  0.23669300  1
  C  593  1  0.46374300  0.53476700  0.18389900  1
  C  597  1  0.42503400  0.45639600  0.19205600  1
  C  601  1  0.43704600  0.78851100  0.18653900  1
  C  602  1  0.46209400  0.76144000  0.18346400  1
  C  603  1  0.48972000  0.76458500  0.20980800  1
  C  605  1  0.46376000  0.81739800  0.23973100  1
  C  609  1  0.42508700  0.80926900  0.15322000  1
  C  613  1  0.43696800  0.81478700  0.49084300  1
  C  614  1  0.46200100  0.81785900  0.46684000  1
  C  615  1  0.48967600  0.79152300  0.44365900  1
  C  617  1  0.46367800  0.76159500  0.46653600  1
  C  621  1  0.42495600  0.84811000  0.54491100  1
  C  625  1  0.70099900  0.72876800  0.04665500  1
  C  626  1  0.67223100  0.71072200  0.05677400  1
  C  627  1  0.70373100  0.69488400  0.06830100  1
  C  629  1  0.78585000  0.71364200  0.05861500  1
  C  633  1  0.69373500  0.74674600  0.01029900  1
  C  637  1  0.70108900  0.43034800  0.27256100  1
  C  638  1  0.67229900  0.45850400  0.29061400  1
  C  639  1  0.70377100  0.48587500  0.30647500  1
  C  641  1  0.78591200  0.45746500  0.28770400  1
  C  645  1  0.69384800  0.37601000  0.25455200  1
  C  649  1  0.70097600  0.95463500  0.57097500  1
  C  650  1  0.67220300  0.94452200  0.54281200  1
  C  651  1  0.70369800  0.93300200  0.51544700  1
  C  653  1  0.78582100  0.94268600  0.54388500  1
  C  657  1  0.69372100  0.99097800  0.62531300  1
  C  661  1  0.20106200  0.34705900  0.88011900  1
  C  662  1  0.17226900  0.36511600  0.87002500  1
  C  663  1  0.20373700  0.38098400  0.85851900  1
  C  665  1  0.28588000  0.36220900  0.86815100  1
  C  669  1  0.19383000  0.32903400  0.91643800  1
  C  673  1  0.20096100  0.64550900  0.65426100  1
  C  674  1  0.17219600  0.61734300  0.63620800  1
  C  675  1  0.20369600  0.58998200  0.62036800  1
  C  677  1  0.28581200  0.61842400  0.63913000  1
  C  681  1  0.19370000  0.69984800  0.67225300  1
  C  685  1  0.20106700  0.12116700  0.35580400  1
  C  686  1  0.17228200  0.13127400  0.38396200  1
  C  687  1  0.20375800  0.14278800  0.41133200  1
  C  689  1  0.28589700  0.13314400  0.38291600  1
  C  693  1  0.19382200  0.08483500  0.30146800  1
  C  697  1  0.25126200  0.64633300  0.88350600  1
  C  698  1  0.28026000  0.61812900  0.87276000  1
  C  699  1  0.24882000  0.59072900  0.86111200  1
  C  701  1  0.16649800  0.61910600  0.87128100  1
  C  705  1  0.25902800  0.70036400  0.92067200  1
  C  709  1  0.25119600  0.11779100  0.65167100  1
  C  710  1  0.28021500  0.12851900  0.63420300  1
  C  711  1  0.24880000  0.14014900  0.61842700  1
  C  713  1  0.16645200  0.13002200  0.63664900  1
  C  717  1  0.25895200  0.08065500  0.66857000  1
  C  721  1  0.25132400  0.34959500  0.35496100  1
  C  722  1  0.28031600  0.36706100  0.38316700  1
  C  723  1  0.24887800  0.38281800  0.41056400  1
  C  725  1  0.16655400  0.36460700  0.38218700  1
  C  729  1  0.25909000  0.33272000  0.30092800  1
  C  733  1  0.75124000  0.42948500  0.04327100  1
  C  734  1  0.78026200  0.45767700  0.05399800  1
  C  735  1  0.74885000  0.48508500  0.06562600  1
  C  737  1  0.66650300  0.45673800  0.05549700  1
  C  741  1  0.75899100  0.37544700  0.00613900  1
  C  745  1  0.75130900  0.95801900  0.27505900  1
  C  746  1  0.78030600  0.94727600  0.29251800  1
  C  747  1  0.74886700  0.93563400  0.30827500  1
  C  749  1  0.66660533  0.94580400  0.29006900  1
  C  753  1  0.75907200  0.99518100  0.25818600  1
  C  757  1  0.75119600  0.72621400  0.57181000  1
  C  758  1  0.78022000  0.70875300  0.54361400  1
  C  759  1  0.74880900  0.69297800  0.51620800  1
  C  761  1  0.66645800  0.71118800  0.54455400  1
  C  765  1  0.75894900  0.74310500  0.62584400  1
  C  769  1  0.99027700  0.69573300  0.98506700  1
  C  770  1  0.94874200  0.68106000  0.99273700  1
  C  771  1  0.93292800  0.65103900  0.96953900  1
  C  773  1  0.99849300  0.65122800  0.93438200  1
  C  777  1  0.98295000  0.74899600  0.00339500  1
  C  781  1  0.99038500  0.40182900  0.30558300  1
  C  782  1  0.94886800  0.42418200  0.32026500  1
  C  783  1  0.93308700  0.43102200  0.35029600  1
  C  785  1  0.99860800  0.39565200  0.35008600  1
  C  789  1  0.98298200  0.36687200  0.25232700  1
  C  793  1  0.99019900  0.01626000  0.59953100  1
  C  794  1  0.94868400  0.00858500  0.57717700  1
  C  795  1  0.93288000  0.03177600  0.57034300  1
  C  797  1  0.99843600  0.06693300  0.60568800  1
  C  801  1  0.98283500  0.99795300  0.63448100  1
  C  805  1  0.49030400  0.38012400  0.94169600  1
  C  806  1  0.44880900  0.39480700  0.93401300  1
  C  807  1  0.43303800  0.42484500  0.95719500  1
  C  809  1  0.49853800  0.42463900  0.99236700  1
  C  813  1  0.48287000  0.32687400  0.92342300  1
  C  817  1  0.49020800  0.67406600  0.62119600  1
  C  818  1  0.44867000  0.65172300  0.60652800  1
  C  819  1  0.43288400  0.64487600  0.57649600  1
  C  821  1  0.49844700  0.68021500  0.57667700  1
  C  825  1  0.48284600  0.70902300  0.67445400  1
  C  829  1  0.49037200  0.05962700  0.32729100  1
  C  830  1  0.44885400  0.06730000  0.34964400  1
  C  831  1  0.43306900  0.04411000  0.35648300  1
  C  833  1  0.49859400  0.00894800  0.32111700  1
  C  837  1  0.48297600  0.07792400  0.29233200  1
  C  841  1  0.96245000  0.38825800  0.94095700  1
  C  842  1  0.00598500  0.40305800  0.93484100  1
  C  843  1  0.02033300  0.43306900  0.95868900  1
  C  845  1  0.95004900  0.43244900  0.99140900  1
  C  849  1  0.96967200  0.33492400  0.92244900  1
  C  853  1  0.96238700  0.66511900  0.61302900  1
  C  854  1  0.00591800  0.64420000  0.59823000  1
  C  855  1  0.02026400  0.63803400  0.56821700  1
  C  857  1  0.95000300  0.67138600  0.56884100  1
  C  861  1  0.96962700  0.69995600  0.66636000  1
  C  865  1  0.96246600  0.06034800  0.33618900  1
  C  866  1  0.00598300  0.06646900  0.35711500  1
  C  867  1  0.02032200  0.04262200  0.36328100  1
  C  869  1  0.95005900  0.00989900  0.32992900  1
  C  873  1  0.96971700  0.07884500  0.30135400  1
  C  877  1  0.46241200  0.68753800  0.98582900  1
  C  878  1  0.50594000  0.67274000  0.99195300  1
  C  879  1  0.52027200  0.64272200  0.96811200  1
  C  881  1  0.45001400  0.64334200  0.93538100  1
  C  885  1  0.46967200  0.74086600  0.00430300  1
  C  889  1  0.46248200  0.41072400  0.31375800  1
  C  890  1  0.50599800  0.43164900  0.32856400  1
  C  891  1  0.52034000  0.43781700  0.35857600  1
  C  893  1  0.45007000  0.40446700  0.35795100  1
  C  897  1  0.46973000  0.37588700  0.26042800  1
  C  901  1  0.46238800  0.01547700  0.59058800  1
  C  902  1  0.50592400  0.00935600  0.56967200  1
  C  903  1  0.52026800  0.03319900  0.56350100  1
  C  905  1  0.45000200  0.06592800  0.59684500  1
  C  909  1  0.46962400  0.99698800  0.62543000  1
  C  913  1  0.95717600  0.61786800  0.14684500  1
  C  914  1  0.99132200  0.59274700  0.12695000  1
  C  915  1  0.02423800  0.59667900  0.10584300  1
  C  917  1  0.99205000  0.64813200  0.12563900  1
  C  921  1  0.90812800  0.64093900  0.19501200  1
  C  925  1  0.95728100  0.64145600  0.38342400  1
  C  926  1  0.99137400  0.64667900  0.40856600  1
  C  927  1  0.02423400  0.62163000  0.40465700  1
  C  929  1  0.99212400  0.58997500  0.35318700  1
  C  933  1  0.90825000  0.66655000  0.36035000  1
  C  937  1  0.95722800  0.85449400  0.35988600  1
  C  938  1  0.99140700  0.87438300  0.35466900  1
  C  939  1  0.02435200  0.89546400  0.37970400  1
  C  941  1  0.99207900  0.87568400  0.41135800  1
  C  945  1  0.90812000  0.80634800  0.33478600  1
  C  949  1  0.45730000  0.45797600  0.77993500  1
  C  950  1  0.49143000  0.48310000  0.79985200  1
  C  951  1  0.52435000  0.47916000  0.82095000  1
  C  953  1  0.49214200  0.42770900  0.80114700  1
  C  957  1  0.40818200  0.43493600  0.73179600  1
  C  961  1  0.45723800  0.43443000  0.54332000  1
  C  962  1  0.49141400  0.42922000  0.51821400  1
  C  963  1  0.52434600  0.45426000  0.52217100  1
  C  965  1  0.49207200  0.48590600  0.57360900  1
  C  969  1  0.40815400  0.40931700  0.56636100  1
  C  973  1  0.45727600  0.22141300  0.56690400  1
  C  974  1  0.49136800  0.20149200  0.57212300  1
  C  975  1  0.52422400  0.18035100  0.54707000  1
  C  977  1  0.49211000  0.20017000  0.51542000  1
  C  981  1  0.40825200  0.26958400  0.59200500  1
  C  985  1  0.99487400  0.43337300  0.78009400  1
  C  986  1  0.95981000  0.42849600  0.79988100  1
  C  987  1  0.92714800  0.45379400  0.82075700  1
  C  989  1  0.96128300  0.48503400  0.80091700  1
  C  993  1  0.04479400  0.40777100  0.73223000  1
  C  997  1  0.99474500  0.22125900  0.54216600  1
  C  998  1  0.95973500  0.20144900  0.51747900  1
  C  999  1  0.92712900  0.18053600  0.52187300  1
  C  1001  1  0.96118400  0.20038800  0.57296900  1
  C  1005  1  0.04464800  0.26912600  0.56444000  1
  C  1009  1  0.99483900  0.45919700  0.56791100  1
  C  1010  1  0.95973900  0.48384400  0.57277900  1
  C  1011  1  0.92704600  0.47939900  0.54748500  1
  C  1013  1  0.96127800  0.42834100  0.51624600  1
  C  1017  1  0.04482200  0.43695900  0.59351600  1
  C  1021  1  0.49475500  0.64245600  0.14666400  1
  C  1022  1  0.45970200  0.64732300  0.12686200  1
  C  1023  1  0.42703200  0.62202600  0.10599200  1
  C  1025  1  0.46119500  0.59078200  0.12582000  1
  C  1029  1  0.54474300  0.66805000  0.19449800  1
  C  1033  1  0.49483200  0.85466700  0.38467000  1
  C  1034  1  0.45973800  0.87445300  0.40931900  1
  C  1035  1  0.42706100  0.89530500  0.40487300  1
  C  1037  1  0.46128400  0.87547900  0.35381300  1
  C  1041  1  0.54479000  0.80681700  0.36243100  1
  C  1045  1  0.49475500  0.61670000  0.35882800  1
  C  1046  1  0.45974200  0.59201100  0.35394900  1
  C  1047  1  0.42713800  0.59640600  0.37925700  1
  C  1049  1  0.46119900  0.64750200  0.41050300  1
  C  1053  1  0.54465800  0.63897300  0.33323500  1
  H  7  1  0.96241800  0.65697900  0.07970400  1
  H  16  1  0.85648300  0.71845400  0.10081400  1
  H  17  1  0.98489800  0.70358300  0.19118700  1
  H  18  1  0.81916200  0.67897000  0.99339100  1
  H  19  1  0.95890100  0.75452500  0.13024900  1
  H  20  1  0.99583500  0.69038600  0.04425500  1
  H  27  1  0.96247900  0.53521700  0.34433900  1
  H  36  1  0.85652700  0.49487400  0.28290600  1
  H  37  1  0.98494700  0.60005800  0.29770700  1
  H  38  1  0.81926700  0.42692900  0.32238300  1
  H  39  1  0.95892600  0.48819700  0.24679900  1
  H  40  1  0.99590900  0.46637200  0.31094000  1
  H  47  1  0.96242200  0.92161800  0.46613500  1
  H  56  1  0.85646300  0.90049400  0.50649800  1
  H  57  1  0.98488900  0.81013600  0.40125900  1
  H  58  1  0.81911300  0.00791800  0.57443000  1
  H  59  1  0.95886800  0.87107200  0.51313500  1
  H  60  1  0.99579400  0.95707300  0.53498600  1
  H  67  1  0.46248200  0.41885800  0.84705300  1
  H  76  1  0.35650600  0.35740700  0.82594600  1
  H  77  1  0.48491700  0.37224500  0.73558400  1
  H  78  1  0.31922100  0.39691200  0.93337100  1
  H  79  1  0.45887900  0.32131800  0.79652000  1
  H  80  1  0.49586400  0.38547700  0.88249900  1
  H  87  1  0.46242200  0.54068600  0.58245800  1
  H  96  1  0.35645600  0.58104600  0.64394500  1
  H  97  1  0.48486800  0.47579400  0.62904900  1
  H  98  1  0.31910700  0.64896400  0.60443800  1
  H  99  1  0.45885000  0.58767400  0.68000400  1
  H  100  1  0.49578500  0.60953100  0.61585200  1
  H  107  1  0.46246300  0.15426500  0.46066200  1
  H  116  1  0.35651000  0.17535700  0.42031600  1
  H  117  1  0.48494200  0.26573800  0.52551400  1
  H  118  1  0.31925000  0.06793100  0.35239400  1
  H  119  1  0.45890800  0.20479500  0.41365000  1
  H  120  1  0.49589000  0.11882200  0.39182600  1
  H  127  1  0.99158100  0.53958000  0.84693400  1
  H  136  1  0.09845000  0.58143700  0.82775700  1
  H  137  1  0.96966300  0.47506600  0.73532900  1
  H  138  1  0.12392200  0.64787400  0.93749600  1
  H  139  1  0.99629900  0.58695700  0.79674300  1
  H  140  1  0.95608900  0.60775300  0.88127900  1
  H  147  1  0.99149500  0.15438700  0.58149000  1
  H  156  1  0.09840400  0.17355100  0.64249200  1
  H  157  1  0.96960600  0.26598700  0.62862200  1
  H  158  1  0.12388200  0.06381400  0.59922100  1
  H  159  1  0.99630400  0.20455200  0.67905300  1
  H  160  1  0.95603500  0.12003400  0.61531800  1
  H  167  1  0.99160300  0.41980900  0.46170300  1
  H  176  1  0.09848600  0.35875000  0.41984600  1
  H  177  1  0.96968300  0.37272800  0.52622400  1
  H  178  1  0.12402800  0.40207700  0.35344000  1
  H  179  1  0.99635500  0.32224400  0.41433700  1
  H  180  1  0.95617100  0.38601100  0.39355000  1
  H  187  1  0.49151900  0.53626300  0.07982600  1
  H  196  1  0.59843500  0.49441600  0.09901600  1
  H  197  1  0.46964900  0.60074800  0.19142100  1
  H  198  1  0.62398400  0.42797900  0.98928100  1
  H  199  1  0.49635800  0.48887800  0.13000300  1
  H  200  1  0.45610700  0.46810700  0.04546300  1
  H  207  1  0.49160000  0.92148900  0.34527700  1
  H  216  1  0.59847900  0.90228600  0.28421100  1
  H  217  1  0.46969400  0.80988600  0.29820200  1
  H  218  1  0.62401400  0.01202000  0.32754100  1
  H  219  1  0.49635000  0.87128500  0.24771100  1
  H  220  1  0.45616000  0.95584300  0.31148100  1
  H  227  1  0.49151100  0.65602100  0.46502400  1
  H  236  1  0.59840700  0.71703100  0.50687000  1
  H  237  1  0.46960400  0.70315100  0.40055600  1
  H  238  1  0.62389600  0.67375200  0.57332700  1
  H  239  1  0.49630400  0.75358400  0.51242500  1
  H  240  1  0.45604600  0.68983900  0.53320200  1
  H  247  1  0.99640500  0.42099800  0.84536200  1
  H  256  1  0.10232000  0.35715100  0.82619400  1
  H  257  1  0.94681700  0.37255400  0.73570500  1
  H  258  1  0.13877800  0.40778600  0.93450400  1
  H  259  1  0.00339400  0.32370100  0.79628400  1
  H  260  1  0.96256800  0.39128400  0.88188500  1
  H  267  1  0.99630400  0.53680400  0.58030400  1
  H  276  1  0.10223400  0.58146100  0.64414900  1
  H  277  1  0.94675600  0.47557600  0.62871400  1
  H  278  1  0.13874600  0.63911900  0.59350200  1
  H  279  1  0.00335800  0.58500300  0.67759600  1
  H  280  1  0.96250700  0.60302400  0.61000400  1
  H  287  1  0.99638200  0.15596300  0.46451300  1
  H  296  1  0.10234200  0.17511300  0.41982100  1
  H  297  1  0.94674800  0.26562800  0.52569100  1
  H  298  1  0.13877800  0.06680000  0.36217900  1
  H  299  1  0.00344300  0.20503100  0.41628400  1
  H  300  1  0.96257700  0.11943400  0.39828600  1
  H  307  1  0.49631000  0.65484100  0.08142900  1
  H  316  1  0.60227800  0.71867600  0.10060600  1
  H  317  1  0.44673300  0.70327900  0.19107500  1
  H  318  1  0.63876300  0.66800300  0.99229800  1
  H  319  1  0.50342000  0.75213300  0.13052000  1
  H  320  1  0.46253600  0.68453300  0.04491000  1
  H  327  1  0.49639200  0.53904500  0.34646700  1
  H  336  1  0.60235700  0.49436100  0.28263300  1
  H  337  1  0.44676600  0.60022300  0.29797800  1
  H  338  1  0.63879200  0.43671500  0.33330000  1
  H  339  1  0.50345800  0.49081700  0.24917000  1
  H  340  1  0.46259100  0.47281700  0.31676700  1
  H  347  1  0.49632600  0.91988400  0.46227700  1
  H  356  1  0.60224100  0.90069900  0.50693300  1
  H  357  1  0.44672500  0.81025200  0.40105700  1
  H  358  1  0.63874800  0.00900300  0.56458700  1
  H  359  1  0.50334000  0.87079600  0.51048200  1
  H  360  1  0.46251200  0.95640500  0.52850000  1
  H  367  1  0.95398000  0.53995600  0.08150900  1
  H  376  1  0.84811100  0.49354700  0.09902900  1
  H  377  1  0.00341800  0.60066600  0.19138700  1
  H  378  1  0.82330100  0.43806500  0.98860900  1
  H  379  1  0.94691900  0.49128900  0.13017900  1
  H  380  1  0.98988800  0.47457100  0.04575900  1
  H  387  1  0.95408500  0.91978900  0.34730300  1
  H  396  1  0.84818400  0.90225300  0.28337300  1
  H  397  1  0.00347600  0.80992300  0.29814400  1
  H  398  1  0.82327300  0.01267200  0.33832200  1
  H  399  1  0.94692600  0.87111600  0.24997500  1
  H  400  1  0.98992300  0.95555300  0.31768900  1
  H  407  1  0.95398400  0.65401200  0.46134600  1
  H  416  1  0.84807400  0.71792700  0.50775600  1
  H  417  1  0.00346800  0.70322200  0.40067100  1
  H  418  1  0.82326100  0.66296200  0.56321000  1
  H  419  1  0.94685700  0.75134600  0.51002400  1
  H  420  1  0.98984900  0.68362800  0.52672800  1
  H  427  1  0.45407600  0.53586100  0.84526000  1
  H  436  1  0.34814100  0.58225800  0.82773500  1
  H  437  1  0.50349400  0.47518200  0.73538500  1
  H  438  1  0.32323000  0.63771400  0.93815400  1
  H  439  1  0.44686400  0.58452800  0.79659800  1
  H  440  1  0.48988200  0.60123900  0.88103300  1
  H  447  1  0.45397400  0.15604500  0.57945500  1
  H  456  1  0.34806800  0.17355000  0.64336800  1
  H  457  1  0.50347400  0.26592800  0.62867000  1
  H  458  1  0.32325900  0.06313100  0.58842100  1
  H  459  1  0.44685600  0.20469600  0.67678900  1
  H  460  1  0.48984600  0.12027800  0.60907700  1
  H  467  1  0.45407600  0.42185400  0.46544400  1
  H  476  1  0.34819600  0.35792000  0.41904800  1
  H  477  1  0.50352600  0.37269500  0.52614400  1
  H  478  1  0.32328400  0.41285900  0.36356700  1
  H  479  1  0.44696500  0.32452400  0.41678200  1
  H  480  1  0.48993600  0.39223500  0.40006200  1
  H  488  1  0.94014500  0.79181800  0.25426500  1
  H  490  1  0.03544800  0.83131700  0.16969200  1
  H  491  1  0.04947800  0.87011300  0.19829900  1
  H  492  1  0.98324500  0.85507200  0.19563200  1
  H  500  1  0.94009600  0.57488500  0.20948400  1
  H  502  1  0.03558600  0.45084500  0.16997800  1
  H  503  1  0.04960100  0.44066400  0.13118300  1
  H  504  1  0.98335300  0.45299900  0.14622000  1
  H  512  1  0.94006800  0.74706800  0.42643400  1
  H  514  1  0.03539400  0.83163300  0.55050100  1
  H  515  1  0.04942200  0.80302800  0.56069200  1
  H  516  1  0.98318600  0.80569500  0.54831700  1
  H  524  1  0.44008600  0.28401200  0.67251400  1
  H  526  1  0.53547700  0.24448700  0.75705200  1
  H  527  1  0.54949800  0.20569400  0.72844000  1
  H  528  1  0.48325600  0.22073400  0.73112900  1
  H  536  1  0.44011800  0.50094400  0.71729200  1
  H  538  1  0.53535200  0.62503200  0.75680500  1
  H  539  1  0.54938600  0.63522200  0.79560100  1
  H  540  1  0.48315400  0.62283400  0.78055600  1
  H  548  1  0.44021200  0.32881700  0.50036900  1
  H  550  1  0.53552800  0.24425100  0.37628900  1
  H  551  1  0.54954600  0.27286200  0.36610500  1
  H  552  1  0.48331000  0.27018300  0.37846900  1
  H  560  1  0.01122200  0.50103500  0.67203900  1
  H  562  1  0.91709900  0.62492700  0.75855200  1
  H  563  1  0.90150200  0.63543000  0.73034300  1
  H  564  1  0.96813300  0.62299000  0.73213600  1
  H  572  1  0.01129900  0.32924300  0.71785900  1
  H  574  1  0.91701000  0.24277500  0.75525700  1
  H  575  1  0.90141200  0.27099500  0.79396600  1
  H  576  1  0.96806300  0.26917300  0.77974200  1
  H  584  1  0.01130300  0.28346300  0.50024900  1
  H  586  1  0.91719200  0.24606900  0.37635300  1
  H  587  1  0.90159000  0.20735900  0.36585300  1
  H  588  1  0.96822200  0.22159100  0.37829600  1
  H  596  1  0.51131000  0.57478000  0.25469900  1
  H  598  1  0.41712200  0.45089000  0.16822600  1
  H  599  1  0.40152000  0.44040200  0.19644500  1
  H  600  1  0.46816400  0.45281800  0.19463500  1
  H  608  1  0.51124000  0.74658000  0.20893700  1
  H  610  1  0.41719000  0.83309900  0.17154600  1
  H  611  1  0.40159200  0.80489200  0.13283400  1
  H  612  1  0.46821800  0.80667600  0.14707100  1
  H  620  1  0.51117500  0.79239000  0.42651600  1
  H  622  1  0.41704400  0.82978500  0.55041500  1
  H  623  1  0.40145000  0.86849500  0.56091100  1
  H  624  1  0.46808600  0.85426200  0.54848400  1
  H  632  1  0.68592700  0.68070800  0.07515800  1
  H  634  1  0.73326200  0.75828800  0.01511000  1
  H  635  1  0.66531800  0.75966800  0.00419300  1
  H  636  1  0.69734000  0.72325000  0.99048000  1
  H  644  1  0.68592800  0.50690800  0.32061000  1
  H  646  1  0.73339600  0.36929600  0.24303400  1
  H  647  1  0.66545400  0.35697600  0.24160500  1
  H  648  1  0.69740900  0.37967600  0.27804600  1
  H  656  1  0.68589000  0.92615100  0.49441600  1
  H  658  1  0.73324900  0.98616300  0.63203800  1
  H  659  1  0.66530600  0.99708100  0.64434200  1
  H  660  1  0.69732400  0.01080300  0.62164300  1
  H  668  1  0.18589200  0.39512400  0.85163000  1
  H  670  1  0.23337800  0.31751400  0.91162700  1
  H  671  1  0.16543900  0.31608300  0.92251900  1
  H  672  1  0.19739600  0.35252500  0.93627000  1
  H  680  1  0.18589200  0.56895000  0.60618800  1
  H  682  1  0.23322400  0.70657500  0.68379800  1
  H  683  1  0.16528400  0.71887600  0.68517800  1
  H  684  1  0.19731000  0.69617600  0.64876000  1
  H  692  1  0.18591900  0.14968500  0.43236500  1
  H  694  1  0.23336800  0.08963800  0.29475100  1
  H  695  1  0.16542700  0.07874500  0.28243400  1
  H  696  1  0.19738800  0.06500700  0.30513500  1
  H  704  1  0.26671400  0.56962300  0.85377300  1
  H  706  1  0.21898800  0.70724400  0.91667200  1
  H  707  1  0.28714200  0.71952600  0.92679000  1
  H  708  1  0.25679200  0.69612200  0.94017600  1
  H  716  1  0.26672200  0.14751700  0.60468900  1
  H  718  1  0.21888700  0.08464300  0.67942200  1
  H  719  1  0.28704100  0.07455900  0.68164100  1
  H  720  1  0.25676600  0.06113900  0.64482600  1
  H  728  1  0.26676600  0.39658800  0.43166900  1
  H  730  1  0.21905000  0.32183800  0.29404800  1
  H  731  1  0.28720400  0.31967200  0.28176700  1
  H  732  1  0.25685100  0.35646400  0.30516400  1
  H  740  1  0.76677300  0.50618700  0.07299100  1
  H  742  1  0.71892900  0.36858200  0.01012700  1
  H  743  1  0.78708000  0.35628000  0.00004500  1
  H  744  1  0.75680800  0.37967400  0.98662300  1
  H  752  1  0.76675900  0.92829800  0.32204500  1
  H  754  1  0.71903100  0.99117900  0.24730500  1
  H  755  1  0.78718500  0.00129400  0.24513900  1
  H  756  1  0.75683600  0.01468800  0.28193200  1
  H  764  1  0.76673200  0.67924500  0.49510400  1
  H  766  1  0.71888400  0.75395600  0.63270900  1
  H  767  1  0.78703500  0.75617700  0.64501200  1
  H  768  1  0.75676800  0.71936100  0.62161300  1
  H  776  1  0.90374500  0.63888100  0.97365500  1
  H  778  1  0.98987600  0.74659200  0.98058400  1
  H  779  1  0.00029100  0.77106600  0.02087300  1
  H  780  1  0.93921200  0.74959400  0.00768900  1
  H  788  1  0.90386900  0.44727800  0.36244200  1
  H  790  1  0.98991800  0.34647300  0.25474000  1
  H  791  1  0.00028900  0.36226700  0.23024500  1
  H  792  1  0.93924100  0.37057400  0.25174800  1
  H  800  1  0.90370800  0.02765300  0.55406000  1
  H  802  1  0.98975500  0.02076900  0.65488500  1
  H  803  1  0.00016100  0.98048200  0.63908600  1
  H  804  1  0.93909500  0.99366100  0.63077900  1
  H  812  1  0.40383600  0.43699000  0.95307500  1
  H  814  1  0.48980000  0.32929700  0.94624100  1
  H  815  1  0.50016800  0.30478400  0.90595200  1
  H  816  1  0.43913000  0.32629900  0.91914000  1
  H  824  1  0.40371000  0.62859500  0.56433800  1
  H  826  1  0.48977100  0.72942200  0.67203700  1
  H  827  1  0.50017400  0.71363000  0.69653100  1
  H  828  1  0.43910800  0.70532400  0.67504600  1
  H  836  1  0.40385000  0.04822100  0.37274100  1
  H  838  1  0.48991200  0.05511100  0.27193400  1
  H  839  1  0.50028400  0.09539800  0.28772400  1
  H  840  1  0.43923600  0.08220500  0.29603100  1
  H  848  1  0.05078600  0.44533900  0.95570400  1
  H  850  1  0.96057800  0.33711900  0.94497100  1
  H  851  1  0.95326300  0.31284700  0.90441600  1
  H  852  1  0.01376400  0.33452700  0.91931700  1
  H  860  1  0.05074800  0.62279800  0.55595900  1
  H  862  1  0.96053300  0.72028200  0.66416000  1
  H  863  1  0.95322400  0.70400700  0.68844300  1
  H  864  1  0.01371600  0.69722000  0.66675600  1
  H  872  1  0.05076900  0.04561000  0.37854300  1
  H  874  1  0.96062700  0.05631900  0.28102700  1
  H  875  1  0.95331900  0.09687500  0.29730100  1
  H  876  1  0.01380800  0.08197600  0.30409400  1
  H  884  1  0.55075500  0.63046400  0.97109500  1
  H  886  1  0.46057200  0.73865700  0.98177300  1
  H  887  1  0.45327800  0.76295300  0.02232900  1
  H  888  1  0.51376400  0.74125600  0.00743000  1
  H  896  1  0.55078400  0.45307800  0.37085000  1
  H  898  1  0.46063800  0.35556100  0.26262800  1
  H  899  1  0.45333100  0.37183400  0.23834500  1
  H  900  1  0.51382000  0.37862500  0.26003600  1
  H  908  1  0.55075500  0.03021800  0.54826200  1
  H  910  1  0.46052800  0.01951700  0.64575400  1
  H  911  1  0.45322200  0.97896000  0.62948500  1
  H  912  1  0.51371400  0.99385900  0.62269600  1
  H  920  1  0.04872600  0.57910600  0.09039200  1
  H  922  1  0.94540000  0.64986900  0.20861500  1
  H  923  1  0.88056400  0.63384300  0.20749600  1
  H  924  1  0.88842800  0.65935700  0.19269400  1
  H  932  1  0.04867200  0.62374800  0.42224600  1
  H  934  1  0.94552900  0.67122700  0.35142400  1
  H  935  1  0.88068500  0.68613000  0.36743900  1
  H  936  1  0.88856100  0.64581200  0.34192800  1
  H  944  1  0.04888400  0.91090000  0.37758200  1
  H  946  1  0.94537200  0.79272800  0.33012000  1
  H  947  1  0.88056300  0.79387100  0.31520000  1
  H  948  1  0.88839300  0.80867600  0.35552000  1
  H  956  1  0.54885000  0.49672600  0.83639600  1
  H  958  1  0.44543000  0.42598600  0.71817300  1
  H  959  1  0.38061200  0.44204800  0.71932600  1
  H  960  1  0.38846200  0.41653100  0.73412500  1
  H  968  1  0.54887400  0.45214400  0.50461400  1
  H  970  1  0.44541000  0.40465500  0.57531300  1
  H  971  1  0.38060200  0.38972700  0.55924900  1
  H  972  1  0.38842000  0.43004500  0.58476600  1
  H  980  1  0.54866700  0.16488100  0.54918600  1
  H  982  1  0.44552800  0.28318200  0.59667900  1
  H  983  1  0.38068800  0.28207200  0.61158500  1
  H  984  1  0.38855600  0.26727000  0.57126900  1
  H  992  1  0.90205900  0.45192600  0.83613600  1
  H  994  1  0.00788800  0.40329800  0.71837800  1
  H  995  1  0.07205100  0.38799300  0.71998400  1
  H  996  1  0.06524400  0.42833600  0.73459000  1
  H  1004  1  0.90208800  0.16514000  0.50461100  1
  H  1006  1  0.00773400  0.28297400  0.57381000  1
  H  1007  1  0.07191000  0.28137600  0.55691500  1
  H  1008  1  0.06508400  0.26676600  0.58264700  1
  H  1016  1  0.90190800  0.49662800  0.54935500  1
  H  1018  1  0.00793600  0.42755400  0.59797900  1
  H  1019  1  0.07207000  0.44450500  0.61330000  1
  H  1020  1  0.06530400  0.41877100  0.57295500  1
  H  1028  1  0.40192800  0.62389800  0.09062100  1
  H  1030  1  0.50786200  0.67251900  0.20837000  1
  H  1031  1  0.57200200  0.68782800  0.20673600  1
  H  1032  1  0.56521300  0.64748400  0.19212200  1
  H  1040  1  0.40192600  0.91066900  0.42210400  1
  H  1042  1  0.50789800  0.79295500  0.35302900  1
  H  1043  1  0.57203000  0.79457600  0.36997700  1
  H  1044  1  0.56527800  0.80918500  0.34424200  1
  H  1052  1  0.40209800  0.57914200  0.37738900  1
  H  1054  1  0.50774400  0.64834500  0.32875800  1
  H  1055  1  0.57191600  0.63145000  0.31346100  1
  H  1056  1  0.56509400  0.65718000  0.35380300  1
  N  484  1  0.96351700  0.76459400  0.20908400  1
  N  486  1  0.01517400  0.78774100  0.18677400  1
  N  496  1  0.96352200  0.55693800  0.23671100  1
  N  498  1  0.01523500  0.51149900  0.21356100  1
  N  508  1  0.96347200  0.79224400  0.44438300  1
  N  510  1  0.01514200  0.81455000  0.48983700  1
  N  520  1  0.46349800  0.31123200  0.71769000  1
  N  522  1  0.51517800  0.28807700  0.73998400  1
  N  532  1  0.46348200  0.51890500  0.69006900  1
  N  534  1  0.51511700  0.56437100  0.71322300  1
  N  544  1  0.46356800  0.28363100  0.48240300  1
  N  546  1  0.51522000  0.26132300  0.43694500  1
  N  556  1  0.98971100  0.51863900  0.71744600  1
  N  558  1  0.93813700  0.56413900  0.74072700  1
  N  568  1  0.98973800  0.28384200  0.69005600  1
  N  570  1  0.93811100  0.26058400  0.71228000  1
  N  580  1  0.98976700  0.31126600  0.48264800  1
  N  582  1  0.93819200  0.28904000  0.43714500  1
  N  592  1  0.48976400  0.55717500  0.20929500  1
  N  594  1  0.43817300  0.51168000  0.18603200  1
  N  604  1  0.48974000  0.79199000  0.23673700  1
  N  606  1  0.43819000  0.81527400  0.21451400  1
  N  616  1  0.48968000  0.76459100  0.44412700  1
  N  618  1  0.43810800  0.78681200  0.48962900  1
  N  628  1  0.75872900  0.69641200  0.06848900  1
  N  630  1  0.75641700  0.72948700  0.04792900  1
  N  640  1  0.75876600  0.48456000  0.30493700  1
  N  642  1  0.75650700  0.43092500  0.27184800  1
  N  652  1  0.75869500  0.93281700  0.51678300  1
  N  654  1  0.75639400  0.95336400  0.57041700  1
  N  664  1  0.25873600  0.37944900  0.85829800  1
  N  666  1  0.25648000  0.34634900  0.87883100  1
  N  676  1  0.25869100  0.59131900  0.62189300  1
  N  678  1  0.25637900  0.64495300  0.65497800  1
  N  688  1  0.25875400  0.14300800  0.41001300  1
  N  690  1  0.25648400  0.12245700  0.35637900  1
  N  700  1  0.19383800  0.59200100  0.86098600  1
  N  702  1  0.19580400  0.64572800  0.88230400  1
  N  712  1  0.19381600  0.14030400  0.61983300  1
  N  714  1  0.19573400  0.11900600  0.65226100  1
  N  724  1  0.19389200  0.38142100  0.40929100  1
  N  726  1  0.19586100  0.34900200  0.35556600  1
  N  736  1  0.69386500  0.48383500  0.06577600  1
  N  738  1  0.69578100  0.43011000  0.04448400  1
  N  748  1  0.69388300  0.93551000  0.30688200  1
  N  750  1  0.69584600  0.95682200  0.27446500  1
  N  760  1  0.69382400  0.69437800  0.51745700  1
  N  762  1  0.69573700  0.72680100  0.57118500  1
  N  772  1  0.95809600  0.63723900  0.94162400  1
  N  774  1  0.01386200  0.68028800  0.95655600  1
  N  784  1  0.95822600  0.41688900  0.36408700  1
  N  786  1  0.01396100  0.38875400  0.32102200  1
  N  796  1  0.95804700  0.05969100  0.58445400  1
  N  798  1  0.01378600  0.04477100  0.61259500  1
  N  808  1  0.45817400  0.43864300  0.98512000  1
  N  810  1  0.51387800  0.39557000  0.97021200  1
  N  820  1  0.45805600  0.65898100  0.56268600  1
  N  822  1  0.51379600  0.68712300  0.60574400  1
  N  832  1  0.45821200  0.01618800  0.34235400  1
  N  834  1  0.51394600  0.03111400  0.31421900  1
  N  844  1  0.99233600  0.44660400  0.98575600  1
  N  846  1  0.93607100  0.40341200  0.96863500  1
  N  856  1  0.99229000  0.65157800  0.55468700  1
  N  858  1  0.93602100  0.67764800  0.59787600  1
  N  868  1  0.99233200  0.01555300  0.34974400  1
  N  870  1  0.93609200  0.03266700  0.32365800  1
  N  880  1  0.49229600  0.62918800  0.94103900  1
  N  882  1  0.43604200  0.67238200  0.95814800  1
  N  892  1  0.49234600  0.42428200  0.37211100  1
  N  894  1  0.43610600  0.39819600  0.32891000  1
  N  904  1  0.49228800  0.06027400  0.57703900  1
  N  906  1  0.43602000  0.04315600  0.60311200  1
  N  916  1  0.02382600  0.62395500  0.10572900  1
  N  918  1  0.95868900  0.64427100  0.14516300  1
  N  928  1  0.02384400  0.59423900  0.37738200  1
  N  930  1  0.95880400  0.61336700  0.35702700  1
  N  940  1  0.02390400  0.89557700  0.40709300  1
  N  942  1  0.95871000  0.85617300  0.38797000  1
  N  952  1  0.52393200  0.45188000  0.82105800  1
  N  954  1  0.45879800  0.43157400  0.78161900  1
  N  964  1  0.52389200  0.48164700  0.54945000  1
  N  966  1  0.45871200  0.46251200  0.56972700  1
  N  976  1  0.52383200  0.18023700  0.51968000  1
  N  978  1  0.45879400  0.21972300  0.53881700  1
  N  988  1  0.92865800  0.48110700  0.82074300  1
  N  990  1  0.99440800  0.46139600  0.78161800  1
  N  1000  1  0.92861500  0.18054300  0.54919800  1
  N  1002  1  0.99426800  0.21971700  0.56865500  1
  N  1012  1  0.92859500  0.45207100  0.52017000  1
  N  1014  1  0.99440800  0.43269800  0.53988900  1
  N  1024  1  0.42855200  0.59471100  0.10600200  1
  N  1026  1  0.49430400  0.61442700  0.14512600  1
  N  1036  1  0.42861200  0.89529100  0.37754600  1
  N  1038  1  0.49440500  0.85618900  0.35817000  1
  N  1048  1  0.42862800  0.62373000  0.40657600  1
  N  1050  1  0.49428300  0.64318700  0.38685900  1
  O  8  1  0.01683400  0.70452800  0.17977600  1
  O  15  1  0.83871300  0.69884100  0.00204200  1
  O  28  1  0.01690000  0.58771700  0.29677600  1
  O  35  1  0.83880900  0.41570400  0.30250800  1
  O  48  1  0.01682600  0.82154200  0.41361700  1
  O  55  1  0.83866400  0.99926600  0.58565100  1
  O  68  1  0.51687000  0.37129900  0.74698400  1
  O  75  1  0.33875800  0.37703700  0.92472600  1
  O  88  1  0.51680600  0.48815600  0.63000600  1
  O  95  1  0.33865100  0.66019000  0.62431200  1
  O  108  1  0.51688800  0.25432600  0.51316800  1
  O  115  1  0.33879200  0.07657800  0.34116600  1
  O  128  1  0.93779200  0.48749900  0.74674500  1
  O  135  1  0.11183600  0.65910700  0.92695500  1
  O  148  1  0.93772400  0.25457200  0.62962800  1
  O  155  1  0.11177200  0.07435500  0.62099000  1
  O  168  1  0.93781600  0.37170300  0.51378700  1
  O  175  1  0.11193000  0.38030700  0.34220000  1
  O  188  1  0.43776600  0.58832100  0.18001300  1
  O  195  1  0.61185100  0.41674700  0.99981400  1
  O  208  1  0.43782700  0.82129800  0.29717800  1
  O  215  1  0.61191300  0.00149100  0.30577400  1
  O  228  1  0.43772600  0.70415600  0.41297800  1
  O  235  1  0.61178100  0.69551900  0.58455600  1
  O  248  1  0.92088900  0.37114700  0.74992200  1
  O  255  1  0.11808600  0.38866700  0.92845500  1
  O  268  1  0.92081100  0.49120100  0.63013700  1
  O  275  1  0.11803600  0.65219700  0.61261400  1
  O  288  1  0.92084400  0.25139300  0.51006100  1
  O  295  1  0.11808600  0.07284400  0.34910300  1
  O  308  1  0.42080000  0.70469100  0.17686100  1
  O  315  1  0.61805900  0.68711700  0.99832900  1
  O  328  1  0.42085800  0.58459700  0.29658400  1
  O  335  1  0.61810300  0.42363900  0.31417800  1
  O  348  1  0.42078400  0.82445900  0.41668000  1
  O  355  1  0.61804200  0.00296900  0.57766700  1
  O  368  1  0.02928200  0.58516200  0.17694900  1
  O  375  1  0.83585800  0.42459900  0.99659500  1
  O  388  1  0.02934600  0.82435000  0.29707000  1
  O  395  1  0.83588300  0.00470300  0.31688100  1
  O  408  1  0.02930600  0.70427800  0.41618100  1
  O  415  1  0.83581400  0.68441500  0.57668200  1
  O  428  1  0.52935300  0.49068600  0.74982500  1
  O  435  1  0.33583600  0.65118600  0.93018700  1
  O  448  1  0.52931200  0.25147200  0.62972000  1
  O  455  1  0.33581200  0.07111400  0.60987100  1
  O  468  1  0.52939400  0.37162700  0.51064300  1
  O  475  1  0.33589400  0.39141800  0.35009800  1
  O  487  1  0.04326000  0.84016700  0.21540900  1
  O  499  1  0.04330000  0.48771600  0.16113000  1
  O  511  1  0.04319800  0.78591600  0.51363600  1
  O  523  1  0.54322900  0.23564100  0.71133500  1
  O  535  1  0.54318800  0.58816600  0.76565200  1
  O  547  1  0.54330400  0.28996900  0.41316100  1
  O  559  1  0.90803400  0.58831800  0.71280300  1
  O  571  1  0.90802500  0.28852700  0.76439100  1
  O  583  1  0.90811600  0.23693200  0.41296300  1
  O  595  1  0.40809800  0.48750900  0.21397300  1
  O  607  1  0.40810200  0.78735300  0.16240900  1
  O  619  1  0.40800600  0.83891900  0.51380200  1
  O  631  1  0.67297100  0.74652600  0.03723200  1
  O  643  1  0.67308500  0.40316400  0.25477500  1
  O  655  1  0.67295000  0.96405300  0.59815800  1
  O  667  1  0.17306000  0.32926800  0.88951400  1
  O  679  1  0.17293200  0.67269200  0.67202300  1
  O  691  1  0.17305800  0.11176600  0.32862200  1
  O  703  1  0.27908000  0.67360300  0.89310400  1
  O  715  1  0.27899000  0.10822200  0.66937100  1
  O  727  1  0.27913600  0.33192100  0.32769300  1
  O  739  1  0.77903200  0.40221400  0.03370500  1
  O  751  1  0.77912100  0.96761500  0.25738300  1
  O  763  1  0.77898800  0.74391400  0.59908200  1
  O  775  1  0.00929600  0.72460100  0.00603500  1
  O  787  1  0.00936000  0.39390900  0.27670100  1
  O  799  1  0.00920200  0.99530000  0.60744700  1
  O  811  1  0.50926600  0.35123500  0.92074600  1
  O  823  1  0.50920900  0.68198600  0.65007300  1
  O  835  1  0.50935000  0.08058700  0.31936800  1
  O  847  1  0.94452000  0.35934500  0.91935700  1
  O  859  1  0.94446700  0.67244100  0.64194700  1
  O  871  1  0.94455000  0.08194500  0.32886600  1
  O  883  1  0.44450200  0.71646100  0.00741800  1
  O  895  1  0.44456400  0.40340100  0.28484000  1
  O  907  1  0.44446800  0.99388100  0.59791200  1
  O  919  1  0.91894700  0.61434300  0.16506600  1
  O  931  1  0.91905600  0.66320400  0.38694700  1
  O  943  1  0.91899900  0.83628600  0.33813300  1
  O  955  1  0.41906200  0.46152700  0.76173500  1
  O  967  1  0.41901800  0.41266900  0.53977100  1
  O  979  1  0.41905400  0.23963600  0.58865300  1
  O  991  1  0.03291000  0.41132600  0.76215400  1
  O  1003  1  0.03278200  0.23920100  0.53806500  1
  O  1015  1  0.03287600  0.46332400  0.58996500  1
  O  1027  1  0.53279600  0.66450400  0.16458600  1
  O  1039  1  0.53285800  0.83673500  0.38879500  1
  O  1051  1  0.53278800  0.61259900  0.33678300  1
