# generated using pymatgen
data_H9C12NO
_symmetry_space_group_name_H-M   'P 1'
_cell_length_a   13.67290000
_cell_length_b   51.03500000
_cell_length_c   51.03500000
_cell_angle_alpha   90.00000000
_cell_angle_beta   90.00000000
_cell_angle_gamma   90.00000000
_symmetry_Int_Tables_number   1
_chemical_formula_structural   H9C12NO
_chemical_formula_sum   'H576 C768 N64 O64'
_cell_volume   35612.04190230
_cell_formula_units_Z   64
loop_
 _symmetry_equiv_pos_site_id
 _symmetry_equiv_pos_as_xyz
  1  'x, y, z'
loop_
 _atom_site_type_symbol
 _atom_site_label
 _atom_site_symmetry_multiplicity
 _atom_site_fract_x
 _atom_site_fract_y
 _atom_site_fract_z
 _atom_site_occupancy
  C  1  1  0.16513200  0.11162800  0.09402700  1
  C  2  1  0.05904000  0.11512100  0.10551600  1
  C  3  1  0.15391900  0.11737100  0.06340600  1
  C  4  1  0.07738400  0.09880800  0.04942500  1
  C  7  1  0.97741700  0.10116700  0.06424000  1
  C  8  1  0.98180900  0.09533900  0.09421600  1
  C  13  1  0.01915800  0.06654900  0.09678100  1
  C  14  1  0.12372100  0.06200900  0.08460300  1
  C  17  1  0.11477200  0.07007100  0.05486300  1
  C  20  1  0.19678500  0.08195500  0.09751900  1
  C  23  1  0.66591900  0.38939900  0.90723800  1
  C  24  1  0.55974000  0.38512200  0.89601200  1
  C  25  1  0.65410000  0.38501200  0.93806300  1
  C  26  1  0.57695600  0.40422800  0.95104500  1
  C  29  1  0.47708600  0.40142400  0.93627600  1
  C  30  1  0.48295900  0.40563700  0.90605000  1
  C  35  1  0.52213700  0.43402100  0.90188200  1
  C  36  1  0.62535800  0.43939800  0.91446400  1
  C  39  1  0.61424000  0.43274600  0.94449400  1
  C  42  1  0.69874200  0.41887300  0.90276200  1
  C  45  1  0.41609600  0.15701800  0.86148100  1
  C  46  1  0.31001900  0.14549000  0.86489800  1
  C  47  1  0.40450400  0.18763000  0.86714500  1
  C  48  1  0.32819100  0.20149500  0.84845600  1
  C  51  1  0.22823700  0.18666000  0.85066300  1
  C  52  1  0.23305400  0.15666100  0.84495900  1
  C  57  1  0.27111500  0.15397800  0.81625100  1
  C  58  1  0.37555100  0.16628800  0.81179500  1
  C  61  1  0.36612200  0.19603400  0.81978600  1
  C  64  1  0.44837400  0.15347400  0.83186000  1
  C  67  1  0.91457100  0.34372300  0.13917600  1
  C  68  1  0.80831700  0.35489700  0.13505300  1
  C  69  1  0.90385300  0.31294000  0.13429000  1
  C  70  1  0.82687900  0.29944700  0.15315900  1
  C  73  1  0.72668900  0.31406100  0.15027800  1
  C  74  1  0.73110000  0.34419700  0.15512700  1
  C  79  1  0.76858100  0.34772400  0.18378900  1
  C  80  1  0.87275500  0.33563600  0.18900200  1
  C  83  1  0.86353500  0.30567600  0.18181700  1
  C  86  1  0.94606000  0.34794700  0.16878100  1
  C  89  1  0.23389700  0.40266500  0.08684700  1
  C  90  1  0.30435000  0.39152700  0.10838600  1
  C  91  1  0.28447100  0.39734900  0.05918100  1
  C  92  1  0.39206300  0.40935000  0.05635500  1
  C  95  1  0.45533600  0.39718400  0.07871400  1
  C  96  1  0.41178700  0.40231200  0.10666100  1
  C  101  1  0.40266100  0.43287100  0.10995500  1
  C  102  1  0.33438800  0.44653400  0.08908800  1
  C  105  1  0.37893500  0.43962500  0.06163000  1
  C  108  1  0.23220800  0.43329800  0.09100500  1
  C  111  1  0.73766500  0.09865200  0.91366400  1
  C  112  1  0.80668900  0.10904700  0.89145400  1
  C  113  1  0.78914300  0.10533600  0.94090800  1
  C  114  1  0.89709900  0.09375100  0.94401800  1
  C  117  1  0.95907500  0.10517100  0.92104000  1
  C  118  1  0.91484500  0.09878100  0.89342200  1
  C  123  1  0.90733000  0.06802100  0.89142900  1
  C  124  1  0.84007300  0.05502600  0.91306100  1
  C  127  1  0.88525000  0.06329300  0.94011900  1
  C  130  1  0.73711700  0.06784800  0.91087800  1
  C  133  1  0.98600700  0.33667900  0.84906800  1
  C  134  1  0.05515600  0.35893600  0.85931400  1
  C  135  1  0.03800300  0.30948900  0.85560200  1
  C  136  1  0.14557600  0.30653800  0.84373000  1
  C  139  1  0.20768400  0.32954800  0.85505200  1
  C  140  1  0.16296000  0.35710600  0.84876000  1
  C  145  1  0.15423400  0.35912800  0.81804400  1
  C  146  1  0.08681800  0.33751300  0.80517000  1
  C  149  1  0.13248500  0.31046300  0.81329200  1
  C  152  1  0.98435900  0.33955500  0.81825900  1
  C  155  1  0.48606700  0.16358200  0.15294400  1
  C  156  1  0.55559100  0.14167200  0.14214800  1
  C  157  1  0.53722700  0.19103200  0.14690000  1
  C  158  1  0.64516300  0.19398800  0.15860800  1
  C  161  1  0.70755000  0.17128200  0.14680700  1
  C  162  1  0.66351300  0.14350100  0.15258800  1
  C  167  1  0.65549000  0.14086300  0.18327900  1
  C  168  1  0.58797500  0.16219200  0.19662600  1
  C  171  1  0.63298600  0.18941500  0.18898300  1
  C  174  1  0.48522800  0.16014800  0.18367300  1
  C  177  1  0.83856700  0.88946100  0.90717300  1
  C  178  1  0.94480200  0.88642400  0.89564500  1
  C  179  1  0.84993900  0.88352200  0.93775600  1
  C  180  1  0.92564000  0.90219200  0.95189300  1
  C  183  1  0.02571100  0.90020300  0.93708200  1
  C  184  1  0.02132900  0.90630500  0.90715500  1
  C  189  1  0.98309700  0.93505400  0.90485300  1
  C  190  1  0.87810100  0.93909600  0.91695600  1
  C  193  1  0.88706700  0.93083300  0.94663200  1
  C  196  1  0.80589200  0.91905700  0.90384600  1
  C  199  1  0.33840200  0.61209300  0.09424100  1
  C  200  1  0.44483200  0.61566100  0.10551300  1
  C  201  1  0.35027900  0.61681000  0.06345900  1
  C  202  1  0.42607400  0.59744800  0.05018800  1
  C  205  1  0.52621100  0.59972700  0.06490700  1
  C  206  1  0.52063400  0.59504000  0.09507000  1
  C  211  1  0.48060200  0.56662600  0.09871200  1
  C  212  1  0.37621400  0.56205700  0.08643300  1
  C  215  1  0.38679200  0.56909100  0.05647800  1
  C  218  1  0.30443000  0.58271700  0.09857900  1
  C  221  1  0.58636000  0.84370700  0.13981900  1
  C  222  1  0.69248900  0.85519300  0.13642300  1
  C  223  1  0.59763300  0.81309200  0.13409100  1
  C  224  1  0.67384000  0.79912200  0.15274100  1
  C  227  1  0.77390500  0.81390000  0.15050300  1
  C  228  1  0.76944700  0.84388900  0.15628800  1
  C  233  1  0.73157300  0.84650500  0.18502900  1
  C  234  1  0.62695900  0.83429400  0.18947000  1
  C  237  1  0.63603700  0.80455900  0.18142700  1
  C  240  1  0.55420200  0.84720200  0.16945000  1
  C  243  1  0.08804500  0.65805200  0.86204300  1
  C  244  1  0.19435800  0.64691600  0.86611700  1
  C  245  1  0.09839400  0.68883700  0.86701000  1
  C  246  1  0.17518800  0.70245900  0.84818200  1
  C  249  1  0.27550600  0.68791800  0.85109200  1
  C  250  1  0.27155700  0.65779500  0.84613200  1
  C  255  1  0.23432000  0.65436000  0.81742500  1
  C  256  1  0.12988000  0.66631300  0.81225400  1
  C  259  1  0.13863500  0.69625900  0.81951000  1
  C  262  1  0.05669100  0.65387600  0.83242600  1
  C  265  1  0.76887300  0.59895300  0.91426200  1
  C  266  1  0.69812100  0.61037300  0.89293600  1
  C  267  1  0.71911900  0.60410500  0.94206300  1
  C  268  1  0.61143400  0.59220100  0.94498600  1
  C  271  1  0.54786200  0.60463600  0.92281100  1
  C  272  1  0.59066200  0.59967600  0.89476600  1
  C  277  1  0.59921800  0.56916800  0.89129700  1
  C  278  1  0.66755900  0.55517900  0.91190900  1
  C  281  1  0.62405100  0.56191600  0.93952300  1
  C  284  1  0.76995300  0.56833500  0.90986300  1
  C  287  1  0.26499600  0.90229600  0.08777900  1
  C  288  1  0.19574600  0.89166200  0.10983100  1
  C  289  1  0.21406700  0.89577500  0.06042900  1
  C  290  1  0.10603000  0.90727900  0.05728100  1
  C  293  1  0.04384000  0.89564700  0.08012200  1
  C  294  1  0.08757800  0.90188000  0.10782200  1
  C  299  1  0.09482500  0.93261400  0.11002000  1
  C  300  1  0.16205300  0.94586400  0.08854600  1
  C  303  1  0.11735300  0.93773800  0.06138400  1
  C  306  1  0.26515600  0.93309400  0.09076800  1
  C  309  1  0.01661400  0.66418100  0.15224500  1
  C  310  1  0.94800900  0.64183600  0.14191000  1
  C  311  1  0.96413600  0.69130000  0.14571600  1
  C  312  1  0.85636100  0.69407600  0.15749300  1
  C  315  1  0.79482700  0.67098000  0.14611200  1
  C  316  1  0.84004300  0.64346800  0.15240200  1
  C  321  1  0.84857900  0.64142200  0.18312200  1
  C  322  1  0.91538300  0.66313700  0.19605900  1
  C  325  1  0.86914100  0.69011800  0.18794000  1
  C  328  1  0.01802300  0.66126300  0.18304000  1
  C  331  1  0.51655100  0.83807100  0.84827800  1
  C  332  1  0.44750100  0.86005400  0.85915300  1
  C  333  1  0.46498000  0.81067800  0.85429500  1
  C  334  1  0.35689100  0.80787800  0.84266800  1
  C  337  1  0.29499600  0.83065500  0.85453300  1
  C  338  1  0.33946100  0.85839700  0.84875800  1
  C  343  1  0.34733200  0.86106300  0.81807100  1
  C  344  1  0.41432800  0.83965800  0.80465900  1
  C  347  1  0.36882000  0.81248900  0.81228700  1
  C  350  1  0.51721900  0.84155700  0.81756000  1
  C  353  1  0.66510000  0.61164800  0.59360600  1
  C  354  1  0.55901500  0.61510100  0.60509200  1
  C  355  1  0.65435700  0.61757400  0.56300700  1
  C  356  1  0.57786200  0.59916300  0.54883700  1
  C  359  1  0.47781600  0.60158300  0.56359900  1
  C  360  1  0.48159100  0.59551800  0.59353100  1
  C  365  1  0.51827800  0.56664200  0.59589500  1
  C  366  1  0.62307500  0.56212400  0.58385600  1
  C  369  1  0.61478200  0.57035300  0.55414700  1
  C  372  1  0.69627800  0.58193000  0.59695300  1
  C  375  1  0.16558600  0.88948900  0.40759800  1
  C  376  1  0.05937500  0.88550000  0.39633800  1
  C  377  1  0.15436800  0.88463700  0.43837100  1
  C  378  1  0.07766000  0.90363000  0.45177800  1
  C  381  1  0.97756100  0.90092600  0.43710000  1
  C  382  1  0.98243500  0.90571100  0.40694800  1
  C  387  1  0.02068500  0.93428800  0.40335200  1
  C  388  1  0.12474500  0.93936300  0.41560100  1
  C  391  1  0.11495900  0.93222000  0.44555900  1
  C  394  1  0.19780400  0.91903500  0.40338400  1
  C  397  1  0.91505700  0.65674500  0.36162000  1
  C  398  1  0.80894900  0.64508200  0.36451600  1
  C  399  1  0.90286100  0.68730000  0.36752800  1
  C  400  1  0.82731700  0.70129300  0.34872500  1
  C  403  1  0.72748000  0.68636000  0.35047500  1
  C  404  1  0.73265500  0.65641800  0.34445700  1
  C  409  1  0.77180700  0.65405300  0.31580900  1
  C  410  1  0.87651700  0.66641900  0.31191700  1
  C  413  1  0.86665500  0.69608100  0.32016000  1
  C  416  1  0.94854300  0.65344300  0.33208600  1
  C  419  1  0.41309800  0.84414400  0.63903900  1
  C  420  1  0.30668400  0.85544600  0.63561600  1
  C  421  1  0.40187000  0.81341400  0.63385700  1
  C  422  1  0.32609300  0.79972700  0.65289900  1
  C  425  1  0.22584400  0.81439700  0.65058600  1
  C  426  1  0.23042900  0.84447500  0.65585300  1
  C  431  1  0.26910500  0.84755500  0.68448100  1
  C  432  1  0.37402900  0.83556300  0.68891300  1
  C  435  1  0.36478300  0.80568800  0.68139900  1
  C  438  1  0.44600200  0.84817600  0.66853700  1
  C  441  1  0.73455000  0.90269400  0.58716900  1
  C  442  1  0.80385900  0.89184400  0.60911700  1
  C  443  1  0.78629100  0.89685100  0.55976800  1
  C  444  1  0.89413600  0.90868200  0.55705700  1
  C  447  1  0.95627000  0.89681700  0.57979400  1
  C  448  1  0.91164500  0.90243900  0.60753800  1
  C  453  1  0.90297100  0.93308600  0.61032000  1
  C  454  1  0.83573900  0.94647500  0.58899300  1
  C  457  1  0.88140300  0.93903300  0.56179100  1
  C  460  1  0.73319700  0.93339600  0.59080200  1
  C  463  1  0.23812900  0.59852800  0.41335900  1
  C  464  1  0.30642100  0.60877200  0.39092000  1
  C  465  1  0.29028600  0.60550000  0.44043500  1
  C  466  1  0.39842600  0.59404100  0.44345400  1
  C  469  1  0.45966600  0.60530600  0.42025600  1
  C  470  1  0.41481000  0.59863000  0.39276900  1
  C  475  1  0.40762700  0.56783700  0.39107600  1
  C  476  1  0.34108000  0.55498300  0.41296900  1
  C  479  1  0.38692200  0.56355000  0.43985700  1
  C  482  1  0.23786700  0.56769600  0.41086900  1
  C  485  1  0.48593600  0.83688400  0.34928000  1
  C  486  1  0.55543200  0.85892000  0.35984100  1
  C  487  1  0.53700600  0.80953400  0.35567900  1
  C  488  1  0.64477600  0.80644200  0.34397200  1
  C  491  1  0.70720500  0.82926200  0.35556700  1
  C  492  1  0.66333600  0.85695000  0.34943100  1
  C  497  1  0.65534400  0.85920400  0.31873200  1
  C  498  1  0.58786100  0.83779700  0.30553700  1
  C  501  1  0.63264200  0.81060200  0.31353000  1
  C  504  1  0.48509400  0.83996800  0.31848300  1
  C  507  1  0.98579200  0.66356200  0.65272000  1
  C  508  1  0.05573300  0.64190000  0.64160800  1
  C  509  1  0.03597100  0.69117800  0.64684800  1
  C  510  1  0.14402400  0.69427800  0.65843200  1
  C  513  1  0.20680600  0.67178000  0.64634600  1
  C  514  1  0.16367600  0.64387100  0.65195400  1
  C  519  1  0.15629100  0.64101600  0.68259800  1
  C  520  1  0.08865400  0.66208400  0.69628200  1
  C  523  1  0.13254300  0.68948300  0.68881300  1
  C  526  1  0.98566100  0.65988000  0.68343600  1
  C  529  1  0.33851900  0.38945000  0.40761600  1
  C  530  1  0.44474400  0.38638900  0.39610400  1
  C  531  1  0.34940800  0.38336200  0.43818100  1
  C  532  1  0.42517300  0.40187500  0.45247900  1
  C  535  1  0.52532100  0.39979000  0.43772100  1
  C  536  1  0.52151700  0.40607600  0.40783000  1
  C  541  1  0.48398300  0.43490700  0.40567600  1
  C  542  1  0.37883400  0.43899300  0.41766200  1
  C  545  1  0.38720500  0.43060000  0.44731800  1
  C  548  1  0.30638300  0.41909400  0.40441400  1
  C  551  1  0.83856700  0.11200600  0.59384900  1
  C  552  1  0.94499600  0.11534800  0.60515900  1
  C  553  1  0.84988800  0.11716000  0.56312300  1
  C  554  1  0.92539100  0.09803600  0.54946400  1
  C  557  1  0.02569400  0.10024500  0.56411400  1
  C  558  1  0.02100900  0.09503000  0.59420200  1
  C  563  1  0.98183900  0.06645500  0.59734500  1
  C  564  1  0.87689700  0.06210700  0.58530800  1
  C  567  1  0.88633900  0.06958400  0.55543200  1
  C  570  1  0.80517900  0.08255100  0.59789100  1
  C  573  1  0.08739600  0.34397900  0.63966100  1
  C  574  1  0.19355400  0.35559900  0.63676800  1
  C  575  1  0.09929600  0.31342000  0.63370200  1
  C  576  1  0.17476400  0.29933600  0.65246900  1
  C  579  1  0.27470800  0.31421900  0.65068200  1
  C  580  1  0.26985100  0.34415400  0.65676400  1
  C  585  1  0.23086800  0.34647200  0.68544100  1
  C  586  1  0.12601300  0.33419000  0.68933000  1
  C  589  1  0.13557100  0.30453600  0.68104800  1
  C  592  1  0.05403000  0.34724000  0.66920500  1
  C  595  1  0.58940400  0.15766100  0.36218500  1
  C  596  1  0.69587600  0.14640100  0.36557200  1
  C  597  1  0.60025600  0.18839200  0.36744200  1
  C  598  1  0.67587500  0.20219800  0.34844300  1
  C  601  1  0.77625700  0.18760000  0.35078600  1
  C  602  1  0.77212100  0.15753800  0.34542300  1
  C  607  1  0.73366500  0.15453100  0.31675700  1
  C  608  1  0.62852500  0.16640300  0.31234800  1
  C  611  1  0.63733800  0.19626500  0.31992500  1
  C  614  1  0.55663200  0.15368000  0.33267300  1
  C  617  1  0.26816000  0.09894000  0.41393900  1
  C  618  1  0.19855800  0.11007400  0.39219500  1
  C  619  1  0.21720000  0.10462000  0.44147300  1
  C  620  1  0.10925600  0.09289400  0.44427300  1
  C  623  1  0.04683300  0.10501800  0.42171000  1
  C  624  1  0.09074500  0.09956000  0.39386700  1
  C  629  1  0.09890500  0.06895800  0.39089400  1
  C  630  1  0.16617700  0.05525700  0.41199000  1
  C  633  1  0.12143300  0.06253400  0.43934300  1
  C  636  1  0.26893500  0.06825100  0.41007100  1
  C  639  1  0.76455500  0.40243500  0.58807400  1
  C  640  1  0.69605400  0.39197800  0.61037700  1
  C  641  1  0.71286600  0.39561400  0.56090300  1
  C  642  1  0.60465800  0.40700300  0.55785400  1
  C  645  1  0.54322400  0.39555000  0.58092800  1
  C  646  1  0.58766100  0.40208100  0.60849000  1
  C  651  1  0.59462700  0.43285400  0.61037700  1
  C  652  1  0.66116400  0.44593500  0.58861900  1
  C  655  1  0.61570900  0.43749400  0.56164200  1
  C  658  1  0.76449900  0.43326300  0.59074700  1
  C  661  1  0.51667000  0.16397000  0.65205200  1
  C  662  1  0.44770800  0.14185000  0.64139900  1
  C  663  1  0.46513000  0.19125300  0.64566400  1
  C  664  1  0.35717000  0.19417600  0.65727800  1
  C  667  1  0.29529300  0.17127400  0.64561900  1
  C  668  1  0.33964600  0.14362600  0.65175200  1
  C  673  1  0.34744400  0.14134600  0.68245100  1
  C  674  1  0.41433500  0.16284600  0.69571000  1
  C  677  1  0.36899800  0.18997900  0.68772800  1
  C  680  1  0.51728200  0.16084000  0.68283500  1
  C  683  1  0.01689500  0.33807400  0.34850600  1
  C  684  1  0.94743100  0.35981200  0.35969000  1
  C  685  1  0.96629700  0.31051400  0.35435500  1
  C  686  1  0.85810500  0.30757100  0.34284300  1
  C  689  1  0.79581000  0.33014000  0.35498900  1
  C  690  1  0.83937100  0.35800500  0.34938900  1
  C  695  1  0.84661100  0.36088100  0.31874800  1
  C  696  1  0.91374800  0.33974100  0.30500200  1
  C  699  1  0.86939000  0.31239100  0.31245400  1
  C  702  1  0.01688200  0.34180400  0.31780100  1
  C  705  1  0.88559000  0.09949600  0.10872800  1
  C  706  1  0.87737700  0.09653000  0.13637700  1
  C  707  1  0.80207100  0.10849400  0.15059800  1
  C  708  1  0.72820400  0.12375500  0.13849300  1
  C  709  1  0.72995800  0.12342200  0.11063600  1
  C  710  1  0.80361300  0.11098700  0.09626400  1
  C  715  1  0.90433100  0.09040400  0.17672200  1
  C  717  1  0.38715000  0.40123000  0.89143900  1
  C  718  1  0.37999400  0.40321100  0.86367300  1
  C  719  1  0.30339200  0.39148200  0.84978100  1
  C  720  1  0.22789900  0.37716400  0.86231700  1
  C  721  1  0.22920800  0.37846900  0.89014700  1
  C  722  1  0.30371200  0.39090000  0.90419500  1
  C  727  1  0.40814000  0.40783700  0.82313300  1
  C  729  1  0.13679800  0.14212400  0.84900700  1
  C  730  1  0.12888400  0.11443800  0.84635200  1
  C  731  1  0.05352300  0.10032100  0.85842600  1
  C  732  1  0.97924300  0.11260000  0.87339800  1
  C  733  1  0.98029200  0.14044800  0.87252000  1
  C  734  1  0.05414500  0.15469300  0.86002500  1
  C  739  1  0.15658100  0.07403800  0.84091100  1
  C  741  1  0.63506400  0.35864600  0.15054200  1
  C  742  1  0.62683600  0.38632500  0.15326500  1
  C  743  1  0.55097500  0.40041500  0.14144200  1
  C  744  1  0.47747500  0.38819800  0.12613400  1
  C  745  1  0.48009100  0.36035600  0.12631700  1
  C  746  1  0.55358100  0.34607000  0.13892100  1
  C  751  1  0.65285700  0.42675600  0.15953300  1
  C  753  1  0.11786300  0.90245100  0.89270200  1
  C  754  1  0.12621500  0.90555600  0.86507600  1
  C  755  1  0.20144000  0.89358600  0.85081900  1
  C  756  1  0.27515500  0.87822600  0.86288000  1
  C  757  1  0.27358000  0.87855900  0.89073500  1
  C  758  1  0.19998200  0.89098800  0.90513500  1
  C  763  1  0.09931600  0.91184200  0.82476700  1
  C  765  1  0.61689400  0.59906700  0.10960000  1
  C  766  1  0.62426200  0.59690600  0.13734200  1
  C  767  1  0.70048600  0.60877200  0.15128500  1
  C  768  1  0.77560600  0.62329500  0.13880700  1
  C  769  1  0.77453100  0.62199200  0.11097700  1
  C  770  1  0.70031500  0.60947300  0.09688700  1
  C  775  1  0.59600800  0.59214200  0.17784300  1
  C  777  1  0.86581700  0.85836300  0.15219500  1
  C  778  1  0.87406300  0.88602300  0.15502500  1
  C  779  1  0.94931900  0.90017000  0.14294600  1
  C  780  1  0.02305600  0.88794900  0.12773300  1
  C  781  1  0.02174700  0.86010100  0.12839000  1
  C  782  1  0.94803900  0.84581500  0.14090900  1
  C  787  1  0.84708300  0.92640100  0.16089000  1
  C  789  1  0.36776200  0.64344600  0.85078400  1
  C  790  1  0.37645500  0.61579900  0.84787800  1
  C  791  1  0.45211000  0.60169400  0.85977200  1
  C  792  1  0.52477800  0.61386800  0.87540400  1
  C  793  1  0.52185200  0.64169800  0.87544600  1
  C  794  1  0.44862900  0.65600800  0.86274700  1
  C  799  1  0.35144100  0.57539900  0.84112200  1
  C  801  1  0.38519800  0.59977200  0.60792700  1
  C  802  1  0.37642600  0.59655700  0.63553000  1
  C  803  1  0.30141600  0.60860700  0.64978300  1
  C  804  1  0.22856600  0.62426900  0.63774200  1
  C  805  1  0.23064800  0.62421600  0.60989700  1
  C  806  1  0.30395500  0.61167600  0.59548500  1
  C  811  1  0.40221400  0.58981600  0.67583000  1
  C  813  1  0.88631100  0.90129100  0.39247700  1
  C  814  1  0.87833100  0.90371600  0.36476500  1
  C  815  1  0.80229700  0.89181500  0.35079200  1
  C  816  1  0.72828600  0.87685100  0.36320500  1
  C  817  1  0.73000300  0.87771100  0.39104300  1
  C  818  1  0.80389100  0.89030400  0.40518200  1
  C  823  1  0.90501100  0.90925400  0.32427300  1
  C  825  1  0.63615200  0.64188100  0.34813500  1
  C  826  1  0.62833500  0.61420000  0.34547800  1
  C  827  1  0.55307400  0.60006800  0.35760300  1
  C  828  1  0.47860700  0.61234800  0.37252300  1
  C  829  1  0.47912700  0.64019000  0.37140600  1
  C  830  1  0.55298000  0.65443100  0.35890200  1
  C  835  1  0.65650100  0.57382100  0.34020200  1
  C  837  1  0.13399700  0.85889800  0.65175000  1
  C  838  1  0.12583600  0.88657300  0.65448200  1
  C  839  1  0.05011000  0.90067700  0.64258000  1
  C  840  1  0.97636500  0.88845000  0.62735900  1
  C  841  1  0.97829100  0.86060300  0.62787300  1
  C  842  1  0.05184800  0.84632600  0.64046200  1
  C  847  1  0.15255400  0.92698500  0.66045800  1
  C  849  1  0.61818300  0.40210400  0.39348300  1
  C  850  1  0.62703900  0.40543500  0.36590000  1
  C  851  1  0.70203400  0.39340400  0.35161500  1
  C  852  1  0.77484100  0.37769000  0.36361900  1
  C  853  1  0.77294700  0.37775400  0.39146400  1
  C  854  1  0.69962900  0.39026700  0.40590000  1
  C  859  1  0.60122200  0.41228100  0.32563100  1
  C  861  1  0.11757000  0.09907900  0.60859200  1
  C  862  1  0.12574100  0.09647800  0.63627500  1
  C  863  1  0.20147500  0.10847600  0.65029800  1
  C  864  1  0.27517400  0.12361700  0.63794600  1
  C  865  1  0.27369200  0.12275500  0.61010800  1
  C  866  1  0.20003400  0.11010000  0.59592600  1
  C  871  1  0.09899400  0.09079400  0.67672300  1
  C  873  1  0.36644100  0.35864200  0.65304400  1
  C  874  1  0.37452500  0.38630100  0.65586300  1
  C  875  1  0.44971200  0.40046800  0.64375000  1
  C  876  1  0.52374700  0.38824500  0.62863100  1
  C  877  1  0.52300100  0.36039900  0.62953600  1
  C  878  1  0.44924900  0.34611700  0.64203900  1
  C  883  1  0.34694600  0.42666000  0.66151600  1
  C  885  1  0.86872500  0.14321600  0.34959100  1
  C  886  1  0.87733700  0.11557300  0.34667600  1
  C  887  1  0.95288700  0.10145400  0.35863000  1
  C  888  1  0.02584800  0.11363800  0.37416100  1
  C  889  1  0.02361800  0.14147800  0.37387600  1
  C  890  1  0.95029900  0.15577800  0.36120500  1
  C  895  1  0.85159500  0.07518800  0.34021100  1
  C  897  1  0.38639600  0.15841900  0.13957100  1
  C  898  1  0.31061000  0.14358600  0.15164300  1
  C  899  1  0.24438600  0.12855700  0.13703200  1
  C  900  1  0.23702500  0.12920800  0.10921700  1
  C  901  1  0.30363200  0.14696000  0.09730100  1
  C  902  1  0.37607600  0.16064200  0.11181900  1
  C  907  1  0.22871800  0.12013900  0.17806800  1
  C  909  1  0.88676000  0.34178100  0.86265200  1
  C  910  1  0.81021900  0.35607700  0.85031000  1
  C  911  1  0.74428500  0.37141200  0.86464700  1
  C  912  1  0.73757100  0.37143300  0.89249100  1
  C  913  1  0.80474400  0.35413500  0.90478600  1
  C  914  1  0.87714300  0.34020500  0.89047600  1
  C  919  1  0.72869400  0.37906500  0.82342300  1
  C  921  1  0.63791400  0.11192500  0.90841100  1
  C  922  1  0.56229100  0.09967500  0.89366800  1
  C  923  1  0.49569100  0.11415000  0.87862800  1
  C  924  1  0.48796100  0.14195900  0.87916100  1
  C  925  1  0.55454400  0.15403900  0.89680200  1
  C  926  1  0.62732300  0.13967300  0.91049200  1
  C  931  1  0.48064600  0.07306900  0.87036500  1
  C  933  1  0.13468000  0.38902700  0.09188600  1
  C  934  1  0.05807300  0.40112600  0.10638300  1
  C  935  1  0.99251700  0.38658000  0.12164100  1
  C  936  1  0.98619800  0.35873600  0.12139600  1
  C  937  1  0.05314400  0.34671500  0.10382000  1
  C  938  1  0.12506000  0.36123400  0.08991800  1
  C  943  1  0.97623300  0.42771400  0.12964500  1
  C  945  1  0.61645100  0.84302900  0.86159800  1
  C  946  1  0.69269000  0.85767900  0.84950500  1
  C  947  1  0.75954100  0.87252600  0.86410600  1
  C  948  1  0.76697900  0.87184000  0.89192100  1
  C  949  1  0.69989400  0.85421100  0.90383200  1
  C  950  1  0.62692500  0.84072000  0.88933200  1
  C  955  1  0.77505300  0.88099100  0.82307000  1
  C  957  1  0.11621100  0.65930600  0.13875900  1
  C  958  1  0.19342100  0.64531700  0.15116500  1
  C  959  1  0.26034100  0.63022400  0.13688200  1
  C  960  1  0.26716600  0.63015900  0.10904000  1
  C  961  1  0.19926500  0.64724200  0.09671100  1
  C  962  1  0.12609800  0.66093600  0.11095400  1
  C  967  1  0.27570700  0.62262300  0.17812400  1
  C  969  1  0.36475300  0.88903000  0.09304000  1
  C  970  1  0.44017400  0.90121800  0.10790300  1
  C  971  1  0.50685300  0.88667300  0.12285700  1
  C  972  1  0.51462000  0.85886500  0.12218500  1
  C  973  1  0.44821300  0.84687100  0.10443900  1
  C  974  1  0.37552700  0.86130000  0.09078300  1
  C  979  1  0.52179300  0.92771200  0.13133500  1
  C  981  1  0.86811700  0.61254600  0.90918500  1
  C  982  1  0.94443700  0.60048900  0.89454600  1
  C  983  1  0.01015600  0.61509900  0.87939200  1
  C  984  1  0.01657400  0.64294100  0.87978400  1
  C  985  1  0.94987800  0.65488300  0.89747800  1
  C  986  1  0.87804900  0.64031500  0.91135000  1
  C  991  1  0.02626800  0.57400600  0.87117000  1
  C  993  1  0.88609900  0.65829500  0.63941000  1
  C  994  1  0.81088000  0.64319700  0.65141100  1
  C  995  1  0.74457300  0.62826300  0.63671900  1
  C  996  1  0.73696300  0.62913400  0.60891700  1
  C  997  1  0.80309500  0.64708900  0.59711300  1
  C  998  1  0.87534700  0.66076600  0.61169300  1
  C  1003  1  0.72932800  0.61950200  0.67768900  1
  C  1005  1  0.38653500  0.84209600  0.36273900  1
  C  1006  1  0.31056100  0.85666400  0.35044900  1
  C  1007  1  0.24429600  0.87184800  0.36485700  1
  C  1008  1  0.23721500  0.87162900  0.39269100  1
  C  1009  1  0.30398400  0.85412900  0.40487300  1
  C  1010  1  0.37633000  0.84023800  0.39052400  1
  C  1015  1  0.22920800  0.87985400  0.32370100  1
  C  1017  1  0.13809900  0.61171100  0.40822900  1
  C  1018  1  0.06229400  0.59941400  0.39358800  1
  C  1019  1  0.99490900  0.61384700  0.37874200  1
  C  1020  1  0.98675700  0.64164700  0.37933500  1
  C  1021  1  0.05375800  0.65375500  0.39684900  1
  C  1022  1  0.12717900  0.63944700  0.41034800  1
  C  1027  1  0.98051100  0.57276700  0.37037100  1
  C  1029  1  0.63491700  0.88920900  0.59204800  1
  C  1030  1  0.55794600  0.90142600  0.60631700  1
  C  1031  1  0.49124600  0.88698500  0.62134600  1
  C  1032  1  0.48446600  0.85914900  0.62115000  1
  C  1033  1  0.55209600  0.84703200  0.60382000  1
  C  1034  1  0.62491200  0.86142600  0.59013800  1
  C  1039  1  0.47564700  0.92814900  0.62929500  1
  C  1041  1  0.11680300  0.34313700  0.36177100  1
  C  1042  1  0.19243400  0.35807400  0.34975800  1
  C  1043  1  0.25927500  0.37284400  0.36444600  1
  C  1044  1  0.26694600  0.37192700  0.39224600  1
  C  1045  1  0.20040000  0.35407400  0.40404200  1
  C  1046  1  0.12768000  0.34057600  0.38947200  1
  C  1051  1  0.27437900  0.38166900  0.32348200  1
  C  1053  1  0.61639800  0.15898300  0.63868500  1
  C  1054  1  0.69297300  0.14468000  0.65102100  1
  C  1055  1  0.76013300  0.12972800  0.63665100  1
  C  1056  1  0.76732300  0.12994100  0.60881900  1
  C  1057  1  0.69991300  0.14726300  0.59662000  1
  C  1058  1  0.62685500  0.16092100  0.61092100  1
  C  1063  1  0.77503100  0.12172800  0.67781500  1
  C  1065  1  0.86457400  0.38924800  0.59320400  1
  C  1066  1  0.94020100  0.40147700  0.60796100  1
  C  1067  1  0.00763800  0.38697300  0.62272700  1
  C  1068  1  0.01581300  0.35917300  0.62199200  1
  C  1069  1  0.94897100  0.34715600  0.60437700  1
  C  1070  1  0.87563900  0.36153000  0.59091800  1
  C  1075  1  0.02195000  0.42800800  0.63131700  1
  C  1077  1  0.36782400  0.11238400  0.40902700  1
  C  1078  1  0.44449000  0.10021500  0.39460700  1
  C  1079  1  0.51131400  0.11472100  0.37967600  1
  C  1080  1  0.51818900  0.14255600  0.38002900  1
  C  1081  1  0.45084300  0.15459100  0.39749000  1
  C  1082  1  0.37812400  0.14014300  0.41114300  1
  C  1087  1  0.52673800  0.07360600  0.37148800  1
  C  1089  1  0.16984300  0.97582000  0.09059700  1
  C  1090  1  0.14148500  0.99118800  0.11257300  1
  C  1091  1  0.13796900  0.01866400  0.11154900  1
  C  1092  1  0.15554300  0.03331900  0.08831400  1
  C  1093  1  0.19881700  0.01818900  0.06799300  1
  C  1094  1  0.20819400  0.99071000  0.06941500  1
  C  1099  1  0.10072000  0.00524000  0.15003400  1
  C  1101  1  0.67506800  0.52537200  0.90854600  1
  C  1102  1  0.63553200  0.51077500  0.88732200  1
  C  1103  1  0.62985700  0.48333900  0.88784500  1
  C  1104  1  0.65805100  0.46793100  0.90984700  1
  C  1105  1  0.71294500  0.48228400  0.92868600  1
  C  1106  1  0.72191400  0.50982600  0.92794100  1
  C  1111  1  0.57489300  0.49815200  0.85129900  1
  C  1113  1  0.42234800  0.16060600  0.72564700  1
  C  1114  1  0.39379700  0.13857200  0.74091500  1
  C  1115  1  0.39018400  0.13948000  0.76839200  1
  C  1116  1  0.40802800  0.16262800  0.78315200  1
  C  1117  1  0.45155300  0.18298400  0.76810800  1
  C  1118  1  0.46082900  0.18170300  0.74061900  1
  C  1123  1  0.35235500  0.10109200  0.75480700  1
  C  1125  1  0.92079500  0.34232800  0.27509900  1
  C  1126  1  0.88455100  0.36365000  0.26004300  1
  C  1127  1  0.87988900  0.36274100  0.23258500  1
  C  1128  1  0.90450300  0.34012700  0.21762900  1
  C  1129  1  0.95523100  0.32083300  0.23245000  1
  C  1130  1  0.96469900  0.32213400  0.25994900  1
  C  1135  1  0.83093100  0.40015800  0.24663400  1
  C  1137  1  0.34173700  0.53367100  0.09078400  1
  C  1138  1  0.36376600  0.51877700  0.11363500  1
  C  1139  1  0.35959800  0.49130400  0.11377500  1
  C  1140  1  0.32553800  0.47632800  0.09216800  1
  C  1141  1  0.28168300  0.49165400  0.07213700  1
  C  1142  1  0.29140300  0.51914100  0.07117200  1
  C  1147  1  0.41636600  0.50541900  0.15028000  1
  C  1149  1  0.84518900  0.96768000  0.91342100  1
  C  1150  1  0.85889900  0.98197600  0.88976500  1
  C  1151  1  0.85630900  0.00947300  0.88912300  1
  C  1152  1  0.83146900  0.02509000  0.91119800  1
  C  1153  1  0.79498300  0.01029800  0.93266500  1
  C  1154  1  0.80459300  0.98284600  0.93411500  1
  C  1159  1  0.89777500  0.99417200  0.85161900  1
  C  1161  1  0.09224400  0.33758000  0.71785800  1
  C  1162  1  0.10520300  0.36120900  0.73223400  1
  C  1163  1  0.10215200  0.36175500  0.75972900  1
  C  1164  1  0.07766800  0.33957100  0.77525400  1
  C  1165  1  0.04164700  0.31812100  0.76036800  1
  C  1166  1  0.05177500  0.31678200  0.73292200  1
  C  1171  1  0.14281800  0.39939200  0.74456700  1
  C  1173  1  0.59510600  0.16222100  0.28386800  1
  C  1174  1  0.61345200  0.13884700  0.26944200  1
  C  1175  1  0.60991900  0.13824000  0.24195700  1
  C  1176  1  0.57944700  0.15990300  0.22651300  1
  C  1177  1  0.53885700  0.18072700  0.24144400  1
  C  1178  1  0.54898500  0.18221500  0.26888600  1
  C  1183  1  0.66070600  0.10144300  0.25690400  1
  C  1185  1  0.57974900  0.84003300  0.27560100  1
  C  1186  1  0.60830300  0.86206100  0.26032100  1
  C  1187  1  0.61213500  0.86111800  0.23284600  1
  C  1188  1  0.59450200  0.83794600  0.21811100  1
  C  1189  1  0.55089700  0.81760100  0.23315200  1
  C  1190  1  0.54135200  0.81892200  0.26063100  1
  C  1195  1  0.64968500  0.89953500  0.24639300  1
  C  1197  1  0.08148500  0.65952300  0.72618700  1
  C  1198  1  0.11747800  0.63819100  0.74127700  1
  C  1199  1  0.12224300  0.63915100  0.76873100  1
  C  1200  1  0.09811800  0.66183600  0.78363400  1
  C  1201  1  0.04752700  0.68114200  0.76879500  1
  C  1202  1  0.03777100  0.67976600  0.74131000  1
  C  1207  1  0.17042800  0.60164400  0.75476400  1
  C  1209  1  0.91030700  0.66302900  0.28338800  1
  C  1210  1  0.89727300  0.63941200  0.26899600  1
  C  1211  1  0.90009700  0.63888900  0.24149700  1
  C  1212  1  0.92445100  0.66108500  0.22597800  1
  C  1213  1  0.96047900  0.68253500  0.24086000  1
  C  1214  1  0.95059900  0.68384600  0.26831400  1
  C  1219  1  0.85958300  0.60123800  0.25664500  1
  C  1221  1  0.40747400  0.83975100  0.71739700  1
  C  1222  1  0.38881600  0.86308200  0.73186800  1
  C  1223  1  0.39218000  0.86364200  0.75935500  1
  C  1224  1  0.42275200  0.84197100  0.77477400  1
  C  1225  1  0.46346000  0.82117900  0.75982300  1
  C  1226  1  0.45360700  0.81974900  0.73236900  1
  C  1231  1  0.34107900  0.90043000  0.74446500  1
  C  1233  1  0.66882200  0.47592200  0.59030600  1
  C  1234  1  0.64206200  0.49150700  0.61227300  1
  C  1235  1  0.63853000  0.51897700  0.61100600  1
  C  1236  1  0.65443000  0.53340800  0.58754700  1
  C  1237  1  0.69588400  0.51807700  0.56711200  1
  C  1238  1  0.70553800  0.49062200  0.56877800  1
  C  1243  1  0.60405200  0.50594700  0.64979500  1
  C  1245  1  0.17374900  0.02538200  0.40921500  1
  C  1246  1  0.13790300  0.01040900  0.38777700  1
  C  1247  1  0.13303900  0.98295600  0.38859400  1
  C  1248  1  0.15719100  0.96793900  0.41119400  1
  C  1249  1  0.20802100  0.98266200  0.43054900  1
  C  1250  1  0.21754300  0.01016300  0.42936800  1
  C  1255  1  0.08457900  0.99711500  0.35118200  1
  C  1257  1  0.84288900  0.03366900  0.58946400  1
  C  1258  1  0.86141500  0.01913700  0.61275700  1
  C  1259  1  0.85772500  0.99165400  0.61323200  1
  C  1260  1  0.82693000  0.97633300  0.59150700  1
  C  1261  1  0.78592500  0.99136400  0.57082200  1
  C  1262  1  0.79615000  0.01881000  0.56947300  1
  C  1267  1  0.90884400  0.00639400  0.65008100  1
  C  1269  1  0.34650000  0.46761200  0.41410800  1
  C  1270  1  0.35915900  0.48171400  0.39029500  1
  C  1271  1  0.35653400  0.50920700  0.38942500  1
  C  1272  1  0.33272800  0.52501800  0.41144300  1
  C  1273  1  0.29749600  0.51039600  0.43318300  1
  C  1274  1  0.30727000  0.48296000  0.43484800  1
  C  1279  1  0.39615100  0.49357700  0.35191300  1
  C  1281  1  0.95418900  0.09914900  0.96945800  1
  C  1282  1  0.93625600  0.12014500  0.98702600  1
  C  1283  1  0.98792100  0.12286800  0.01072500  1
  C  1284  1  0.05705000  0.10412900  0.02009200  1
  C  1285  1  0.08784800  0.08650400  0.00021900  1
  C  1286  1  0.04046800  0.08471000  0.97573800  1
  C  1291  1  0.88798500  0.15471900  0.00551900  1
  C  1293  1  0.44902900  0.40494900  0.03066400  1
  C  1294  1  0.43835300  0.38290600  0.01392500  1
  C  1295  1  0.49126100  0.38037200  0.99038200  1
  C  1296  1  0.55516000  0.40010000  0.98044600  1
  C  1297  1  0.57967400  0.41914000  0.99959600  1
  C  1298  1  0.53099600  0.42089500  0.02387000  1
  C  1303  1  0.40073200  0.34678300  0.99659000  1
  C  1305  1  0.20331600  0.28118900  0.84896400  1
  C  1306  1  0.18683200  0.26367200  0.87008700  1
  C  1307  1  0.23918900  0.24007400  0.87269800  1
  C  1308  1  0.30764900  0.23079200  0.85375100  1
  C  1309  1  0.33715900  0.25066300  0.83596900  1
  C  1310  1  0.28910600  0.27504400  0.83426800  1
  C  1315  1  0.14057900  0.24514900  0.90484700  1
  C  1317  1  0.70233600  0.21953500  0.15364900  1
  C  1318  1  0.68835900  0.23655300  0.13197400  1
  C  1319  1  0.74063500  0.26017000  0.12925700  1
  C  1320  1  0.80642300  0.27001300  0.14860200  1
  C  1321  1  0.83387800  0.25062800  0.16712100  1
  C  1322  1  0.78615600  0.22620700  0.16893900  1
  C  1327  1  0.64642900  0.25414500  0.09633400  1
  C  1329  1  0.04933300  0.90190800  0.03177700  1
  C  1330  1  0.06778700  0.88099500  0.01414200  1
  C  1331  1  0.01601900  0.87821000  0.99046700  1
  C  1332  1  0.94611900  0.89679000  0.98120200  1
  C  1333  1  0.91494000  0.91429700  0.00114300  1
  C  1334  1  0.96262500  0.91618800  0.02557200  1
  C  1339  1  0.11717600  0.84661400  0.99548100  1
  C  1341  1  0.55486100  0.59660000  0.97073100  1
  C  1342  1  0.56619600  0.61857300  0.98754300  1
  C  1343  1  0.51296600  0.62121600  0.01102100  1
  C  1344  1  0.44791000  0.60169300  0.02080300  1
  C  1345  1  0.42283900  0.58279800  0.00155400  1
  C  1346  1  0.47209200  0.58089300  0.97737600  1
  C  1351  1  0.60523600  0.65449900  0.00507700  1
  C  1353  1  0.79840700  0.71939200  0.15221700  1
  C  1354  1  0.81477500  0.73689400  0.13107000  1
  C  1355  1  0.76245900  0.76050100  0.12846200  1
  C  1356  1  0.69410700  0.76980600  0.14742300  1
  C  1357  1  0.66460500  0.74993600  0.16521000  1
  C  1358  1  0.71264100  0.72554700  0.16691800  1
  C  1363  1  0.86093100  0.75540700  0.09628800  1
  C  1365  1  0.29951500  0.78236800  0.84766900  1
  C  1366  1  0.31334600  0.76538200  0.86938100  1
  C  1367  1  0.26105200  0.74177100  0.87211700  1
  C  1368  1  0.19532200  0.73190900  0.85276900  1
  C  1369  1  0.16788900  0.75128800  0.83423700  1
  C  1370  1  0.21570000  0.77569500  0.83238100  1
  C  1375  1  0.35524000  0.74780600  0.90503900  1
  C  1377  1  0.45584800  0.59967400  0.46878800  1
  C  1378  1  0.43696300  0.62053400  0.48643600  1
  C  1379  1  0.48837900  0.62329300  0.51016700  1
  C  1380  1  0.55804000  0.60467500  0.51950400  1
  C  1381  1  0.58972600  0.58724400  0.49955500  1
  C  1382  1  0.54263200  0.58544300  0.47502900  1
  C  1387  1  0.38726600  0.65490300  0.50503900  1
  C  1389  1  0.95177500  0.90390300  0.53154700  1
  C  1390  1  0.93900300  0.88215700  0.51454300  1
  C  1391  1  0.99160700  0.87958600  0.49096100  1
  C  1392  1  0.05676700  0.89910600  0.48118300  1
  C  1393  1  0.08324700  0.91771300  0.50058000  1
  C  1394  1  0.03511000  0.91941300  0.52494700  1
  C  1399  1  0.89855000  0.84642600  0.49687400  1
  C  1401  1  0.70182100  0.78097100  0.34918600  1
  C  1402  1  0.68408000  0.76328200  0.37009900  1
  C  1403  1  0.73638500  0.73968200  0.37278300  1
  C  1404  1  0.80622100  0.73055700  0.35411900  1
  C  1405  1  0.83655500  0.75054900  0.33657100  1
  C  1406  1  0.78833900  0.77490500  0.33477000  1
  C  1411  1  0.63565700  0.74448300  0.40450100  1
  C  1413  1  0.20060400  0.71992100  0.65348800  1
  C  1414  1  0.18562000  0.73707400  0.63196400  1
  C  1415  1  0.23805300  0.76065800  0.62915200  1
  C  1416  1  0.30521200  0.77032400  0.64824100  1
  C  1417  1  0.33334967  0.75081600  0.66656400  1
  C  1418  1  0.28522600  0.72646400  0.66850900  1
  C  1423  1  0.14180200  0.75493200  0.59661200  1
  C  1425  1  0.54759100  0.40140100  0.53246000  1
  C  1426  1  0.56692100  0.38061500  0.51475000  1
  C  1427  1  0.51542500  0.37781100  0.49103700  1
  C  1428  1  0.44513100  0.39629600  0.48179100  1
  C  1429  1  0.41312600  0.41362600  0.50179600  1
  C  1430  1  0.46046000  0.41550100  0.52628200  1
  C  1435  1  0.61756700  0.34641900  0.49599700  1
  C  1437  1  0.05204000  0.09766900  0.46984200  1
  C  1438  1  0.06551400  0.11932700  0.48692800  1
  C  1439  1  0.01265300  0.12199800  0.51045500  1
  C  1440  1  0.94636300  0.10268400  0.52008000  1
  C  1441  1  0.91931700  0.08423300  0.50058600  1
  C  1442  1  0.96796500  0.08239400  0.47630200  1
  C  1447  1  0.10743500  0.15484200  0.50480600  1
  C  1449  1  0.29993900  0.21961800  0.65201700  1
  C  1450  1  0.31756500  0.23728600  0.63107600  1
  C  1451  1  0.26531700  0.26089700  0.62839000  1
  C  1452  1  0.19560100  0.27005400  0.64706700  1
  C  1453  1  0.16527700  0.25006500  0.66462800  1
  C  1454  1  0.21345400  0.22570000  0.66644000  1
  C  1459  1  0.36588600  0.25606500  0.59664300  1
  C  1461  1  0.80128100  0.28197300  0.34783000  1
  C  1462  1  0.81605500  0.26485900  0.36940100  1
  C  1463  1  0.76353500  0.24129300  0.37223400  1
  C  1464  1  0.69644100  0.23161500  0.35313600  1
  C  1465  1  0.66834800  0.25111800  0.33479900  1
  C  1466  1  0.71663400  0.27544600  0.33281300  1
  C  1471  1  0.85974300  0.24702200  0.40478100  1
  H  5  1  0.22474700  0.11498900  0.05372700  1
  H  6  1  0.13180500  0.13776000  0.06046100  1
  H  9  1  0.95170300  0.12123600  0.06248800  1
  H  10  1  0.92323400  0.08831600  0.05494400  1
  H  11  1  0.03462100  0.13533700  0.10221100  1
  H  12  1  0.05950600  0.11265100  0.12645300  1
  H  15  1  0.96633100  0.05310000  0.08785200  1
  H  16  1  0.02079000  0.06203900  0.11743000  1
  H  18  1  0.06638900  0.05603700  0.04505100  1
  H  19  1  0.18711200  0.06844300  0.04591300  1
  H  21  1  0.20309100  0.07704600  0.11827900  1
  H  22  1  0.26957200  0.07922100  0.08900500  1
  H  27  1  0.72475100  0.38781200  0.94772300  1
  H  28  1  0.63206400  0.36476500  0.94187600  1
  H  31  1  0.44981400  0.38161800  0.93915300  1
  H  32  1  0.42349900  0.41501900  0.94471600  1
  H  33  1  0.53515600  0.36518800  0.90068300  1
  H  34  1  0.55967100  0.38606000  0.87496900  1
  H  37  1  0.46863100  0.44824500  0.90917000  1
  H  38  1  0.52766000  0.43666700  0.88097900  1
  H  40  1  0.56513600  0.44726300  0.95329600  1
  H  41  1  0.68551100  0.43471300  0.95391500  1
  H  43  1  0.70669200  0.42307400  0.88189000  1
  H  44  1  0.77097900  0.42181000  0.91154800  1
  H  49  1  0.47524900  0.19736600  0.86481600  1
  H  50  1  0.38203100  0.19060500  0.88750200  1
  H  53  1  0.20172400  0.18849400  0.87065500  1
  H  54  1  0.17450000  0.19588700  0.83763200  1
  H  55  1  0.28518900  0.14887700  0.88506800  1
  H  56  1  0.31074400  0.12455100  0.86253700  1
  H  59  1  0.21841300  0.16274800  0.80266200  1
  H  60  1  0.27323600  0.13328700  0.81191100  1
  H  62  1  0.31785000  0.20576100  0.80566400  1
  H  63  1  0.43834600  0.20506900  0.81825200  1
  H  65  1  0.45498400  0.13270600  0.82701000  1
  H  66  1  0.52112400  0.16203800  0.82920300  1
  H  71  1  0.97478500  0.30341100  0.13703300  1
  H  72  1  0.88226300  0.30939500  0.11395800  1
  H  75  1  0.70107800  0.31159000  0.13027600  1
  H  76  1  0.67241400  0.30520000  0.16340300  1
  H  77  1  0.78440500  0.35075900  0.11494700  1
  H  78  1  0.80793700  0.37591600  0.13665300  1
  H  81  1  0.71529600  0.33958600  0.19759600  1
  H  82  1  0.77157300  0.36852300  0.18726800  1
  H  84  1  0.81478900  0.29637700  0.19610800  1
  H  85  1  0.93549100  0.29660400  0.18373500  1
  H  87  1  0.95255500  0.36880300  0.17323500  1
  H  88  1  0.01873900  0.33944700  0.17177100  1
  H  93  1  0.23769800  0.40510400  0.04361300  1
  H  94  1  0.28806400  0.37624700  0.05629800  1
  H  97  1  0.46169800  0.37611400  0.07504800  1
  H  98  1  0.52970000  0.40520600  0.07804400  1
  H  99  1  0.30430400  0.37038100  0.10631000  1
  H  100  1  0.27509600  0.39560700  0.12799000  1
  H  103  1  0.47457000  0.44203600  0.10825700  1
  H  104  1  0.37501400  0.43636500  0.12973200  1
  H  106  1  0.44774300  0.45028300  0.06095100  1
  H  107  1  0.33416200  0.44730800  0.04564400  1
  H  109  1  0.20657900  0.43809900  0.11069100  1
  H  110  1  0.18161000  0.44199600  0.07685600  1
  H  115  1  0.74309600  0.09824200  0.95694100  1
  H  116  1  0.79287000  0.12654500  0.94284800  1
  H  119  1  0.96464800  0.12637400  0.92393200  1
  H  120  1  0.03382100  0.09743300  0.92178400  1
  H  121  1  0.80508700  0.13027400  0.89250100  1
  H  122  1  0.77707600  0.10390600  0.87214600  1
  H  125  1  0.97974000  0.05914000  0.89320000  1
  H  126  1  0.87935500  0.06371600  0.87187600  1
  H  128  1  0.95462900  0.05288600  0.94135900  1
  H  129  1  0.84106400  0.05642300  0.95655300  1
  H  131  1  0.71131600  0.06208000  0.89149500  1
  H  132  1  0.68728300  0.05957800  0.92548200  1
  H  137  1  0.99195700  0.29342400  0.84858800  1
  H  138  1  0.04230400  0.30754600  0.87680900  1
  H  141  1  0.21388600  0.32670300  0.87625300  1
  H  142  1  0.28220500  0.32886200  0.84715300  1
  H  143  1  0.05443200  0.35778900  0.88051300  1
  H  144  1  0.02506100  0.37824000  0.85432500  1
  H  147  1  0.22612800  0.35730700  0.80890900  1
  H  148  1  0.12610600  0.37869500  0.81387200  1
  H  150  1  0.20144000  0.30926400  0.80267600  1
  H  151  1  0.08810400  0.29403100  0.80651300  1
  H  153  1  0.95794500  0.35893400  0.81263000  1
  H  154  1  0.93460300  0.32489600  0.81005300  1
  H  159  1  0.49096900  0.20685800  0.15435200  1
  H  160  1  0.54070100  0.19343900  0.12574200  1
  H  163  1  0.71342400  0.17457800  0.12566900  1
  H  164  1  0.78215100  0.17197400  0.15466100  1
  H  165  1  0.55447300  0.14319600  0.12094600  1
  H  166  1  0.52613900  0.12222700  0.14681300  1
  H  169  1  0.72781600  0.14252600  0.19222500  1
  H  170  1  0.62749200  0.12122200  0.18725500  1
  H  172  1  0.70218900  0.19030500  0.19946500  1
  H  173  1  0.58883200  0.20568200  0.19628900  1
  H  175  1  0.45962000  0.14061900  0.18901900  1
  H  176  1  0.43502600  0.17452700  0.19216500  1
  H  181  1  0.77904700  0.88565000  0.94745700  1
  H  182  1  0.87281300  0.86317200  0.94054600  1
  H  185  1  0.05201900  0.88017200  0.93867300  1
  H  186  1  0.07942900  0.91309200  0.94651600  1
  H  187  1  0.97000500  0.86624200  0.89870800  1
  H  188  1  0.94418100  0.88917000  0.87474400  1
  H  191  1  0.03516900  0.94849300  0.91410700  1
  H  192  1  0.98206900  0.93996200  0.88427900  1
  H  194  1  0.93489200  0.94491600  0.95657200  1
  H  195  1  0.81454400  0.93221400  0.95553600  1
  H  197  1  0.79963100  0.92404600  0.88310100  1
  H  198  1  0.73291900  0.92155300  0.91232000  1
  H  203  1  0.27946000  0.61440300  0.05378300  1
  H  204  1  0.37344300  0.63701100  0.05989100  1
  H  207  1  0.55416700  0.61950600  0.06229300  1
  H  208  1  0.57913400  0.58611700  0.05619600  1
  H  209  1  0.47049700  0.63559500  0.10127100  1
  H  210  1  0.44464300  0.61422100  0.12651600  1
  H  213  1  0.53276600  0.55246400  0.09066600  1
  H  214  1  0.47725300  0.56322500  0.11954100  1
  H  216  1  0.43459900  0.55444300  0.04738200  1
  H  217  1  0.31502100  0.56763700  0.04720700  1
  H  219  1  0.29731600  0.57840900  0.11945700  1
  H  220  1  0.23165900  0.58010100  0.09000500  1
  H  225  1  0.52678400  0.80340700  0.13640500  1
  H  226  1  0.62005300  0.81014300  0.11372500  1
  H  229  1  0.80011700  0.81209300  0.13047900  1
  H  230  1  0.82773500  0.80460800  0.16345800  1
  H  231  1  0.71719600  0.85187600  0.11623300  1
  H  232  1  0.69189800  0.87613100  0.13888100  1
  H  235  1  0.78420300  0.83762100  0.19856400  1
  H  236  1  0.72979100  0.86717100  0.18947600  1
  H  238  1  0.68426100  0.79477400  0.19552200  1
  H  239  1  0.56372500  0.79557500  0.18296000  1
  H  241  1  0.54780800  0.86796100  0.17435500  1
  H  242  1  0.48137800  0.83868300  0.17210100  1
  H  247  1  0.02733600  0.69830700  0.86429600  1
  H  248  1  0.11994900  0.69234200  0.88735100  1
  H  251  1  0.30073700  0.69034700  0.87113300  1
  H  252  1  0.32987600  0.69686600  0.83805800  1
  H  253  1  0.21814200  0.65094500  0.88625200  1
  H  254  1  0.19485600  0.62589400  0.86437100  1
  H  257  1  0.28747500  0.66267000  0.80368700  1
  H  258  1  0.23186300  0.63358400  0.81379000  1
  H  260  1  0.18727100  0.70563700  0.80524300  1
  H  261  1  0.06654400  0.70526100  0.81760900  1
  H  263  1  0.05050500  0.63302600  0.82791000  1
  H  264  1  0.98390500  0.66231200  0.82944800  1
  H  269  1  0.76616000  0.59617700  0.95748500  1
  H  270  1  0.71593800  0.62518400  0.94511000  1
  H  273  1  0.54196000  0.62568600  0.92663200  1
  H  274  1  0.47335400  0.59671400  0.92351700  1
  H  275  1  0.69828400  0.63151500  0.89517100  1
  H  276  1  0.72687200  0.60642800  0.87325300  1
  H  279  1  0.52704600  0.56015400  0.89304700  1
  H  280  1  0.62657800  0.56580100  0.87146200  1
  H  282  1  0.55510100  0.55133500  0.94032700  1
  H  283  1  0.66941700  0.55400200  0.95528700  1
  H  285  1  0.79507500  0.56365000  0.89010200  1
  H  286  1  0.82083100  0.55950000  0.92385000  1
  H  291  1  0.26027700  0.90303100  0.04450300  1
  H  292  1  0.21064700  0.87458000  0.05833600  1
  H  295  1  0.03854700  0.87446000  0.07708400  1
  H  296  1  0.96901500  0.90332600  0.07936600  1
  H  297  1  0.19737200  0.87042600  0.10862400  1
  H  298  1  0.22503400  0.89666000  0.12920300  1
  H  301  1  0.02231800  0.94145100  0.10830400  1
  H  302  1  0.12278000  0.93673100  0.12961500  1
  H  304  1  0.04779000  0.94805100  0.06014000  1
  H  305  1  0.16167200  0.94481600  0.04505600  1
  H  307  1  0.29068000  0.93875700  0.11020900  1
  H  308  1  0.31513200  0.94148500  0.07627100  1
  H  313  1  0.00975900  0.70742400  0.15279400  1
  H  314  1  0.96006300  0.69326300  0.12451000  1
  H  317  1  0.78874900  0.67382900  0.12490900  1
  H  318  1  0.72022600  0.67156800  0.15396800  1
  H  319  1  0.94886500  0.64303100  0.12070700  1
  H  320  1  0.97850700  0.62257600  0.14687300  1
  H  323  1  0.77654500  0.64310100  0.19220700  1
  H  324  1  0.87715700  0.62190200  0.18729500  1
  H  326  1  0.79999000  0.69116200  0.19847700  1
  H  327  1  0.91298300  0.70661800  0.19480300  1
  H  329  1  0.04489500  0.64192200  0.18864900  1
  H  330  1  0.06735600  0.67599800  0.19129300  1
  H  335  1  0.51088300  0.79480900  0.84678300  1
  H  336  1  0.46167700  0.80824300  0.87545000  1
  H  339  1  0.28923900  0.82734900  0.87567100  1
  H  340  1  0.22032800  0.83005100  0.84672000  1
  H  341  1  0.44871700  0.85848300  0.88035200  1
  H  342  1  0.47730600  0.87946600  0.85451500  1
  H  345  1  0.27489700  0.85951300  0.80916600  1
  H  346  1  0.37569400  0.88066900  0.81409800  1
  H  348  1  0.29944800  0.81173300  0.80187500  1
  H  349  1  0.41253500  0.79617300  0.80489600  1
  H  351  1  0.54320300  0.86105700  0.81224000  1
  H  352  1  0.56709700  0.82712200  0.80902700  1
  H  357  1  0.72529900  0.61519500  0.55338600  1
  H  358  1  0.63246600  0.63799500  0.56016200  1
  H  361  1  0.45279000  0.62172400  0.56200000  1
  H  362  1  0.42336000  0.58892500  0.55415300  1
  H  363  1  0.53489900  0.63537100  0.60200000  1
  H  364  1  0.55942300  0.61237500  0.62601700  1
  H  367  1  0.46547800  0.55336700  0.58669900  1
  H  368  1  0.51917100  0.56184100  0.61648400  1
  H  370  1  0.56631200  0.55644700  0.54418700  1
  H  371  1  0.68729100  0.56865200  0.54529800  1
  H  373  1  0.70226900  0.57691000  0.61768900  1
  H  374  1  0.76913700  0.57917300  0.58849200  1
  H  379  1  0.22521400  0.88729000  0.44797300  1
  H  380  1  0.13233100  0.86434000  0.44190600  1
  H  383  1  0.95110300  0.88100100  0.43961600  1
  H  384  1  0.92373900  0.91422300  0.44590200  1
  H  385  1  0.03497000  0.86543900  0.40048800  1
  H  386  1  0.05941100  0.88705900  0.37531500  1
  H  389  1  0.96756700  0.94821700  0.41137000  1
  H  390  1  0.02410000  0.93765400  0.38252700  1
  H  392  1  0.06633200  0.94659500  0.45477600  1
  H  393  1  0.18678100  0.93403100  0.45472900  1
  H  395  1  0.20470000  0.92346800  0.38253100  1
  H  396  1  0.27041400  0.92192400  0.41196200  1
  H  401  1  0.97354900  0.69712900  0.36550000  1
  H  402  1  0.87947200  0.69006500  0.38784100  1
  H  405  1  0.70014700  0.68797100  0.37041000  1
  H  406  1  0.67425600  0.69570800  0.33738000  1
  H  407  1  0.78317200  0.64817200  0.38464400  1
  H  408  1  0.81014100  0.62417900  0.36185100  1
  H  411  1  0.71982300  0.66311100  0.30221200  1
  H  412  1  0.77359900  0.63342600  0.31105900  1
  H  414  1  0.81891100  0.70592700  0.30599200  1
  H  415  1  0.93898100  0.70512300  0.31891200  1
  H  417  1  0.95539900  0.63270500  0.32712800  1
  H  418  1  0.02137400  0.66203900  0.32970500  1
  H  423  1  0.47283800  0.80380300  0.63621000  1
  H  424  1  0.37905900  0.81011200  0.61358000  1
  H  427  1  0.19917100  0.81218700  0.63064500  1
  H  428  1  0.17231500  0.80534300  0.66379900  1
  H  429  1  0.28151700  0.85169700  0.61554400  1
  H  430  1  0.30682100  0.87641900  0.63763800  1
  H  433  1  0.21700100  0.83884100  0.69826300  1
  H  434  1  0.27073500  0.86826400  0.68861500  1
  H  436  1  0.31707500  0.79618000  0.69580400  1
  H  437  1  0.43707300  0.79668600  0.68287600  1
  H  439  1  0.45224900  0.86902100  0.67308700  1
  H  440  1  0.51900100  0.83975800  0.67119200  1
  H  445  1  0.74028400  0.90436100  0.54392000  1
  H  446  1  0.78991500  0.87570000  0.55726200  1
  H  449  1  0.96244700  0.87569100  0.57645300  1
  H  450  1  0.03078500  0.90474100  0.57922200  1
  H  451  1  0.80328500  0.87066300  0.60741600  1
  H  452  1  0.77385800  0.89631600  0.62854900  1
  H  455  1  0.97509500  0.94215300  0.60874300  1
  H  456  1  0.87457500  0.93691900  0.62995000  1
  H  458  1  0.95048100  0.94958500  0.56108100  1
  H  459  1  0.83746900  0.94642400  0.54551500  1
  H  461  1  0.70684200  0.93856300  0.61032400  1
  H  462  1  0.68334000  0.94192700  0.57636300  1
  H  467  1  0.24472800  0.59852600  0.45662000  1
  H  468  1  0.29395800  0.62672400  0.44217700  1
  H  471  1  0.46505400  0.62653800  0.42295500  1
  H  472  1  0.53451900  0.59764200  0.42094200  1
  H  473  1  0.30446600  0.63000600  0.39177000  1
  H  474  1  0.27636000  0.60341700  0.37172100  1
  H  477  1  0.48020100  0.55903900  0.39276900  1
  H  478  1  0.37919300  0.56332300  0.37161700  1
  H  480  1  0.45652800  0.55323800  0.44107000  1
  H  481  1  0.34330200  0.55681000  0.45644700  1
  H  483  1  0.21162500  0.56171200  0.39159800  1
  H  484  1  0.18851400  0.55952300  0.42564300  1
  H  489  1  0.49066900  0.79361800  0.34846100  1
  H  490  1  0.54078100  0.80741200  0.37687400  1
  H  493  1  0.71288000  0.82622300  0.37675100  1
  H  494  1  0.78189200  0.82852900  0.34778900  1
  H  495  1  0.55441500  0.85763800  0.38106200  1
  H  496  1  0.52597100  0.87831000  0.35495800  1
  H  499  1  0.72753800  0.85742700  0.30974000  1
  H  500  1  0.62740600  0.87882200  0.31472500  1
  H  502  1  0.70191000  0.80934800  0.30307000  1
  H  503  1  0.58802900  0.79431700  0.30648900  1
  H  505  1  0.45928600  0.85942500  0.31293600  1
  H  506  1  0.43507600  0.82546600  0.31011800  1
  H  511  1  0.98936100  0.70683600  0.65449500  1
  H  512  1  0.03898400  0.69376800  0.62570900  1
  H  515  1  0.21217400  0.67525000  0.62522900  1
  H  516  1  0.28155900  0.67252800  0.65409000  1
  H  517  1  0.05446100  0.64360500  0.62040700  1
  H  518  1  0.02691100  0.62235500  0.64612700  1
  H  521  1  0.22886400  0.64270900  0.69140100  1
  H  522  1  0.12858600  0.62130800  0.68641900  1
  H  524  1  0.20195600  0.69049400  0.69918600  1
  H  525  1  0.08783200  0.70553300  0.69638400  1
  H  527  1  0.96070200  0.64026000  0.68866800  1
  H  528  1  0.93511100  0.67407000  0.69208300  1
  H  533  1  0.27840700  0.38551800  0.44782200  1
  H  534  1  0.37198200  0.36297800  0.44090100  1
  H  537  1  0.55093900  0.37968800  0.43918800  1
  H  538  1  0.57933300  0.41249700  0.44728100  1
  H  539  1  0.46957400  0.36615600  0.39900600  1
  H  540  1  0.44421200  0.38932900  0.37520500  1
  H  543  1  0.53612900  0.44818800  0.41512900  1
  H  544  1  0.48352900  0.44002700  0.38514900  1
  H  546  1  0.43520200  0.44455300  0.45737600  1
  H  547  1  0.31455100  0.43209100  0.45613600  1
  H  549  1  0.30035800  0.42417700  0.38369300  1
  H  550  1  0.23337700  0.42163800  0.41285400  1
  H  555  1  0.77891500  0.11486300  0.55350000  1
  H  556  1  0.87296700  0.13741300  0.55981300  1
  H  559  1  0.05283700  0.12014100  0.56184300  1
  H  560  1  0.07889800  0.08692900  0.55507700  1
  H  561  1  0.97042500  0.13539100  0.60139300  1
  H  562  1  0.94471800  0.11334900  0.62614200  1
  H  565  1  0.03377700  0.05258800  0.58869800  1
  H  566  1  0.98002100  0.06240200  0.61807700  1
  H  568  1  0.93392700  0.05511900  0.54597000  1
  H  569  1  0.81411700  0.06818500  0.54638100  1
  H  571  1  0.79879700  0.07800900  0.61873600  1
  H  572  1  0.73217700  0.07996900  0.58945600  1
  H  577  1  0.02851100  0.30364000  0.63572000  1
  H  578  1  0.12262400  0.31067300  0.61338300  1
  H  581  1  0.30177600  0.31262200  0.63072000  1
  H  582  1  0.32802600  0.30482000  0.66371300  1
  H  583  1  0.21921000  0.35255400  0.61662500  1
  H  584  1  0.19250600  0.37650400  0.63950000  1
  H  587  1  0.28280200  0.33732300  0.69899200  1
  H  588  1  0.22934500  0.36707700  0.69027100  1
  H  590  1  0.18327700  0.29464500  0.69519500  1
  H  591  1  0.06316600  0.29553800  0.68230400  1
  H  593  1  0.04735000  0.36797100  0.67420900  1
  H  594  1  0.98113700  0.33868300  0.67158200  1
  H  599  1  0.52916700  0.19794400  0.36510800  1
  H  600  1  0.62301500  0.19166200  0.38772600  1
  H  603  1  0.80256500  0.18977600  0.37076700  1
  H  604  1  0.82988500  0.19673700  0.33766000  1
  H  605  1  0.72090500  0.15005800  0.38567000  1
  H  606  1  0.69587700  0.12542400  0.36342500  1
  H  609  1  0.78567300  0.16338500  0.30303700  1
  H  610  1  0.73246200  0.13384800  0.31249300  1
  H  612  1  0.68497900  0.20584100  0.30554900  1
  H  613  1  0.56493800  0.20520400  0.31844800  1
  H  615  1  0.55063900  0.13284400  0.32806100  1
  H  616  1  0.48355000  0.16204400  0.33002800  1
  H  621  1  0.26346000  0.09693400  0.45718600  1
  H  622  1  0.21397400  0.12575200  0.44414600  1
  H  625  1  0.04109000  0.12612800  0.42520600  1
  H  626  1  0.97218500  0.09718900  0.42231400  1
  H  627  1  0.19923600  0.13125300  0.39405900  1
  H  628  1  0.22808800  0.10573900  0.37268100  1
  H  631  1  0.02655900  0.06001300  0.39248900  1
  H  632  1  0.12709200  0.06527600  0.37121000  1
  H  634  1  0.05217300  0.05207200  0.44014900  1
  H  635  1  0.16584800  0.05490200  0.45542600  1
  H  637  1  0.29481200  0.06319800  0.39047700  1
  H  638  1  0.31905300  0.05958100  0.42435700  1
  H  643  1  0.75856900  0.40273100  0.54481000  1
  H  644  1  0.70944500  0.37440000  0.55902200  1
  H  647  1  0.53806800  0.37433100  0.57809500  1
  H  648  1  0.46830800  0.40316600  0.58023700  1
  H  649  1  0.69804000  0.37073700  0.60938100  1
  H  650  1  0.72584100  0.39720600  0.62963600  1
  H  653  1  0.52198300  0.44162000  0.60873700  1
  H  654  1  0.62304000  0.43718800  0.62987500  1
  H  656  1  0.54593600  0.44772200  0.56043100  1
  H  657  1  0.65941600  0.44441400  0.54513500  1
  H  659  1  0.79050400  0.43915100  0.61007100  1
  H  660  1  0.81397300  0.44154400  0.57606500  1
  H  665  1  0.51106300  0.20722400  0.65294600  1
  H  666  1  0.46157200  0.19339600  0.62447300  1
  H  669  1  0.28973800  0.17431700  0.62443400  1
  H  670  1  0.22053600  0.17191300  0.65335500  1
  H  671  1  0.44886300  0.14318100  0.62018200  1
  H  672  1  0.47756700  0.12249800  0.64625800  1
  H  675  1  0.27513100  0.14298500  0.69139400  1
  H  676  1  0.37582700  0.12176800  0.68646000  1
  H  678  1  0.29953200  0.19108200  0.69810700  1
  H  679  1  0.41309700  0.20632900  0.69485600  1
  H  681  1  0.54351800  0.14141600  0.68836000  1
  H  682  1  0.56690700  0.17541100  0.69124700  1
  H  687  1  0.01255400  0.29480700  0.34665400  1
  H  688  1  0.96342700  0.30789600  0.37548900  1
  H  691  1  0.79055100  0.32666200  0.37610800  1
  H  692  1  0.72099200  0.32948000  0.34728500  1
  H  693  1  0.94879900  0.35806600  0.38088500  1
  H  694  1  0.97660600  0.37932400  0.35519100  1
  H  697  1  0.77393100  0.35928500  0.30998700  1
  H  698  1  0.87464900  0.38055600  0.31492300  1
  H  700  1  0.79982900  0.31150200  0.30214100  1
  H  701  1  0.91370700  0.29629800  0.30480600  1
  H  703  1  0.04219700  0.36139700  0.31259100  1
  H  704  1  0.06712800  0.32755900  0.30911700  1
  H  711  1  0.80021700  0.11334700  0.07646500  1
  H  712  1  0.68384500  0.13476100  0.09983700  1
  H  716  1  0.93749900  0.08524900  0.19388900  1
  H  723  1  0.29974100  0.38932900  0.92405900  1
  H  724  1  0.18192400  0.36788300  0.90130000  1
  H  728  1  0.44433600  0.41092000  0.80591100  1
  H  735  1  0.05038000  0.17452400  0.86205300  1
  H  736  1  0.93377700  0.15139300  0.88359500  1
  H  740  1  0.19013000  0.05683200  0.83607900  1
  H  747  1  0.55050100  0.32626200  0.13665000  1
  H  748  1  0.43406800  0.34951500  0.11500000  1
  H  752  1  0.68805200  0.44395400  0.16345400  1
  H  759  1  0.20342100  0.88859100  0.92493100  1
  H  760  1  0.31968600  0.86719600  0.90151000  1
  H  764  1  0.06618600  0.91707400  0.80762000  1
  H  771  1  0.70428800  0.61110000  0.07702500  1
  H  772  1  0.82169300  0.63265800  0.09985800  1
  H  776  1  0.55984000  0.58892900  0.19504400  1
  H  783  1  0.95156000  0.82599700  0.13873600  1
  H  784  1  0.06810900  0.84922200  0.11718200  1
  H  788  1  0.81390100  0.94359700  0.16593200  1
  H  795  1  0.45140800  0.67580200  0.86515900  1
  H  796  1  0.56760800  0.65246700  0.88692200  1
  H  800  1  0.31668200  0.55819300  0.83695800  1
  H  807  1  0.30091300  0.61422100  0.57570400  1
  H  808  1  0.18486500  0.63575500  0.59918800  1
  H  812  1  0.43475500  0.58433200  0.69297900  1
  H  819  1  0.80040700  0.88840500  0.42502800  1
  H  820  1  0.68335000  0.86674000  0.40205500  1
  H  824  1  0.94046900  0.91286900  0.30704600  1
  H  831  1  0.54892200  0.67427000  0.36083100  1
  H  832  1  0.43241200  0.65116800  0.38238000  1
  H  836  1  0.69025200  0.55662500  0.33543400  1
  H  843  1  0.04846200  0.82650500  0.63831600  1
  H  844  1  0.93201700  0.84970600  0.61668400  1
  H  848  1  0.18795800  0.94416700  0.66432600  1
  H  855  1  0.70273100  0.38769600  0.42567600  1
  H  856  1  0.81876500  0.36621300  0.40215300  1
  H  860  1  0.56866300  0.41781300  0.30849800  1
  H  867  1  0.20355200  0.11204600  0.57608700  1
  H  868  1  0.32025100  0.13378500  0.59913000  1
  H  872  1  0.06357200  0.08705400  0.69392900  1
  H  879  1  0.45309800  0.32629000  0.63997400  1
  H  880  1  0.56958900  0.34948700  0.61844200  1
  H  884  1  0.31349300  0.44384400  0.66647000  1
  H  891  1  0.95339500  0.17558600  0.36349300  1
  H  892  1  0.06963500  0.15230400  0.38522400  1
  H  896  1  0.81662100  0.05799900  0.33610800  1
  H  903  1  0.42758000  0.17056900  0.10126800  1
  H  904  1  0.30567900  0.14872000  0.07739600  1
  H  908  1  0.20221500  0.11197800  0.19489500  1
  H  915  1  0.92928900  0.33066900  0.90116100  1
  H  916  1  0.80701100  0.35293000  0.92473900  1
  H  920  1  0.69928600  0.38613900  0.80645200  1
  H  927  1  0.67880500  0.15034700  0.92028700  1
  H  928  1  0.55641900  0.17395500  0.89844600  1
  H  932  1  0.45444200  0.05618100  0.86226100  1
  H  939  1  0.17694500  0.35073200  0.08007000  1
  H  940  1  0.05548600  0.32678500  0.10230100  1
  H  944  1  0.94645900  0.44458500  0.13684700  1
  H  951  1  0.57516500  0.83090600  0.89989900  1
  H  952  1  0.69775700  0.85244400  0.92373400  1
  H  956  1  0.80156300  0.88915000  0.80624400  1
  H  963  1  0.07361000  0.67028700  0.10022500  1
  H  964  1  0.19685400  0.64841300  0.07676100  1
  H  968  1  0.30490300  0.61556100  0.19512500  1
  H  975  1  0.32420600  0.85066700  0.08088600  1
  H  976  1  0.44643300  0.82696700  0.10267300  1
  H  980  1  0.54789700  0.94455900  0.13954400  1
  H  987  1  0.82640000  0.65078800  0.92132000  1
  H  988  1  0.94768700  0.67480300  0.89913100  1
  H  992  1  0.05568200  0.55716000  0.86380500  1
  H  999  1  0.92643700  0.67089000  0.60118500  1
  H  1000  1  0.80486500  0.64905600  0.57722500  1
  H  1004  1  0.70310900  0.61117000  0.69446400  1
  H  1011  1  0.42803200  0.83050600  0.40118300  1
  H  1012  1  0.30595800  0.85267500  0.42480800  1
  H  1016  1  0.20035400  0.88716100  0.30676200  1
  H  1023  1  0.17880800  0.65017500  0.42001900  1
  H  1024  1  0.05557100  0.67366700  0.39850100  1
  H  1028  1  0.95452200  0.55586900  0.36223700  1
  H  1035  1  0.67710200  0.85081700  0.58052700  1
  H  1036  1  0.55445900  0.82710200  0.60237600  1
  H  1040  1  0.44631100  0.94507400  0.63649400  1
  H  1047  1  0.07635000  0.33055300  0.39999000  1
  H  1048  1  0.19855000  0.35209500  0.42392400  1
  H  1052  1  0.30060300  0.39000900  0.30671100  1
  H  1059  1  0.57484100  0.17049400  0.60022500  1
  H  1060  1  0.69782700  0.14871100  0.57668800  1
  H  1064  1  0.80367900  0.11440700  0.69477400  1
  H  1071  1  0.82414300  0.35084100  0.58115000  1
  H  1072  1  0.94723700  0.32725200  0.60260800  1
  H  1076  1  0.04785000  0.44486500  0.63955500  1
  H  1083  1  0.32617600  0.15071900  0.42088300  1
  H  1084  1  0.44864200  0.17451100  0.39907900  1
  H  1088  1  0.55571000  0.05670900  0.36411300  1
  H  1095  1  0.23908100  0.98162600  0.05365200  1
  H  1096  1  0.22216300  0.02670300  0.05107400  1
  H  1100  1  0.07934900  0.00585800  0.16919300  1
  H  1107  1  0.75859700  0.51852800  0.94304400  1
  H  1108  1  0.74455900  0.47311400  0.94424200  1
  H  1112  1  0.54076100  0.49822600  0.83350800  1
  H  1119  1  0.49160500  0.19751500  0.73158800  1
  H  1120  1  0.47504000  0.19985100  0.77669200  1
  H  1124  1  0.33063600  0.08195900  0.75534200  1
  H  1131  1  0.99961900  0.30689700  0.26892100  1
  H  1132  1  0.98403700  0.30467300  0.22367200  1
  H  1136  1  0.80026400  0.41839500  0.24631500  1
  H  1143  1  0.26360500  0.52807800  0.05497900  1
  H  1144  1  0.24776200  0.48286000  0.05663900  1
  H  1148  1  0.44348800  0.50512400  0.16891600  1
  H  1155  1  0.78354500  0.97441100  0.95128800  1
  H  1156  1  0.76585700  0.01941200  0.94864000  1
  H  1160  1  0.91626700  0.99390900  0.83223800  1
  H  1167  1  0.03130500  0.29959200  0.72442000  1
  H  1168  1  0.01315900  0.30202600  0.76941300  1
  H  1172  1  0.16230100  0.41870500  0.74438300  1
  H  1179  1  0.52420900  0.19895700  0.27745100  1
  H  1180  1  0.50658300  0.19631400  0.23238700  1
  H  1184  1  0.68308500  0.08235800  0.25702000  1
  H  1191  1  0.51048700  0.80312300  0.26966000  1
  H  1192  1  0.52751600  0.80072000  0.22457500  1
  H  1196  1  0.67130800  0.91867700  0.24584700  1
  H  1203  1  0.00284100  0.69499300  0.73232800  1
  H  1204  1  0.01898200  0.69734800  0.77754400  1
  H  1208  1  0.20070800  0.58336000  0.75511700  1
  H  1215  1  0.97108700  0.70103400  0.27681600  1
  H  1216  1  0.98883800  0.69864600  0.23180700  1
  H  1220  1  0.84012400  0.58192400  0.25682200  1
  H  1227  1  0.47855600  0.80303700  0.72378500  1
  H  1228  1  0.49566900  0.80557600  0.76887600  1
  H  1232  1  0.31856800  0.91950400  0.74438100  1
  H  1239  1  0.73547500  0.48141200  0.55296100  1
  H  1240  1  0.71780400  0.52642700  0.54997300  1
  H  1244  1  0.58410300  0.50675600  0.66905600  1
  H  1251  1  0.25221700  0.01908100  0.44467500  1
  H  1252  1  0.23663900  0.97381900  0.44669500  1
  H  1256  1  0.05398700  0.99686200  0.33293600  1
  H  1263  1  0.77116300  0.02746100  0.55280100  1
  H  1264  1  0.75382900  0.98237200  0.55516800  1
  H  1268  1  0.93326500  0.00640100  0.66898700  1
  H  1275  1  0.28724200  0.47466600  0.45218200  1
  H  1276  1  0.26907000  0.51962900  0.44917800  1
  H  1280  1  0.41379300  0.49314600  0.33247900  1
  H  1287  1  0.06924200  0.07151800  0.96289700  1
  H  1288  1  0.14316900  0.07352800  0.00356700  1
  H  1292  1  0.85012900  0.17148500  0.00954500  1
  H  1299  1  0.55675600  0.43489900  0.03623100  1
  H  1300  1  0.63164600  0.43299300  0.99593100  1
  H  1304  1  0.36672900  0.32935600  0.99292000  1
  H  1311  1  0.31703900  0.28790600  0.82096700  1
  H  1312  1  0.39195300  0.24737500  0.82281700  1
  H  1316  1  0.10355200  0.24108700  0.92173700  1
  H  1323  1  0.81346900  0.21368300  0.18261000  1
  H  1324  1  0.88723500  0.25425300  0.18060300  1
  H  1328  1  0.61020300  0.25798600  0.07926900  1
  H  1335  1  0.93362700  0.92930900  0.03845100  1
  H  1336  1  0.85915100  0.92714700  0.99786700  1
  H  1340  1  0.15562600  0.82996700  0.99136800  1
  H  1347  1  0.44601000  0.56699700  0.96493700  1
  H  1348  1  0.37009400  0.56912100  0.00510100  1
  H  1352  1  0.64000800  0.67179300  0.00885800  1
  H  1359  1  0.68475800  0.71269900  0.18023700  1
  H  1360  1  0.60986800  0.75323500  0.17837700  1
  H  1364  1  0.89790700  0.75946100  0.07938800  1
  H  1371  1  0.18850000  0.78819600  0.81867700  1
  H  1372  1  0.11455800  0.74765100  0.82075000  1
  H  1376  1  0.39147900  0.74397100  0.92210400  1
  H  1383  1  0.57174200  0.57232800  0.46215500  1
  H  1384  1  0.64539100  0.57437200  0.50290400  1
  H  1388  1  0.34871400  0.67154100  0.50912500  1
  H  1395  1  0.06178100  0.93315900  0.53748600  1
  H  1396  1  0.13614700  0.93133900  0.49700400  1
  H  1400  1  0.86299100  0.82927000  0.49299300  1
  H  1407  1  0.81687000  0.78784100  0.32163200  1
  H  1408  1  0.89216900  0.74737500  0.32364000  1
  H  1412  1  0.59758100  0.74028600  0.42118900  1
  H  1419  1  0.31300700  0.71385500  0.68203700  1
  H  1420  1  0.38756700  0.75431500  0.67983700  1
  H  1424  1  0.10464600  0.75890400  0.57972100  1
  H  1431  1  0.43115500  0.42855100  0.53918800  1
  H  1432  1  0.35707600  0.42639100  0.49851000  1
  H  1436  1  0.65662200  0.32988500  0.49183500  1
  H  1443  1  0.94097700  0.06875500  0.46369500  1
  H  1444  1  0.86568900  0.07078300  0.50405200  1
  H  1448  1  0.14378300  0.17185400  0.50879900  1
  H  1455  1  0.18496700  0.21277900  0.67959800  1
  H  1456  1  0.10971800  0.25325700  0.67757400  1
  H  1460  1  0.40390500  0.26024900  0.57994300  1
  H  1467  1  0.68898700  0.28803900  0.31925100  1
  H  1468  1  0.61416900  0.24761200  0.32151800  1
  H  1472  1  0.89688900  0.24305300  0.42167500  1
  N  713  1  0.82180700  0.10439800  0.17583100  1
  N  725  1  0.32461600  0.39433100  0.82446100  1
  N  737  1  0.07376800  0.07504900  0.85478100  1
  N  749  1  0.57080600  0.42567400  0.14537700  1
  N  761  1  0.18171300  0.89778300  0.82560300  1
  N  773  1  0.67916500  0.60582900  0.17658700  1
  N  785  1  0.92955300  0.92542900  0.14687200  1
  N  797  1  0.43292600  0.57645300  0.85550800  1
  N  809  1  0.32038100  0.60410300  0.67499100  1
  N  821  1  0.82256700  0.89526100  0.32549000  1
  N  833  1  0.57366500  0.57480100  0.35407800  1
  N  845  1  0.07042600  0.92593600  0.64631500  1
  N  857  1  0.68302500  0.39797800  0.32642300  1
  N  869  1  0.18112800  0.10493100  0.67558100  1
  N  881  1  0.42951700  0.42572100  0.64752800  1
  N  893  1  0.93320700  0.07620800  0.35456600  1
  N  905  1  0.19674800  0.11362300  0.15429400  1
  N  917  1  0.69641100  0.38593100  0.84706700  1
  N  929  1  0.44820200  0.09678000  0.86378700  1
  N  941  1  0.94439700  0.40397100  0.13632300  1
  N  953  1  0.80743900  0.88738600  0.84683800  1
  N  965  1  0.30857800  0.61585700  0.15450800  1
  N  977  1  0.55437200  0.90397300  0.13777200  1
  N  989  1  0.05829400  0.59777400  0.86463700  1
  N  1001  1  0.69706200  0.61319100  0.65388400  1
  N  1013  1  0.19650000  0.88649300  0.34737300  1
  N  1025  1  0.94737300  0.59645100  0.36394600  1
  N  1037  1  0.44295300  0.90446100  0.63587700  1
  N  1049  1  0.30700400  0.38786500  0.34728100  1
  N  1061  1  0.80826500  0.11520500  0.65416200  1
  N  1073  1  0.05519400  0.40429700  0.63760300  1
  N  1085  1  0.55959700  0.09731900  0.36505500  1
  N  1097  1  0.11274500  0.02673000  0.13545400  1
  N  1109  1  0.59142200  0.47627500  0.86490400  1
  N  1121  1  0.36455500  0.11557300  0.77635500  1
  N  1133  1  0.84603300  0.38603300  0.22499600  1
  N  1145  1  0.39427700  0.48369500  0.13695800  1
  N  1157  1  0.88168500  0.01634000  0.86487400  1
  N  1169  1  0.12703500  0.38601700  0.76667700  1
  N  1181  1  0.64073900  0.11451400  0.23486200  1
  N  1193  1  0.63773400  0.88502100  0.22485900  1
  N  1205  1  0.15567600  0.61583600  0.77637600  1
  N  1217  1  0.87516500  0.61463500  0.23453700  1
  N  1229  1  0.36105900  0.88732800  0.76648500  1
  N  1241  1  0.61498700  0.52730000  0.63494600  1
  N  1253  1  0.09932400  0.97543600  0.36526900  1
  N  1265  1  0.88906100  0.98443200  0.63687000  1
  N  1277  1  0.38068300  0.51586300  0.36503000  1
  N  1289  1  0.95533700  0.14485200  0.02178300  1
  N  1301  1  0.46490100  0.35751100  0.97994100  1
  N  1313  1  0.20785800  0.22897800  0.89479100  1
  N  1325  1  0.71159300  0.27074700  0.10669000  1
  N  1337  1  0.04931200  0.85635900  0.97930000  1
  N  1349  1  0.54024900  0.64393400  0.02160100  1
  N  1361  1  0.79373300  0.77159100  0.10636000  1
  N  1373  1  0.29008200  0.73120200  0.89468700  1
  N  1385  1  0.45491200  0.64515500  0.52128300  1
  N  1397  1  0.96345500  0.85697200  0.48031500  1
  N  1409  1  0.70369400  0.72841500  0.39464800  1
  N  1421  1  0.20780800  0.77140700  0.60678300  1
  N  1433  1  0.54949300  0.35606700  0.47982300  1
  N  1445  1  0.04174800  0.14445800  0.52124200  1
  N  1457  1  0.29794400  0.27215000  0.60651300  1
  N  1469  1  0.79371100  0.23055300  0.39461500  1
  O  714  1  0.94486100  0.08568300  0.15286200  1
  O  726  1  0.44947700  0.41257700  0.84687300  1
  O  738  1  0.19678100  0.09786900  0.83583000  1
  O  750  1  0.69477900  0.40297800  0.16365900  1
  O  762  1  0.05879000  0.91650000  0.84864400  1
  O  774  1  0.55496100  0.58733000  0.15407500  1
  O  786  1  0.80659400  0.90256600  0.16578300  1
  O  798  1  0.30913300  0.59915700  0.83718200  1
  O  810  1  0.44310500  0.58530000  0.65197600  1
  O  822  1  0.94667800  0.91376200  0.34802400  1
  O  834  1  0.69642600  0.59766800  0.33499700  1
  O  846  1  0.19400700  0.90318000  0.66483000  1
  O  858  1  0.56033000  0.41673900  0.34949900  1
  O  870  1  0.05754200  0.08625200  0.65294600  1
  O  882  1  0.30677700  0.40280600  0.66654400  1
  O  894  1  0.80975000  0.09897800  0.33604000  1
  O  906  1  0.29623900  0.13954200  0.17780900  1
  O  918  1  0.79458100  0.35927300  0.82407700  1
  O  930  1  0.54846900  0.07348100  0.88969100  1
  O  942  1  0.04192500  0.42731600  0.10979600  1
  O  954  1  0.70684800  0.86176100  0.82333600  1
  O  966  1  0.20868000  0.64213500  0.17741400  1
  O  978  1  0.45374000  0.92739200  0.11206200  1
  O  990  1  0.96012800  0.57430900  0.89091500  1
  O  1002  1  0.79705700  0.63886100  0.67755000  1
  O  1014  1  0.29566000  0.86018900  0.32423000  1
  O  1026  1  0.04903500  0.57321800  0.38951700  1
  O  1038  1  0.54250900  0.92763900  0.60973200  1
  O  1050  1  0.20606800  0.36245900  0.32361900  1
  O  1062  1  0.70752900  0.14113400  0.67725000  1
  O  1074  1  0.95324200  0.42765300  0.61221300  1
  O  1086  1  0.45948900  0.07401400  0.39096100  1
  O  1098  1  0.11515900  0.98245300  0.13681400  1
  O  1110  1  0.59677600  0.52037400  0.86463500  1
  O  1122  1  0.36705600  0.11439600  0.73208500  1
  O  1134  1  0.84950100  0.38694600  0.26917200  1
  O  1146  1  0.39638000  0.52795500  0.13717400  1
  O  1158  1  0.88206100  0.97198700  0.86575600  1
  O  1170  1  0.12841100  0.38524700  0.72232900  1
  O  1182  1  0.64177600  0.11513500  0.27918100  1
  O  1194  1  0.63481600  0.88626200  0.26912700  1
  O  1206  1  0.15202000  0.61482700  0.73219300  1
  O  1218  1  0.87419500  0.61536000  0.27888700  1
  O  1230  1  0.36038300  0.88680400  0.72217200  1
  O  1242  1  0.61762100  0.48301700  0.63673900  1
  O  1254  1  0.10315400  0.01960600  0.36447300  1
  O  1266  1  0.89055300  0.02874100  0.63645500  1
  O  1278  1  0.38130400  0.47150900  0.36630700  1
  O  1290  1  0.87076500  0.13996100  0.98375900  1
  O  1302  1  0.37906900  0.36184900  0.01786900  1
  O  1314  1  0.12220100  0.26686600  0.89011600  1
  O  1326  1  0.62641100  0.23279100  0.11144300  1
  O  1338  1  0.13401200  0.86133400  0.01728700  1
  O  1350  1  0.62650600  0.63944700  0.98376100  1
  O  1362  1  0.87930700  0.73369000  0.11101800  1
  O  1374  1  0.37526500  0.76915000  0.88991800  1
  O  1386  1  0.37063500  0.64016400  0.48323900  1
  O  1398  1  0.87785500  0.86144300  0.51825000  1
  O  1410  1  0.61814600  0.76630100  0.38984800  1
  O  1422  1  0.12244800  0.73349800  0.61166800  1
  O  1434  1  0.63386200  0.36111900  0.51784200  1
  O  1446  1  0.12769900  0.13984700  0.48338600  1
  O  1458  1  0.38338800  0.23425100  0.61130000  1
  O  1470  1  0.87919100  0.26843700  0.38970700  1
