# generated using pymatgen
data_H15C20N4O
_symmetry_space_group_name_H-M   'P 1'
_cell_length_a   50.18080000
_cell_length_b   57.83650000
_cell_length_c   75.09490000
_cell_angle_alpha   90.00240000
_cell_angle_beta   90.32570000
_cell_angle_gamma   89.57710000
_symmetry_Int_Tables_number   1
_chemical_formula_structural   H15C20N4O
_chemical_formula_sum   'H1440 C1920 N384 O96'
_cell_volume   217937.10649123
_cell_formula_units_Z   96
loop_
 _symmetry_equiv_pos_site_id
 _symmetry_equiv_pos_as_xyz
  1  'x, y, z'
loop_
 _atom_site_type_symbol
 _atom_site_label
 _atom_site_symmetry_multiplicity
 _atom_site_fract_x
 _atom_site_fract_y
 _atom_site_fract_z
 _atom_site_occupancy
  H  7  1  0.88368400  0.84544200  0.85247400  1
  H  8  1  0.86895500  0.82809600  0.90565800  1
  H  15  1  0.97230700  0.90494300  0.82522900  1
  H  16  1  0.92658300  0.90290900  0.87161500  1
  H  19  1  0.93648500  0.88437300  0.90143200  1
  H  20  1  0.91827000  0.83616000  0.83087100  1
  H  31  1  0.13920500  0.18215200  0.85346000  1
  H  32  1  0.15603600  0.19909100  0.90655700  1
  H  39  1  0.04693800  0.12536700  0.82693900  1
  H  40  1  0.09421500  0.12600800  0.87300300  1
  H  43  1  0.08627600  0.14480800  0.90277700  1
  H  44  1  0.10486600  0.19180900  0.83165300  1
  H  55  1  0.88746600  0.18349200  0.63998600  1
  H  56  1  0.87228400  0.20280600  0.58701600  1
  H  63  1  0.97245500  0.12057500  0.66756700  1
  H  64  1  0.92952500  0.12630700  0.61982400  1
  H  67  1  0.93977600  0.14548600  0.59059900  1
  H  68  1  0.92292500  0.19081500  0.66447900  1
  H  79  1  0.13777700  0.84310100  0.64060600  1
  H  80  1  0.15406500  0.82583000  0.58755900  1
  H  87  1  0.04816600  0.90328000  0.66683500  1
  H  88  1  0.09294100  0.89950100  0.62010900  1
  H  91  1  0.08381200  0.88033100  0.59086200  1
  H  92  1  0.10265600  0.83570800  0.66515300  1
  H  103  1  0.14287600  0.18224200  0.14091400  1
  H  104  1  0.15824400  0.19929600  0.08781900  1
  H  111  1  0.05437300  0.12246400  0.16793000  1
  H  112  1  0.10024100  0.12465600  0.12161400  1
  H  115  1  0.09076200  0.14313200  0.09177400  1
  H  116  1  0.10820100  0.19136600  0.16247400  1
  H  127  1  0.88761600  0.84521800  0.14002200  1
  H  128  1  0.86988000  0.82877400  0.08703500  1
  H  135  1  0.97948200  0.90249000  0.16634200  1
  H  136  1  0.93192900  0.90185800  0.12040500  1
  H  139  1  0.93912700  0.88343000  0.09047100  1
  H  140  1  0.92206200  0.83570000  0.16157100  1
  H  151  1  0.14008000  0.84325800  0.35304900  1
  H  152  1  0.15601100  0.82544100  0.40608800  1
  H  159  1  0.05414100  0.90615500  0.32569000  1
  H  160  1  0.09776500  0.90091000  0.37316400  1
  H  163  1  0.08802000  0.88199200  0.40242000  1
  H  164  1  0.10447400  0.83631700  0.32852300  1
  H  175  1  0.88990400  0.18406700  0.35243100  1
  H  176  1  0.87273400  0.20214100  0.40518700  1
  H  183  1  0.97808300  0.12303400  0.32646400  1
  H  184  1  0.93349700  0.12736500  0.37325600  1
  H  187  1  0.94167800  0.14629800  0.40268200  1
  H  188  1  0.92510800  0.19142200  0.32822200  1
  H  199  1  0.38471700  0.34551200  0.85200000  1
  H  200  1  0.36752700  0.32859200  0.90496000  1
  H  207  1  0.47455600  0.40326700  0.82543100  1
  H  208  1  0.42883800  0.40129500  0.87182000  1
  H  211  1  0.43808700  0.38219100  0.90158500  1
  H  212  1  0.41941100  0.33527200  0.83051400  1
  H  223  1  0.64025900  0.67999400  0.85313000  1
  H  224  1  0.65956100  0.69642300  0.90597900  1
  H  231  1  0.54729600  0.62466100  0.82717300  1
  H  232  1  0.59466300  0.62502800  0.87320100  1
  H  235  1  0.58776500  0.64395800  0.90310000  1
  H  236  1  0.60584300  0.69062700  0.83175800  1
  H  247  1  0.38670000  0.68222300  0.64040600  1
  H  248  1  0.36886800  0.70003600  0.58752200  1
  H  255  1  0.47427000  0.62163800  0.66725400  1
  H  256  1  0.43065000  0.62664900  0.61975900  1
  H  259  1  0.44018000  0.64632100  0.59059500  1
  H  260  1  0.42239700  0.69061500  0.66466800  1
  H  271  1  0.64004700  0.34528600  0.64095500  1
  H  272  1  0.65896900  0.32816100  0.58823000  1
  H  279  1  0.54933400  0.40357300  0.66648900  1
  H  280  1  0.59449900  0.40035900  0.61990400  1
  H  283  1  0.58681500  0.38105200  0.59045000  1
  H  284  1  0.60475400  0.33664700  0.66495700  1
  H  295  1  0.64384600  0.68008600  0.14135100  1
  H  296  1  0.66169400  0.69655000  0.08846200  1
  H  303  1  0.55460200  0.62164300  0.16779300  1
  H  304  1  0.60070600  0.62358600  0.12157300  1
  H  307  1  0.59206700  0.64218500  0.09161700  1
  H  308  1  0.60901300  0.69017400  0.16245100  1
  H  319  1  0.38871400  0.34513500  0.14025900  1
  H  320  1  0.36902400  0.32912300  0.08744200  1
  H  327  1  0.48148400  0.40088900  0.16609200  1
  H  328  1  0.43409900  0.40021400  0.12008400  1
  H  331  1  0.44083400  0.38136500  0.09024200  1
  H  332  1  0.42314100  0.33483000  0.16181300  1
  H  343  1  0.64212600  0.34547400  0.35266600  1
  H  344  1  0.66057300  0.32790200  0.40546000  1
  H  351  1  0.55519600  0.40674300  0.32590900  1
  H  352  1  0.59935700  0.40200400  0.37319700  1
  H  355  1  0.59077700  0.38304600  0.40268100  1
  H  356  1  0.60627400  0.33735900  0.32866900  1
  H  367  1  0.38905400  0.68286000  0.35207500  1
  H  368  1  0.36957700  0.69944900  0.40473800  1
  H  375  1  0.47958900  0.62407500  0.32682300  1
  H  376  1  0.43443700  0.62781400  0.37338800  1
  H  379  1  0.44213700  0.64722500  0.40268600  1
  H  380  1  0.42441300  0.69117000  0.32800900  1
  H  391  1  0.86275100  0.87644900  0.95702900  1
  H  398  1  0.91198700  0.80409000  0.03495600  1
  H  399  1  0.90942000  0.87607400  0.04327000  1
  H  400  1  0.93422000  0.83930600  0.94916100  1
  H  402  1  0.89175200  0.80501900  0.99102900  1
  H  403  1  0.90890400  0.78755300  0.00661000  1
  H  404  1  0.92716800  0.80355900  0.99098900  1
  H  406  1  0.85379300  0.86123300  0.00092200  1
  H  407  1  0.84466500  0.88264200  0.98529000  1
  H  408  1  0.86979700  0.88857000  0.00105200  1
  H  411  1  0.87477400  0.86554400  0.92756500  1
  H  412  1  0.90577700  0.81850100  0.06445600  1
  H  419  1  0.16257800  0.15157900  0.95800100  1
  H  426  1  0.11400600  0.22341400  0.03615200  1
  H  427  1  0.11807500  0.15144200  0.04431500  1
  H  428  1  0.09066800  0.18832200  0.95029600  1
  H  430  1  0.13317500  0.22291800  0.99216500  1
  H  431  1  0.11609100  0.24008900  0.00784000  1
  H  432  1  0.09774100  0.22388800  0.99224600  1
  H  434  1  0.17232200  0.16673300  0.00192000  1
  H  435  1  0.18132700  0.14546800  0.98621000  1
  H  436  1  0.15656100  0.13928800  0.00197800  1
  H  439  1  0.14949900  0.16178400  0.92852300  1
  H  440  1  0.12105000  0.20903200  0.06560700  1
  H  447  1  0.86653600  0.15351600  0.53536600  1
  H  454  1  0.91461400  0.22594900  0.45776700  1
  H  455  1  0.91238500  0.15403000  0.44924400  1
  H  456  1  0.93745200  0.19062300  0.54355900  1
  H  458  1  0.89471000  0.22499100  0.50161200  1
  H  459  1  0.91156200  0.24238800  0.48611600  1
  H  460  1  0.93011800  0.22621000  0.50175800  1
  H  462  1  0.85713200  0.16854200  0.49137700  1
  H  463  1  0.84846700  0.14718300  0.50700800  1
  H  464  1  0.87365300  0.14122700  0.49141100  1
  H  467  1  0.87900800  0.16369600  0.56497900  1
  H  468  1  0.90801300  0.21172000  0.42821400  1
  H  475  1  0.15981400  0.87383300  0.53640000  1
  H  482  1  0.11318100  0.80167100  0.45787000  1
  H  483  1  0.11557200  0.87363000  0.44959400  1
  H  484  1  0.08862900  0.83689500  0.54340800  1
  H  486  1  0.13232500  0.80241700  0.50201400  1
  H  487  1  0.11569400  0.78509900  0.48622800  1
  H  488  1  0.09691700  0.80123600  0.50164000  1
  H  490  1  0.17013900  0.85863700  0.49260700  1
  H  491  1  0.17857700  0.87998700  0.50836700  1
  H  492  1  0.15377900  0.88602100  0.49232500  1
  H  495  1  0.14676200  0.86366700  0.56575400  1
  H  496  1  0.11993800  0.81600100  0.42844400  1
  H  503  1  0.36293100  0.37557800  0.95692500  1
  H  510  1  0.41190500  0.30303800  0.03504000  1
  H  511  1  0.40854500  0.37501300  0.04319800  1
  H  512  1  0.43390100  0.33776400  0.94902700  1
  H  514  1  0.39237400  0.30362800  0.99098700  1
  H  515  1  0.40950200  0.28637900  0.00672200  1
  H  516  1  0.42780900  0.30248100  0.99118500  1
  H  518  1  0.35386800  0.36055000  0.00087000  1
  H  519  1  0.34488500  0.38188600  0.98514900  1
  H  520  1  0.37010700  0.38778300  0.00084500  1
  H  523  1  0.37497000  0.36499200  0.92742400  1
  H  524  1  0.40400800  0.31765500  0.06442600  1
  H  531  1  0.66566100  0.65006500  0.95792400  1
  H  538  1  0.61751400  0.72176600  0.03632400  1
  H  539  1  0.62177100  0.64978300  0.04433800  1
  H  540  1  0.59380400  0.68691900  0.95037400  1
  H  542  1  0.63629800  0.72146100  0.99226900  1
  H  543  1  0.61927400  0.73853500  0.00803600  1
  H  544  1  0.60086000  0.72234500  0.99247000  1
  H  546  1  0.67562100  0.66516300  0.00184500  1
  H  547  1  0.68455000  0.64393900  0.98608400  1
  H  548  1  0.65984000  0.63772600  0.00188400  1
  H  551  1  0.65233500  0.66003700  0.92844600  1
  H  552  1  0.62550600  0.70720700  0.06570200  1
  H  559  1  0.36469000  0.65296500  0.53537000  1
  H  566  1  0.41214500  0.72545000  0.45748300  1
  H  567  1  0.40974700  0.65349500  0.44926200  1
  H  568  1  0.43512900  0.69070700  0.54356900  1
  H  570  1  0.39282700  0.72485200  0.50143200  1
  H  571  1  0.40960300  0.74208600  0.48579000  1
  H  572  1  0.42824200  0.72595100  0.50141500  1
  H  574  1  0.35511300  0.66791800  0.49136100  1
  H  575  1  0.34658500  0.64660100  0.50705700  1
  H  576  1  0.37181600  0.64068500  0.49148700  1
  H  579  1  0.37693400  0.66330400  0.56495700  1
  H  580  1  0.40404100  0.71084900  0.42807000  1
  H  587  1  0.66418000  0.37515100  0.53642600  1
  H  594  1  0.61742300  0.30320700  0.45769300  1
  H  595  1  0.62058100  0.37516600  0.44961900  1
  H  596  1  0.59313200  0.33802900  0.54341000  1
  H  598  1  0.63606600  0.30358200  0.50192500  1
  H  599  1  0.61939000  0.28649400  0.48601100  1
  H  600  1  0.60064500  0.30272300  0.50138000  1
  H  602  1  0.67448000  0.36014700  0.49257100  1
  H  603  1  0.68293100  0.38138300  0.50841700  1
  H  604  1  0.65808600  0.38752000  0.49243400  1
  H  607  1  0.65100200  0.36522400  0.56580800  1
  H  608  1  0.62526700  0.31770700  0.42835000  1
  H  615  1  0.08352600  0.04255900  0.86841200  1
  H  622  1  0.96158300  0.97175800  0.83813400  1
  H  623  1  0.99058300  0.96131300  0.89028200  1
  H  624  1  0.01223400  0.07966400  0.85923400  1
  H  626  1  0.00780800  0.01284800  0.82574000  1
  H  627  1  0.97923100  0.02824900  0.83327100  1
  H  628  1  0.97555000  0.00301400  0.82037600  1
  H  630  1  0.05913400  0.98860700  0.85641300  1
  H  631  1  0.05707600  0.99089000  0.87997300  1
  H  632  1  0.08495900  0.00179900  0.86866500  1
  H  635  1  0.08014900  0.08637700  0.87295000  1
  H  636  1  0.95335900  0.93672400  0.87712400  1
  H  643  1  0.08397000  0.98371200  0.62490300  1
  H  650  1  0.96157800  0.05543200  0.65333800  1
  H  651  1  0.99095200  0.06601500  0.60154000  1
  H  652  1  0.01233200  0.94731800  0.63179700  1
  H  654  1  0.00791800  0.01387800  0.66605300  1
  H  655  1  0.97951800  0.99871300  0.65817000  1
  H  656  1  0.97554800  0.02389800  0.67111700  1
  H  658  1  0.05906100  0.03769800  0.63686700  1
  H  659  1  0.05771900  0.03599200  0.61324400  1
  H  660  1  0.08529200  0.02450800  0.62497500  1
  H  663  1  0.08037700  0.93969500  0.61977800  1
  H  664  1  0.95365200  0.09098100  0.61456400  1
  H  671  1  0.94280400  0.98535100  0.12489300  1
  H  678  1  0.06497100  0.05585600  0.15507300  1
  H  679  1  0.03624600  0.06619300  0.10284300  1
  H  680  1  0.01398800  0.94807000  0.13404200  1
  H  682  1  0.01844800  0.01504200  0.16748600  1
  H  683  1  0.04696200  0.99946400  0.16006100  1
  H  684  1  0.05074600  0.02474500  0.17288900  1
  H  686  1  0.96740800  0.03924700  0.13682200  1
  H  687  1  0.96947400  0.03694200  0.11326500  1
  H  688  1  0.94153700  0.02612500  0.12456700  1
  H  691  1  0.94603500  0.94149300  0.12039900  1
  H  692  1  0.07349100  0.09075600  0.11603500  1
  H  699  1  0.94145100  0.04277300  0.36819800  1
  H  706  1  0.06412700  0.97119400  0.33997000  1
  H  707  1  0.03465400  0.96039400  0.39171700  1
  H  708  1  0.01327800  0.07900900  0.36164700  1
  H  710  1  0.01744500  0.01245000  0.32720200  1
  H  711  1  0.04573900  0.02775800  0.33508600  1
  H  712  1  0.04988000  0.00258400  0.32215100  1
  H  714  1  0.96625800  0.98878400  0.35620300  1
  H  715  1  0.96756200  0.99036100  0.37982900  1
  H  716  1  0.94003400  0.00195900  0.36811200  1
  H  719  1  0.94513000  0.08682200  0.37334800  1
  H  720  1  0.07199200  0.93553400  0.37878700  1
  H  727  1  0.58492400  0.54166300  0.86782600  1
  H  734  1  0.46312600  0.47020000  0.83842700  1
  H  735  1  0.49316700  0.45966200  0.89031000  1
  H  736  1  0.51305600  0.57835100  0.85972500  1
  H  738  1  0.50873000  0.51168900  0.82579600  1
  H  739  1  0.48017600  0.52686300  0.83362600  1
  H  740  1  0.47645800  0.50168400  0.82066800  1
  H  742  1  0.56076500  0.48768200  0.85571600  1
  H  743  1  0.55925400  0.48965000  0.87931200  1
  H  744  1  0.58675300  0.50090700  0.86779200  1
  H  747  1  0.58133600  0.58531500  0.87266000  1
  H  748  1  0.45566100  0.43505200  0.87734800  1
  H  755  1  0.58606000  0.48443700  0.62542400  1
  H  762  1  0.46336200  0.55625000  0.65298100  1
  H  763  1  0.49367100  0.56711200  0.60146000  1
  H  764  1  0.51408700  0.44821500  0.63130400  1
  H  766  1  0.50943700  0.51457900  0.66591700  1
  H  767  1  0.48115300  0.49949500  0.65775700  1
  H  768  1  0.47699300  0.52460700  0.67076500  1
  H  770  1  0.56110800  0.53838100  0.63741000  1
  H  771  1  0.56027500  0.53691700  0.61377000  1
  H  772  1  0.58754700  0.52523200  0.62569900  1
  H  775  1  0.58259500  0.44060200  0.62015200  1
  H  776  1  0.45596000  0.59191300  0.61427400  1
  H  783  1  0.44441900  0.48358600  0.12482900  1
  H  790  1  0.56597200  0.55475700  0.15499800  1
  H  791  1  0.53707200  0.56505900  0.10280200  1
  H  792  1  0.51595900  0.44667000  0.13362300  1
  H  794  1  0.51990700  0.51352300  0.16735600  1
  H  795  1  0.54854200  0.49818300  0.15985100  1
  H  796  1  0.55212700  0.52343000  0.17274500  1
  H  798  1  0.46865100  0.53754100  0.13693000  1
  H  799  1  0.47059500  0.53543000  0.11335700  1
  H  800  1  0.44281500  0.52435200  0.12468100  1
  H  803  1  0.44791900  0.43982400  0.12019600  1
  H  804  1  0.57429500  0.58969300  0.11603300  1
  H  811  1  0.44335200  0.54362000  0.36842200  1
  H  818  1  0.56588800  0.47220200  0.34001900  1
  H  819  1  0.53663500  0.46136100  0.39182400  1
  H  820  1  0.51507600  0.58006200  0.36202700  1
  H  822  1  0.51930300  0.51360300  0.32740100  1
  H  823  1  0.54763700  0.52885900  0.33528500  1
  H  824  1  0.55171500  0.50372300  0.32229300  1
  H  826  1  0.46834100  0.48974900  0.35629700  1
  H  827  1  0.46958200  0.49121400  0.37993000  1
  H  828  1  0.44204900  0.50280800  0.36821700  1
  H  831  1  0.44679800  0.58758600  0.37362000  1
  H  832  1  0.57407700  0.43662300  0.37874800  1
  H  839  1  0.82833900  0.76824200  0.89810700  1
  H  846  1  0.68629000  0.75934500  0.85751800  1
  H  847  1  0.73109500  0.69863900  0.86646700  1
  H  848  1  0.81305600  0.80436300  0.85045700  1
  H  850  1  0.73352200  0.79773500  0.87338300  1
  H  851  1  0.70511700  0.79635300  0.85951500  1
  H  852  1  0.73698600  0.79658400  0.84983800  1
  H  854  1  0.76458100  0.74630300  0.90346900  1
  H  855  1  0.79785800  0.74273500  0.91058100  1
  H  856  1  0.78529500  0.72474800  0.89366500  1
  H  859  1  0.86249500  0.79211500  0.88534100  1
  H  860  1  0.66853600  0.71680100  0.85076400  1
  H  867  1  0.19759900  0.25856100  0.89859200  1
  H  874  1  0.33852200  0.26592600  0.85700500  1
  H  875  1  0.29452200  0.32699100  0.86592100  1
  H  876  1  0.21102100  0.22174100  0.85112300  1
  H  878  1  0.29150100  0.22798900  0.87342500  1
  H  879  1  0.31943000  0.22905900  0.85932200  1
  H  880  1  0.28722100  0.22895200  0.84990600  1
  H  882  1  0.26179700  0.27997500  0.90343400  1
  H  883  1  0.22878200  0.28387800  0.91073300  1
  H  884  1  0.24099400  0.30157900  0.89361900  1
  H  887  1  0.16277600  0.23494500  0.88622100  1
  H  888  1  0.35636100  0.30839500  0.84984200  1
  H  895  1  0.82714800  0.24256600  0.60558200  1
  H  902  1  0.68449100  0.26727700  0.64044800  1
  H  903  1  0.73172000  0.32424600  0.62648600  1
  H  904  1  0.80764500  0.22169800  0.65761300  1
  H  906  1  0.73033400  0.22475700  0.62823800  1
  H  907  1  0.70156600  0.22931000  0.64116300  1
  H  908  1  0.73306200  0.22914300  0.65161400  1
  H  910  1  0.76519100  0.26560700  0.59449200  1
  H  911  1  0.79907900  0.26661200  0.58848300  1
  H  912  1  0.78565100  0.28868100  0.60194500  1
  H  915  1  0.85126400  0.21051100  0.64422300  1
  H  916  1  0.66955200  0.31104300  0.64461600  1
  H  923  1  0.19639500  0.76676600  0.59568000  1
  H  930  1  0.33905400  0.76173100  0.63524000  1
  H  931  1  0.29662800  0.69987500  0.62816600  1
  H  932  1  0.21007500  0.80371100  0.64310700  1
  H  934  1  0.28982200  0.79858800  0.61912200  1
  H  935  1  0.31850300  0.79830500  0.63279100  1
  H  936  1  0.28679400  0.79824000  0.64270800  1
  H  938  1  0.26122800  0.74645100  0.59030800  1
  H  939  1  0.22812900  0.74188400  0.58330200  1
  H  940  1  0.24175200  0.72444500  0.60030200  1
  H  943  1  0.16107300  0.78986200  0.60854400  1
  H  944  1  0.35838800  0.71923300  0.64286200  1
  H  951  1  0.19901300  0.25925800  0.09552700  1
  H  958  1  0.34139400  0.26633300  0.13599600  1
  H  959  1  0.29763500  0.32756600  0.12691800  1
  H  960  1  0.21407900  0.22267000  0.14299000  1
  H  962  1  0.29349700  0.22849200  0.12022300  1
  H  963  1  0.32195300  0.22957400  0.13405900  1
  H  964  1  0.29010600  0.22978400  0.14376900  1
  H  966  1  0.26302100  0.28059200  0.09008600  1
  H  967  1  0.22974900  0.28453300  0.08307400  1
  H  968  1  0.24264500  0.30228900  0.10002300  1
  H  971  1  0.16467500  0.23552000  0.10818600  1
  H  972  1  0.35984700  0.30869700  0.14269600  1
  H  979  1  0.82978900  0.76848300  0.09517100  1
  H  986  1  0.68887100  0.76016000  0.13622900  1
  H  987  1  0.73375300  0.69936200  0.12816800  1
  H  988  1  0.81608100  0.80523600  0.14264100  1
  H  990  1  0.73566300  0.79826800  0.11982900  1
  H  991  1  0.70760700  0.79717800  0.13381900  1
  H  992  1  0.73972100  0.79769500  0.14337000  1
  H  994  1  0.76577900  0.74666100  0.09036900  1
  H  995  1  0.79882000  0.74291300  0.08306900  1
  H  996  1  0.78672000  0.72516900  0.10019400  1
  H  999  1  0.86442800  0.79233500  0.10757900  1
  H  1000  1  0.67131700  0.71767900  0.14346700  1
  H  1007  1  0.19844200  0.76564900  0.39753800  1
  H  1014  1  0.33976000  0.76117500  0.35695100  1
  H  1015  1  0.29776200  0.69914600  0.36392400  1
  H  1016  1  0.21077300  0.80335700  0.35039800  1
  H  1018  1  0.29092800  0.79774100  0.37359800  1
  H  1019  1  0.31921200  0.79766300  0.35978100  1
  H  1020  1  0.28722600  0.79766100  0.35002800  1
  H  1022  1  0.26327300  0.74491000  0.40221500  1
  H  1023  1  0.23037200  0.74031800  0.40937200  1
  H  1024  1  0.24337800  0.72317300  0.39208700  1
  H  1027  1  0.16294300  0.78943500  0.38532900  1
  H  1028  1  0.35896700  0.71851100  0.34901600  1
  H  1035  1  0.82913800  0.24231800  0.38649200  1
  H  1042  1  0.68474100  0.26613800  0.35361400  1
  H  1043  1  0.73253300  0.32335000  0.36644200  1
  H  1044  1  0.80742400  0.22072900  0.33487500  1
  H  1046  1  0.73134300  0.22383400  0.36526500  1
  H  1047  1  0.70193200  0.22820600  0.35273500  1
  H  1048  1  0.73290600  0.22803600  0.34183800  1
  H  1050  1  0.76752700  0.26510200  0.39823300  1
  H  1051  1  0.80165900  0.26629300  0.40382300  1
  H  1052  1  0.78752500  0.28819900  0.39042100  1
  H  1055  1  0.85192700  0.20997700  0.34785400  1
  H  1056  1  0.66936300  0.30961900  0.34948700  1
  H  1063  1  0.06272700  0.89794400  0.72249300  1
  H  1070  1  0.94492100  0.84155800  0.77080100  1
  H  1071  1  0.01450700  0.85622000  0.80009500  1
  H  1072  1  0.03745600  0.83345400  0.70301100  1
  H  1074  1  0.96764100  0.86064900  0.73003100  1
  H  1075  1  0.94383400  0.84214100  0.73951200  1
  H  1076  1  0.97326800  0.83025700  0.73058700  1
  H  1078  1  0.01650000  0.90266900  0.75636300  1
  H  1079  1  0.04717600  0.91369600  0.74906000  1
  H  1080  1  0.04699200  0.89220900  0.76563100  1
  H  1083  1  0.07896900  0.88491200  0.69461500  1
  H  1084  1  0.94759900  0.83678400  0.80507300  1
  H  1091  1  0.96183400  0.12773600  0.72299300  1
  H  1098  1  0.07786500  0.18643200  0.77196100  1
  H  1099  1  0.00755000  0.17328200  0.80039700  1
  H  1100  1  0.98553000  0.19225700  0.70284800  1
  H  1102  1  0.05599900  0.16564200  0.73136100  1
  H  1103  1  0.07954800  0.18468400  0.74068900  1
  H  1104  1  0.05025400  0.19601600  0.73093600  1
  H  1106  1  0.00805300  0.12473100  0.75735600  1
  H  1107  1  0.97766800  0.11295200  0.74997500  1
  H  1108  1  0.97731100  0.13487700  0.76621100  1
  H  1111  1  0.94463300  0.14032000  0.69500200  1
  H  1112  1  0.07485700  0.19213300  0.80598500  1
  H  1119  1  0.96390700  0.12887400  0.27075700  1
  H  1126  1  0.08155500  0.18571500  0.22244400  1
  H  1127  1  0.01198300  0.17090000  0.19318800  1
  H  1128  1  0.98942200  0.19320200  0.29041300  1
  H  1130  1  0.05902300  0.16635600  0.26319900  1
  H  1131  1  0.08274500  0.18494600  0.25372100  1
  H  1132  1  0.05330600  0.19673900  0.26270600  1
  H  1134  1  0.00990000  0.12429300  0.23673100  1
  H  1135  1  0.97924600  0.11327700  0.24408100  1
  H  1136  1  0.97937500  0.13488000  0.22759800  1
  H  1139  1  0.94771200  0.14187400  0.29870000  1
  H  1140  1  0.07871600  0.19070000  0.18817900  1
  H  1147  1  0.06479000  0.89955000  0.27037800  1
  H  1154  1  0.94879900  0.84110900  0.22129100  1
  H  1155  1  0.01902400  0.85450800  0.19282300  1
  H  1156  1  0.04161200  0.83470300  0.29017900  1
  H  1158  1  0.97077300  0.86156600  0.26195800  1
  H  1159  1  0.94722600  0.84256100  0.25258000  1
  H  1160  1  0.97657800  0.83119700  0.26223700  1
  H  1162  1  0.01828300  0.90273300  0.23619100  1
  H  1163  1  0.04865100  0.91457300  0.24354900  1
  H  1164  1  0.04901600  0.89283400  0.22716400  1
  H  1167  1  0.08234600  0.88669000  0.29818600  1
  H  1168  1  0.95157600  0.83579000  0.18730200  1
  H  1175  1  0.56431300  0.39782300  0.72254800  1
  H  1182  1  0.44676200  0.34036400  0.77068100  1
  H  1183  1  0.51632200  0.35526700  0.79991000  1
  H  1184  1  0.53852600  0.33383900  0.70241400  1
  H  1186  1  0.46911200  0.35998800  0.72995600  1
  H  1187  1  0.44550000  0.34127600  0.73941100  1
  H  1188  1  0.47496700  0.32962200  0.73036500  1
  H  1190  1  0.51849900  0.40203400  0.75669600  1
  H  1191  1  0.54912100  0.41310900  0.74934100  1
  H  1192  1  0.54907000  0.39130700  0.76566600  1
  H  1195  1  0.57974100  0.38566200  0.69432000  1
  H  1196  1  0.44975800  0.33516000  0.80499400  1
  H  1203  1  0.46272000  0.62787700  0.72273000  1
  H  1210  1  0.57879500  0.68586900  0.77214600  1
  H  1211  1  0.50841700  0.67250300  0.80044500  1
  H  1212  1  0.48647600  0.69258600  0.70299200  1
  H  1214  1  0.55694100  0.66557900  0.73139300  1
  H  1215  1  0.58050900  0.68448700  0.74086100  1
  H  1216  1  0.55124200  0.69596500  0.73116900  1
  H  1218  1  0.50896800  0.62445800  0.75704500  1
  H  1219  1  0.47857600  0.61276900  0.74959100  1
  H  1220  1  0.47823500  0.63449700  0.76598300  1
  H  1223  1  0.44582700  0.64051200  0.69476300  1
  H  1224  1  0.57585800  0.69116300  0.80614900  1
  H  1231  1  0.46460800  0.62889200  0.27103400  1
  H  1238  1  0.58228600  0.68505400  0.22234700  1
  H  1239  1  0.51265700  0.67009800  0.19319700  1
  H  1240  1  0.49007100  0.69343800  0.29028100  1
  H  1242  1  0.55972000  0.66616300  0.26322000  1
  H  1243  1  0.58347900  0.68462300  0.25363100  1
  H  1244  1  0.55406300  0.69654900  0.26255000  1
  H  1246  1  0.51066900  0.62393900  0.23708900  1
  H  1247  1  0.48000900  0.61299000  0.24448600  1
  H  1248  1  0.48015600  0.63439000  0.22784800  1
  H  1251  1  0.44869000  0.64193800  0.29895700  1
  H  1252  1  0.57957200  0.68964500  0.18811800  1
  H  1259  1  0.56611900  0.39963300  0.27024600  1
  H  1266  1  0.45037600  0.34008800  0.22140200  1
  H  1267  1  0.52056900  0.35370900  0.19298000  1
  H  1268  1  0.54249300  0.33526200  0.29069000  1
  H  1270  1  0.47199900  0.36111500  0.26199400  1
  H  1271  1  0.44864100  0.34190100  0.25266500  1
  H  1272  1  0.47802700  0.33078000  0.26243800  1
  H  1274  1  0.51997500  0.40229900  0.23582200  1
  H  1275  1  0.55028700  0.41420300  0.24321200  1
  H  1276  1  0.55079200  0.39216300  0.22707200  1
  H  1279  1  0.58301100  0.38755800  0.29835900  1
  H  1280  1  0.45340900  0.33434000  0.18739400  1
  H  1287  1  0.60469300  0.84544200  0.82584100  1
  H  1288  1  0.58996400  0.82809600  0.87902500  1
  H  1295  1  0.69331600  0.90494300  0.79859600  1
  H  1296  1  0.64759200  0.90290900  0.84498200  1
  H  1299  1  0.65749400  0.88437300  0.87479900  1
  H  1300  1  0.63927900  0.83616000  0.80423800  1
  H  1311  1  0.86021400  0.18215200  0.82682700  1
  H  1312  1  0.87704500  0.19909100  0.87992400  1
  H  1319  1  0.76794700  0.12536700  0.80030600  1
  H  1320  1  0.81522400  0.12600800  0.84637000  1
  H  1323  1  0.80728500  0.14480800  0.87614400  1
  H  1324  1  0.82587500  0.19180900  0.80502000  1
  H  1335  1  0.60847500  0.18349200  0.61335300  1
  H  1336  1  0.59329300  0.20280600  0.56038300  1
  H  1343  1  0.69346400  0.12057500  0.64093400  1
  H  1344  1  0.65053400  0.12630700  0.59319100  1
  H  1347  1  0.66078500  0.14548600  0.56396600  1
  H  1348  1  0.64393400  0.19081500  0.63784600  1
  H  1359  1  0.85878600  0.84310100  0.61397300  1
  H  1360  1  0.87507400  0.82583000  0.56092600  1
  H  1367  1  0.76917500  0.90328000  0.64020200  1
  H  1368  1  0.81395000  0.89950100  0.59347600  1
  H  1371  1  0.80482100  0.88033100  0.56422900  1
  H  1372  1  0.82366500  0.83570800  0.63852000  1
  H  1383  1  0.86388500  0.18224200  0.11428100  1
  H  1384  1  0.87925300  0.19929600  0.06118600  1
  H  1391  1  0.77538200  0.12246400  0.14129700  1
  H  1392  1  0.82125000  0.12465600  0.09498100  1
  H  1395  1  0.81177100  0.14313200  0.06514100  1
  H  1396  1  0.82921000  0.19136600  0.13584100  1
  H  1407  1  0.60862500  0.84521800  0.11338900  1
  H  1408  1  0.59088900  0.82877400  0.06040200  1
  H  1415  1  0.70049100  0.90249000  0.13970900  1
  H  1416  1  0.65293800  0.90185800  0.09377200  1
  H  1419  1  0.66013600  0.88343000  0.06383800  1
  H  1420  1  0.64307100  0.83570000  0.13493800  1
  H  1431  1  0.86108900  0.84325800  0.32641600  1
  H  1432  1  0.87702000  0.82544100  0.37945500  1
  H  1439  1  0.77515000  0.90615500  0.29905700  1
  H  1440  1  0.81877400  0.90091000  0.34653100  1
  H  1443  1  0.80902900  0.88199200  0.37578700  1
  H  1444  1  0.82548300  0.83631700  0.30189000  1
  H  1455  1  0.61091300  0.18406700  0.32579800  1
  H  1456  1  0.59374300  0.20214100  0.37855400  1
  H  1463  1  0.69909200  0.12303400  0.29983100  1
  H  1464  1  0.65450600  0.12736500  0.34662300  1
  H  1467  1  0.66268700  0.14629800  0.37604900  1
  H  1468  1  0.64611700  0.19142200  0.30158900  1
  H  1479  1  0.10572600  0.34551200  0.82536700  1
  H  1480  1  0.08853600  0.32859200  0.87832700  1
  H  1487  1  0.19556500  0.40326700  0.79879800  1
  H  1488  1  0.14984700  0.40129500  0.84518700  1
  H  1491  1  0.15909600  0.38219100  0.87495200  1
  H  1492  1  0.14042000  0.33527200  0.80388100  1
  H  1503  1  0.36126800  0.67999400  0.82649700  1
  H  1504  1  0.38057000  0.69642300  0.87934600  1
  H  1511  1  0.26830500  0.62466100  0.80054000  1
  H  1512  1  0.31567200  0.62502800  0.84656800  1
  H  1515  1  0.30877400  0.64395800  0.87646700  1
  H  1516  1  0.32685200  0.69062700  0.80512500  1
  H  1527  1  0.10770900  0.68222300  0.61377300  1
  H  1528  1  0.08987700  0.70003600  0.56088900  1
  H  1535  1  0.19527900  0.62163800  0.64062100  1
  H  1536  1  0.15165900  0.62664900  0.59312600  1
  H  1539  1  0.16118900  0.64632100  0.56396200  1
  H  1540  1  0.14340600  0.69061500  0.63803500  1
  H  1551  1  0.36105600  0.34528600  0.61432200  1
  H  1552  1  0.37997800  0.32816100  0.56159700  1
  H  1559  1  0.27034300  0.40357300  0.63985600  1
  H  1560  1  0.31550800  0.40035900  0.59327100  1
  H  1563  1  0.30782400  0.38105200  0.56381700  1
  H  1564  1  0.32576300  0.33664700  0.63832400  1
  H  1575  1  0.36485500  0.68008600  0.11471800  1
  H  1576  1  0.38270300  0.69655000  0.06182900  1
  H  1583  1  0.27561100  0.62164300  0.14116000  1
  H  1584  1  0.32171500  0.62358600  0.09494000  1
  H  1587  1  0.31307600  0.64218500  0.06498400  1
  H  1588  1  0.33002200  0.69017400  0.13581800  1
  H  1599  1  0.10972300  0.34513500  0.11362600  1
  H  1600  1  0.09003300  0.32912300  0.06080900  1
  H  1607  1  0.20249300  0.40088900  0.13945900  1
  H  1608  1  0.15510800  0.40021400  0.09345100  1
  H  1611  1  0.16184300  0.38136500  0.06360900  1
  H  1612  1  0.14415000  0.33483000  0.13518000  1
  H  1623  1  0.36313500  0.34547400  0.32603300  1
  H  1624  1  0.38158200  0.32790200  0.37882700  1
  H  1631  1  0.27620500  0.40674300  0.29927600  1
  H  1632  1  0.32036600  0.40200400  0.34656400  1
  H  1635  1  0.31178600  0.38304600  0.37604800  1
  H  1636  1  0.32728300  0.33735900  0.30203600  1
  H  1647  1  0.11006300  0.68286000  0.32544200  1
  H  1648  1  0.09058600  0.69944900  0.37810500  1
  H  1655  1  0.20059800  0.62407500  0.30019000  1
  H  1656  1  0.15544600  0.62781400  0.34675500  1
  H  1659  1  0.16314600  0.64722500  0.37605300  1
  H  1660  1  0.14542200  0.69117000  0.30137600  1
  H  1671  1  0.58376000  0.87644900  0.93039600  1
  H  1678  1  0.63299600  0.80409000  0.00832300  1
  H  1679  1  0.63042900  0.87607400  0.01663700  1
  H  1680  1  0.65522900  0.83930600  0.92252800  1
  H  1682  1  0.61276100  0.80501900  0.96439600  1
  H  1683  1  0.62991300  0.78755300  0.97997700  1
  H  1684  1  0.64817700  0.80355900  0.96435600  1
  H  1686  1  0.57480200  0.86123300  0.97428900  1
  H  1687  1  0.56567400  0.88264200  0.95865700  1
  H  1688  1  0.59080600  0.88857000  0.97441900  1
  H  1691  1  0.59578300  0.86554400  0.90093200  1
  H  1692  1  0.62678600  0.81850100  0.03782300  1
  H  1699  1  0.88358700  0.15157900  0.93136800  1
  H  1706  1  0.83501500  0.22341400  0.00951900  1
  H  1707  1  0.83908400  0.15144200  0.01768200  1
  H  1708  1  0.81167700  0.18832200  0.92366300  1
  H  1710  1  0.85418400  0.22291800  0.96553200  1
  H  1711  1  0.83710000  0.24008900  0.98120700  1
  H  1712  1  0.81875000  0.22388800  0.96561300  1
  H  1714  1  0.89333100  0.16673300  0.97528700  1
  H  1715  1  0.90233580  0.14546800  0.95957700  1
  H  1716  1  0.87757000  0.13928800  0.97534500  1
  H  1719  1  0.87050800  0.16178400  0.90189000  1
  H  1720  1  0.84205900  0.20903200  0.03897400  1
  H  1727  1  0.58754500  0.15351600  0.50873300  1
  H  1734  1  0.63562300  0.22594900  0.43113400  1
  H  1735  1  0.63339400  0.15403000  0.42261100  1
  H  1736  1  0.65846100  0.19062300  0.51692600  1
  H  1738  1  0.61571900  0.22499100  0.47497900  1
  H  1739  1  0.63257100  0.24238800  0.45948300  1
  H  1740  1  0.65112700  0.22621000  0.47512500  1
  H  1742  1  0.57814100  0.16854200  0.46474400  1
  H  1743  1  0.56947600  0.14718300  0.48037500  1
  H  1744  1  0.59466200  0.14122700  0.46477800  1
  H  1747  1  0.60001700  0.16369600  0.53834600  1
  H  1748  1  0.62902200  0.21172000  0.40158100  1
  H  1755  1  0.88082300  0.87383300  0.50976700  1
  H  1762  1  0.83419000  0.80167100  0.43123700  1
  H  1763  1  0.83658100  0.87363000  0.42296100  1
  H  1764  1  0.80963800  0.83689500  0.51677500  1
  H  1766  1  0.85333400  0.80241700  0.47538100  1
  H  1767  1  0.83670300  0.78509900  0.45959500  1
  H  1768  1  0.81792600  0.80123600  0.47500700  1
  H  1770  1  0.89114800  0.85863700  0.46597400  1
  H  1771  1  0.89958600  0.87998700  0.48173400  1
  H  1772  1  0.87478800  0.88602100  0.46569200  1
  H  1775  1  0.86777100  0.86366700  0.53912100  1
  H  1776  1  0.84094700  0.81600100  0.40181100  1
  H  1783  1  0.08394000  0.37557800  0.93029200  1
  H  1790  1  0.13291400  0.30303800  0.00840700  1
  H  1791  1  0.12955400  0.37501300  0.01656500  1
  H  1792  1  0.15491000  0.33776400  0.92239400  1
  H  1794  1  0.11338300  0.30362800  0.96435400  1
  H  1795  1  0.13051100  0.28637900  0.98008900  1
  H  1796  1  0.14881800  0.30248100  0.96455200  1
  H  1798  1  0.07487700  0.36055000  0.97423700  1
  H  1799  1  0.06589400  0.38188600  0.95851600  1
  H  1800  1  0.09111600  0.38778300  0.97421200  1
  H  1803  1  0.09597900  0.36499200  0.90079100  1
  H  1804  1  0.12501700  0.31765500  0.03779300  1
  H  1811  1  0.38667000  0.65006500  0.93129100  1
  H  1818  1  0.33852300  0.72176600  0.00969100  1
  H  1819  1  0.34278000  0.64978300  0.01770500  1
  H  1820  1  0.31481300  0.68691900  0.92374100  1
  H  1822  1  0.35730700  0.72146100  0.96563600  1
  H  1823  1  0.34028300  0.73853500  0.98140300  1
  H  1824  1  0.32186900  0.72234500  0.96583700  1
  H  1826  1  0.39663000  0.66516300  0.97521200  1
  H  1827  1  0.40555900  0.64393900  0.95945100  1
  H  1828  1  0.38084900  0.63772600  0.97525100  1
  H  1831  1  0.37334400  0.66003700  0.90181300  1
  H  1832  1  0.34651500  0.70720700  0.03906900  1
  H  1839  1  0.08569900  0.65296500  0.50873700  1
  H  1846  1  0.13315400  0.72545000  0.43085000  1
  H  1847  1  0.13075600  0.65349500  0.42262900  1
  H  1848  1  0.15613800  0.69070700  0.51693600  1
  H  1850  1  0.11383600  0.72485200  0.47479900  1
  H  1851  1  0.13061200  0.74208600  0.45915700  1
  H  1852  1  0.14925100  0.72595100  0.47478200  1
  H  1854  1  0.07612200  0.66791800  0.46472800  1
  H  1855  1  0.06759400  0.64660100  0.48042400  1
  H  1856  1  0.09282500  0.64068500  0.46485400  1
  H  1859  1  0.09794300  0.66330400  0.53832400  1
  H  1860  1  0.12505000  0.71084900  0.40143700  1
  H  1867  1  0.38518900  0.37515100  0.50979300  1
  H  1874  1  0.33843200  0.30320700  0.43106000  1
  H  1875  1  0.34159000  0.37516600  0.42298600  1
  H  1876  1  0.31414100  0.33802900  0.51677700  1
  H  1878  1  0.35707500  0.30358200  0.47529200  1
  H  1879  1  0.34039900  0.28649400  0.45937800  1
  H  1880  1  0.32165400  0.30272300  0.47474700  1
  H  1882  1  0.39548900  0.36014700  0.46593800  1
  H  1883  1  0.40394000  0.38138300  0.48178400  1
  H  1884  1  0.37909500  0.38752000  0.46580100  1
  H  1887  1  0.37201100  0.36522400  0.53917500  1
  H  1888  1  0.34627600  0.31770700  0.40171700  1
  H  1895  1  0.80453500  0.04255900  0.84177900  1
  H  1902  1  0.68259200  0.97175800  0.81150100  1
  H  1903  1  0.71159200  0.96131300  0.86364900  1
  H  1904  1  0.73324300  0.07966400  0.83260100  1
  H  1906  1  0.72881700  0.01284800  0.79910700  1
  H  1907  1  0.70024000  0.02824900  0.80663800  1
  H  1908  1  0.69655900  0.00301400  0.79374300  1
  H  1910  1  0.78014300  0.98860700  0.82978000  1
  H  1911  1  0.77808500  0.99089000  0.85334000  1
  H  1912  1  0.80596800  0.00179900  0.84203200  1
  H  1915  1  0.80115800  0.08637700  0.84631700  1
  H  1916  1  0.67436800  0.93672400  0.85049100  1
  H  1923  1  0.80497900  0.98371200  0.59827000  1
  H  1930  1  0.68258700  0.05543200  0.62670500  1
  H  1931  1  0.71196100  0.06601500  0.57490700  1
  H  1932  1  0.73334100  0.94731800  0.60516400  1
  H  1934  1  0.72892700  0.01387800  0.63942000  1
  H  1935  1  0.70052700  0.99871300  0.63153700  1
  H  1936  1  0.69655700  0.02389800  0.64448400  1
  H  1938  1  0.78007000  0.03769800  0.61023400  1
  H  1939  1  0.77872800  0.03599200  0.58661100  1
  H  1940  1  0.80630100  0.02450800  0.59834200  1
  H  1943  1  0.80138600  0.93969500  0.59314500  1
  H  1944  1  0.67466100  0.09098100  0.58793100  1
  H  1951  1  0.66381300  0.98535100  0.09826000  1
  H  1958  1  0.78598000  0.05585600  0.12844000  1
  H  1959  1  0.75725500  0.06619300  0.07621000  1
  H  1960  1  0.73499700  0.94807000  0.10740900  1
  H  1962  1  0.73945700  0.01504200  0.14085300  1
  H  1963  1  0.76797100  0.99946400  0.13342800  1
  H  1964  1  0.77175500  0.02474500  0.14625600  1
  H  1966  1  0.68841700  0.03924700  0.11018900  1
  H  1967  1  0.69048300  0.03694200  0.08663200  1
  H  1968  1  0.66254600  0.02612500  0.09793400  1
  H  1971  1  0.66704400  0.94149300  0.09376600  1
  H  1972  1  0.79450000  0.09075600  0.08940200  1
  H  1979  1  0.66246000  0.04277300  0.34156500  1
  H  1986  1  0.78513600  0.97119400  0.31333700  1
  H  1987  1  0.75566300  0.96039400  0.36508400  1
  H  1988  1  0.73428700  0.07900900  0.33501400  1
  H  1990  1  0.73845400  0.01245000  0.30056900  1
  H  1991  1  0.76674800  0.02775800  0.30845300  1
  H  1992  1  0.77088900  0.00258400  0.29551800  1
  H  1994  1  0.68726700  0.98878400  0.32957000  1
  H  1995  1  0.68857100  0.99036100  0.35319600  1
  H  1996  1  0.66104300  0.00195900  0.34147900  1
  H  1999  1  0.66613900  0.08682200  0.34671500  1
  H  2000  1  0.79300100  0.93553400  0.35215400  1
  H  2007  1  0.30593300  0.54166300  0.84119300  1
  H  2014  1  0.18413500  0.47020000  0.81179400  1
  H  2015  1  0.21417600  0.45966200  0.86367700  1
  H  2016  1  0.23406500  0.57835100  0.83309200  1
  H  2018  1  0.22973900  0.51168900  0.79916300  1
  H  2019  1  0.20118500  0.52686300  0.80699300  1
  H  2020  1  0.19746700  0.50168400  0.79403500  1
  H  2022  1  0.28177400  0.48768200  0.82908300  1
  H  2023  1  0.28026300  0.48965000  0.85267900  1
  H  2024  1  0.30776200  0.50090700  0.84115900  1
  H  2027  1  0.30234500  0.58531500  0.84602700  1
  H  2028  1  0.17667000  0.43505200  0.85071500  1
  H  2035  1  0.30706900  0.48443700  0.59879100  1
  H  2042  1  0.18437100  0.55625000  0.62634800  1
  H  2043  1  0.21468000  0.56711200  0.57482700  1
  H  2044  1  0.23509600  0.44821500  0.60467100  1
  H  2046  1  0.23044600  0.51457900  0.63928400  1
  H  2047  1  0.20216200  0.49949500  0.63112400  1
  H  2048  1  0.19800200  0.52460700  0.64413200  1
  H  2050  1  0.28211700  0.53838100  0.61077700  1
  H  2051  1  0.28128400  0.53691700  0.58713700  1
  H  2052  1  0.30855600  0.52523200  0.59906600  1
  H  2055  1  0.30360400  0.44060200  0.59351900  1
  H  2056  1  0.17696900  0.59191300  0.58764100  1
  H  2063  1  0.16542800  0.48358600  0.09819600  1
  H  2070  1  0.28698100  0.55475700  0.12836500  1
  H  2071  1  0.25808100  0.56505900  0.07616900  1
  H  2072  1  0.23696800  0.44667000  0.10699000  1
  H  2074  1  0.24091600  0.51352300  0.14072300  1
  H  2075  1  0.26955100  0.49818300  0.13321800  1
  H  2076  1  0.27313600  0.52343000  0.14611200  1
  H  2078  1  0.18966000  0.53754100  0.11029700  1
  H  2079  1  0.19160400  0.53543000  0.08672400  1
  H  2080  1  0.16382400  0.52435200  0.09804800  1
  H  2083  1  0.16892800  0.43982400  0.09356300  1
  H  2084  1  0.29530400  0.58969300  0.08940000  1
  H  2091  1  0.16436100  0.54362000  0.34178900  1
  H  2098  1  0.28689700  0.47220200  0.31338600  1
  H  2099  1  0.25764400  0.46136100  0.36519100  1
  H  2100  1  0.23608500  0.58006200  0.33539400  1
  H  2102  1  0.24031200  0.51360300  0.30076800  1
  H  2103  1  0.26864600  0.52885900  0.30865200  1
  H  2104  1  0.27272400  0.50372300  0.29566000  1
  H  2106  1  0.18935000  0.48974900  0.32966400  1
  H  2107  1  0.19059100  0.49121400  0.35329700  1
  H  2108  1  0.16305800  0.50280800  0.34158400  1
  H  2111  1  0.16780700  0.58758600  0.34698700  1
  H  2112  1  0.29508600  0.43662300  0.35211500  1
  H  2119  1  0.54934800  0.76824200  0.87147400  1
  H  2126  1  0.40729900  0.75934500  0.83088500  1
  H  2127  1  0.45210400  0.69863900  0.83983400  1
  H  2128  1  0.53406500  0.80436300  0.82382400  1
  H  2130  1  0.45453100  0.79773500  0.84675000  1
  H  2131  1  0.42612600  0.79635300  0.83288200  1
  H  2132  1  0.45799500  0.79658400  0.82320500  1
  H  2134  1  0.48559000  0.74630300  0.87683600  1
  H  2135  1  0.51886700  0.74273500  0.88394800  1
  H  2136  1  0.50630400  0.72474800  0.86703200  1
  H  2139  1  0.58350400  0.79211500  0.85870800  1
  H  2140  1  0.38954500  0.71680100  0.82413100  1
  H  2147  1  0.91860780  0.25856100  0.87195900  1
  H  2154  1  0.05953100  0.26592600  0.83037200  1
  H  2155  1  0.01553100  0.32699100  0.83928800  1
  H  2156  1  0.93202980  0.22174100  0.82449000  1
  H  2158  1  0.01251000  0.22798900  0.84679200  1
  H  2159  1  0.04043900  0.22905900  0.83268900  1
  H  2160  1  0.00823000  0.22895200  0.82327300  1
  H  2162  1  0.98280580  0.27997500  0.87680100  1
  H  2163  1  0.94979080  0.28387800  0.88410000  1
  H  2164  1  0.96200280  0.30157900  0.86698600  1
  H  2167  1  0.88378500  0.23494500  0.85958800  1
  H  2168  1  0.07737000  0.30839500  0.82320900  1
  H  2175  1  0.54815700  0.24256600  0.57894900  1
  H  2182  1  0.40550000  0.26727700  0.61381500  1
  H  2183  1  0.45272900  0.32424600  0.59985300  1
  H  2184  1  0.52865400  0.22169800  0.63098000  1
  H  2186  1  0.45134300  0.22475700  0.60160500  1
  H  2187  1  0.42257500  0.22931000  0.61453000  1
  H  2188  1  0.45407100  0.22914300  0.62498100  1
  H  2190  1  0.48620000  0.26560700  0.56785900  1
  H  2191  1  0.52008800  0.26661200  0.56185000  1
  H  2192  1  0.50666000  0.28868100  0.57531200  1
  H  2195  1  0.57227300  0.21051100  0.61759000  1
  H  2196  1  0.39056100  0.31104300  0.61798300  1
  H  2203  1  0.91740380  0.76676600  0.56904700  1
  H  2210  1  0.06006300  0.76173100  0.60860700  1
  H  2211  1  0.01763700  0.69987500  0.60153300  1
  H  2212  1  0.93108380  0.80371100  0.61647400  1
  H  2214  1  0.01083100  0.79858800  0.59248900  1
  H  2215  1  0.03951200  0.79830500  0.60615800  1
  H  2216  1  0.00780300  0.79824000  0.61607500  1
  H  2218  1  0.98223680  0.74645100  0.56367500  1
  H  2219  1  0.94913780  0.74188400  0.55666900  1
  H  2220  1  0.96276080  0.72444500  0.57366900  1
  H  2223  1  0.88208200  0.78986200  0.58191100  1
  H  2224  1  0.07939700  0.71923300  0.61622900  1
  H  2231  1  0.92002180  0.25925800  0.06889400  1
  H  2238  1  0.06240300  0.26633300  0.10936300  1
  H  2239  1  0.01864400  0.32756600  0.10028500  1
  H  2240  1  0.93508780  0.22267000  0.11635700  1
  H  2242  1  0.01450600  0.22849200  0.09359000  1
  H  2243  1  0.04296200  0.22957400  0.10742600  1
  H  2244  1  0.01111500  0.22978400  0.11713600  1
  H  2246  1  0.98402980  0.28059200  0.06345300  1
  H  2247  1  0.95075780  0.28453300  0.05644100  1
  H  2248  1  0.96365380  0.30228900  0.07339000  1
  H  2251  1  0.88568400  0.23552000  0.08155300  1
  H  2252  1  0.08085600  0.30869700  0.11606300  1
  H  2259  1  0.55079800  0.76848300  0.06853800  1
  H  2266  1  0.40988000  0.76016000  0.10959600  1
  H  2267  1  0.45476200  0.69936200  0.10153500  1
  H  2268  1  0.53709000  0.80523600  0.11600800  1
  H  2270  1  0.45667200  0.79826800  0.09319600  1
  H  2271  1  0.42861600  0.79717800  0.10718600  1
  H  2272  1  0.46073000  0.79769500  0.11673700  1
  H  2274  1  0.48678800  0.74666100  0.06373600  1
  H  2275  1  0.51982900  0.74291300  0.05643600  1
  H  2276  1  0.50772900  0.72516900  0.07356100  1
  H  2279  1  0.58543700  0.79233500  0.08094600  1
  H  2280  1  0.39232600  0.71767900  0.11683400  1
  H  2287  1  0.91945080  0.76564900  0.37090500  1
  H  2294  1  0.06076900  0.76117500  0.33031800  1
  H  2295  1  0.01877100  0.69914600  0.33729100  1
  H  2296  1  0.93178180  0.80335700  0.32376500  1
  H  2298  1  0.01193700  0.79774100  0.34696500  1
  H  2299  1  0.04022100  0.79766300  0.33314800  1
  H  2300  1  0.00823500  0.79766100  0.32339500  1
  H  2302  1  0.98428180  0.74491000  0.37558200  1
  H  2303  1  0.95138080  0.74031800  0.38273900  1
  H  2304  1  0.96438680  0.72317300  0.36545400  1
  H  2307  1  0.88395200  0.78943500  0.35869600  1
  H  2308  1  0.07997600  0.71851100  0.32238300  1
  H  2315  1  0.55014700  0.24231800  0.35985900  1
  H  2322  1  0.40575000  0.26613800  0.32698100  1
  H  2323  1  0.45354200  0.32335000  0.33980900  1
  H  2324  1  0.52843300  0.22072900  0.30824200  1
  H  2326  1  0.45235200  0.22383400  0.33863200  1
  H  2327  1  0.42294100  0.22820600  0.32610200  1
  H  2328  1  0.45391500  0.22803600  0.31520500  1
  H  2330  1  0.48853600  0.26510200  0.37160000  1
  H  2331  1  0.52266800  0.26629300  0.37719000  1
  H  2332  1  0.50853400  0.28819900  0.36378800  1
  H  2335  1  0.57293600  0.20997700  0.32122100  1
  H  2336  1  0.39037200  0.30961900  0.32285400  1
  H  2343  1  0.78373600  0.89794400  0.69586000  1
  H  2350  1  0.66593000  0.84155800  0.74416800  1
  H  2351  1  0.73551600  0.85622000  0.77346200  1
  H  2352  1  0.75846500  0.83345400  0.67637800  1
  H  2354  1  0.68865000  0.86064900  0.70339800  1
  H  2355  1  0.66484300  0.84214100  0.71287900  1
  H  2356  1  0.69427700  0.83025700  0.70395400  1
  H  2358  1  0.73750900  0.90266900  0.72973000  1
  H  2359  1  0.76818500  0.91369600  0.72242700  1
  H  2360  1  0.76800100  0.89220900  0.73899800  1
  H  2363  1  0.79997800  0.88491200  0.66798200  1
  H  2364  1  0.66860800  0.83678400  0.77844000  1
  H  2371  1  0.68284300  0.12773600  0.69636000  1
  H  2378  1  0.79887400  0.18643200  0.74532800  1
  H  2379  1  0.72855900  0.17328200  0.77376400  1
  H  2380  1  0.70653900  0.19225700  0.67621500  1
  H  2382  1  0.77700800  0.16564200  0.70472800  1
  H  2383  1  0.80055700  0.18468400  0.71405600  1
  H  2384  1  0.77126300  0.19601600  0.70430300  1
  H  2386  1  0.72906200  0.12473100  0.73072300  1
  H  2387  1  0.69867700  0.11295200  0.72334200  1
  H  2388  1  0.69832000  0.13487700  0.73957800  1
  H  2391  1  0.66564200  0.14032000  0.66836900  1
  H  2392  1  0.79586600  0.19213300  0.77935200  1
  H  2399  1  0.68491600  0.12887400  0.24412400  1
  H  2406  1  0.80256400  0.18571500  0.19581100  1
  H  2407  1  0.73299200  0.17090000  0.16655500  1
  H  2408  1  0.71043100  0.19320200  0.26378000  1
  H  2410  1  0.78003200  0.16635600  0.23656600  1
  H  2411  1  0.80375400  0.18494600  0.22708800  1
  H  2412  1  0.77431500  0.19673900  0.23607300  1
  H  2414  1  0.73090900  0.12429300  0.21009800  1
  H  2415  1  0.70025500  0.11327700  0.21744800  1
  H  2416  1  0.70038400  0.13488000  0.20096500  1
  H  2419  1  0.66872100  0.14187400  0.27206700  1
  H  2420  1  0.79972500  0.19070000  0.16154600  1
  H  2427  1  0.78579900  0.89955000  0.24374500  1
  H  2434  1  0.66980800  0.84110900  0.19465800  1
  H  2435  1  0.74003300  0.85450800  0.16619000  1
  H  2436  1  0.76262100  0.83470300  0.26354600  1
  H  2438  1  0.69178200  0.86156600  0.23532500  1
  H  2439  1  0.66823500  0.84256100  0.22594700  1
  H  2440  1  0.69758700  0.83119700  0.23560400  1
  H  2442  1  0.73929200  0.90273300  0.20955800  1
  H  2443  1  0.76966000  0.91457300  0.21691600  1
  H  2444  1  0.77002500  0.89283400  0.20053100  1
  H  2447  1  0.80335500  0.88669000  0.27155300  1
  H  2448  1  0.67258500  0.83579000  0.16066900  1
  H  2455  1  0.28532200  0.39782300  0.69591500  1
  H  2462  1  0.16777100  0.34036400  0.74404800  1
  H  2463  1  0.23733100  0.35526700  0.77327700  1
  H  2464  1  0.25953500  0.33383900  0.67578100  1
  H  2466  1  0.19012100  0.35998800  0.70332300  1
  H  2467  1  0.16650900  0.34127600  0.71277800  1
  H  2468  1  0.19597600  0.32962200  0.70373200  1
  H  2470  1  0.23950800  0.40203400  0.73006300  1
  H  2471  1  0.27013000  0.41310900  0.72270800  1
  H  2472  1  0.27007900  0.39130700  0.73903300  1
  H  2475  1  0.30075000  0.38566200  0.66768700  1
  H  2476  1  0.17076700  0.33516000  0.77836100  1
  H  2483  1  0.18372900  0.62787700  0.69609700  1
  H  2490  1  0.29980400  0.68586900  0.74551300  1
  H  2491  1  0.22942600  0.67250300  0.77381200  1
  H  2492  1  0.20748500  0.69258600  0.67635900  1
  H  2494  1  0.27795000  0.66557900  0.70476000  1
  H  2495  1  0.30151800  0.68448700  0.71422800  1
  H  2496  1  0.27225100  0.69596500  0.70453600  1
  H  2498  1  0.22997700  0.62445800  0.73041200  1
  H  2499  1  0.19958500  0.61276900  0.72295800  1
  H  2500  1  0.19924400  0.63449700  0.73935000  1
  H  2503  1  0.16683600  0.64051200  0.66813000  1
  H  2504  1  0.29686700  0.69116300  0.77951600  1
  H  2511  1  0.18561700  0.62889200  0.24440100  1
  H  2518  1  0.30329500  0.68505400  0.19571400  1
  H  2519  1  0.23366600  0.67009800  0.16656400  1
  H  2520  1  0.21108000  0.69343800  0.26364800  1
  H  2522  1  0.28072900  0.66616300  0.23658700  1
  H  2523  1  0.30448800  0.68462300  0.22699800  1
  H  2524  1  0.27507200  0.69654900  0.23591700  1
  H  2526  1  0.23167800  0.62393900  0.21045600  1
  H  2527  1  0.20101800  0.61299000  0.21785300  1
  H  2528  1  0.20116500  0.63439000  0.20121500  1
  H  2531  1  0.16969900  0.64193800  0.27232400  1
  H  2532  1  0.30058100  0.68964500  0.16148500  1
  H  2539  1  0.28712800  0.39963300  0.24361300  1
  H  2546  1  0.17138500  0.34008800  0.19476900  1
  H  2547  1  0.24157800  0.35370900  0.16634700  1
  H  2548  1  0.26350200  0.33526200  0.26405700  1
  H  2550  1  0.19300800  0.36111500  0.23536100  1
  H  2551  1  0.16965000  0.34190100  0.22603200  1
  H  2552  1  0.19903600  0.33078000  0.23580500  1
  H  2554  1  0.24098400  0.40229900  0.20918900  1
  H  2555  1  0.27129600  0.41420300  0.21657900  1
  H  2556  1  0.27180100  0.39216300  0.20043900  1
  H  2559  1  0.30402000  0.38755800  0.27172600  1
  H  2560  1  0.17441800  0.33434000  0.16076100  1
  H  2567  1  0.32570200  0.84544200  0.79920800  1
  H  2568  1  0.31097300  0.82809600  0.85239200  1
  H  2575  1  0.41432500  0.90494300  0.77196300  1
  H  2576  1  0.36860100  0.90290900  0.81834900  1
  H  2579  1  0.37850300  0.88437300  0.84816600  1
  H  2580  1  0.36028800  0.83616000  0.77760500  1
  H  2591  1  0.58122300  0.18215200  0.80019400  1
  H  2592  1  0.59805400  0.19909100  0.85329100  1
  H  2599  1  0.48895600  0.12536700  0.77367300  1
  H  2600  1  0.53623300  0.12600800  0.81973700  1
  H  2603  1  0.52829400  0.14480800  0.84951100  1
  H  2604  1  0.54688400  0.19180900  0.77838700  1
  H  2615  1  0.32948400  0.18349200  0.58672000  1
  H  2616  1  0.31430200  0.20280600  0.53375000  1
  H  2623  1  0.41447300  0.12057500  0.61430100  1
  H  2624  1  0.37154300  0.12630700  0.56655800  1
  H  2627  1  0.38179400  0.14548600  0.53733300  1
  H  2628  1  0.36494300  0.19081500  0.61121300  1
  H  2639  1  0.57979500  0.84310100  0.58734000  1
  H  2640  1  0.59608300  0.82583000  0.53429300  1
  H  2647  1  0.49018400  0.90328000  0.61356900  1
  H  2648  1  0.53495900  0.89950100  0.56684300  1
  H  2651  1  0.52583000  0.88033100  0.53759600  1
  H  2652  1  0.54467400  0.83570800  0.61188700  1
  H  2663  1  0.58489400  0.18224200  0.08764800  1
  H  2664  1  0.60026200  0.19929600  0.03455300  1
  H  2671  1  0.49639100  0.12246400  0.11466400  1
  H  2672  1  0.54225900  0.12465600  0.06834800  1
  H  2675  1  0.53278000  0.14313200  0.03850800  1
  H  2676  1  0.55021900  0.19136600  0.10920800  1
  H  2687  1  0.32963400  0.84521800  0.08675600  1
  H  2688  1  0.31189800  0.82877400  0.03376900  1
  H  2695  1  0.42150000  0.90249000  0.11307600  1
  H  2696  1  0.37394700  0.90185800  0.06713900  1
  H  2699  1  0.38114500  0.88343000  0.03720500  1
  H  2700  1  0.36408000  0.83570000  0.10830500  1
  H  2711  1  0.58209800  0.84325800  0.29978300  1
  H  2712  1  0.59802900  0.82544100  0.35282200  1
  H  2719  1  0.49615900  0.90615500  0.27242400  1
  H  2720  1  0.53978300  0.90091000  0.31989800  1
  H  2723  1  0.53003800  0.88199200  0.34915400  1
  H  2724  1  0.54649200  0.83631700  0.27525700  1
  H  2735  1  0.33192200  0.18406700  0.29916500  1
  H  2736  1  0.31475200  0.20214100  0.35192100  1
  H  2743  1  0.42010100  0.12303400  0.27319800  1
  H  2744  1  0.37551500  0.12736500  0.31999000  1
  H  2747  1  0.38369600  0.14629800  0.34941600  1
  H  2748  1  0.36712600  0.19142200  0.27495600  1
  H  2759  1  0.82673500  0.34551200  0.79873400  1
  H  2760  1  0.80954500  0.32859200  0.85169400  1
  H  2767  1  0.91657370  0.40326700  0.77216500  1
  H  2768  1  0.87085600  0.40129500  0.81855400  1
  H  2771  1  0.88010500  0.38219100  0.84831900  1
  H  2772  1  0.86142900  0.33527200  0.77724800  1
  H  2783  1  0.08227700  0.67999400  0.79986400  1
  H  2784  1  0.10157900  0.69642300  0.85271300  1
  H  2791  1  0.98931370  0.62466100  0.77390700  1
  H  2792  1  0.03668100  0.62502800  0.81993500  1
  H  2795  1  0.02978300  0.64395800  0.84983400  1
  H  2796  1  0.04786100  0.69062700  0.77849200  1
  H  2807  1  0.82871800  0.68222300  0.58714000  1
  H  2808  1  0.81088600  0.70003600  0.53425600  1
  H  2815  1  0.91628770  0.62163800  0.61398800  1
  H  2816  1  0.87266800  0.62664900  0.56649300  1
  H  2819  1  0.88219800  0.64632100  0.53732900  1
  H  2820  1  0.86441500  0.69061500  0.61140200  1
  H  2831  1  0.08206500  0.34528600  0.58768900  1
  H  2832  1  0.10098700  0.32816100  0.53496400  1
  H  2839  1  0.99135166  0.40357300  0.61322300  1
  H  2840  1  0.03651700  0.40035900  0.56663800  1
  H  2843  1  0.02883300  0.38105200  0.53718400  1
  H  2844  1  0.04677200  0.33664700  0.61169100  1
  H  2855  1  0.08586400  0.68008600  0.08808500  1
  H  2856  1  0.10371200  0.69655000  0.03519600  1
  H  2863  1  0.99661966  0.62164300  0.11452700  1
  H  2864  1  0.04272400  0.62358600  0.06830700  1
  H  2867  1  0.03408500  0.64218500  0.03835100  1
  H  2868  1  0.05103100  0.69017400  0.10918500  1
  H  2879  1  0.83073200  0.34513500  0.08699300  1
  H  2880  1  0.81104200  0.32912300  0.03417600  1
  H  2887  1  0.92350170  0.40088900  0.11282600  1
  H  2888  1  0.87611700  0.40021400  0.06681800  1
  H  2891  1  0.88285200  0.38136500  0.03697600  1
  H  2892  1  0.86515900  0.33483000  0.10854700  1
  H  2903  1  0.08414400  0.34547400  0.29940000  1
  H  2904  1  0.10259100  0.32790200  0.35219400  1
  H  2911  1  0.99721366  0.40674300  0.27264300  1
  H  2912  1  0.04137500  0.40200400  0.31993100  1
  H  2915  1  0.03279500  0.38304600  0.34941500  1
  H  2916  1  0.04829200  0.33735900  0.27540300  1
  H  2927  1  0.83107200  0.68286000  0.29880900  1
  H  2928  1  0.81159500  0.69944900  0.35147200  1
  H  2935  1  0.92160670  0.62407500  0.27355700  1
  H  2936  1  0.87645500  0.62781400  0.32012200  1
  H  2939  1  0.88415500  0.64722500  0.34942000  1
  H  2940  1  0.86643100  0.69117000  0.27474300  1
  H  2951  1  0.30476900  0.87644900  0.90376310  1
  H  2958  1  0.35400500  0.80409000  0.98169010  1
  H  2959  1  0.35143800  0.87607400  0.99000407  1
  H  2960  1  0.37623800  0.83930600  0.89589500  1
  H  2962  1  0.33377000  0.80501900  0.93776310  1
  H  2963  1  0.35092200  0.78755300  0.95334410  1
  H  2964  1  0.36918600  0.80355900  0.93772310  1
  H  2966  1  0.29581100  0.86123300  0.94765610  1
  H  2967  1  0.28668300  0.88264200  0.93202410  1
  H  2968  1  0.31181500  0.88857000  0.94778610  1
  H  2971  1  0.31679200  0.86554400  0.87429900  1
  H  2972  1  0.34779500  0.81850100  0.01119000  1
  H  2979  1  0.60459600  0.15157900  0.90473510  1
  H  2986  1  0.55602400  0.22341400  0.98288610  1
  H  2987  1  0.56009300  0.15144200  0.99104907  1
  H  2988  1  0.53268600  0.18832200  0.89703000  1
  H  2990  1  0.57519300  0.22291800  0.93889910  1
  H  2991  1  0.55810900  0.24008900  0.95457410  1
  H  2992  1  0.53975900  0.22388800  0.93898010  1
  H  2994  1  0.61434000  0.16673300  0.94865410  1
  H  2995  1  0.62334500  0.14546800  0.93294410  1
  H  2996  1  0.59857900  0.13928800  0.94871210  1
  H  2999  1  0.59151700  0.16178400  0.87525700  1
  H  3000  1  0.56306800  0.20903200  0.01234100  1
  H  3007  1  0.30855400  0.15351600  0.48210000  1
  H  3014  1  0.35663200  0.22594900  0.40450100  1
  H  3015  1  0.35440300  0.15403000  0.39597800  1
  H  3016  1  0.37947000  0.19062300  0.49029300  1
  H  3018  1  0.33672800  0.22499100  0.44834600  1
  H  3019  1  0.35358000  0.24238800  0.43285000  1
  H  3020  1  0.37213600  0.22621000  0.44849200  1
  H  3022  1  0.29915000  0.16854200  0.43811100  1
  H  3023  1  0.29048500  0.14718300  0.45374200  1
  H  3024  1  0.31567100  0.14122700  0.43814500  1
  H  3027  1  0.32102600  0.16369600  0.51171300  1
  H  3028  1  0.35003100  0.21172000  0.37494800  1
  H  3035  1  0.60183200  0.87383300  0.48313400  1
  H  3042  1  0.55519900  0.80167100  0.40460400  1
  H  3043  1  0.55759000  0.87363000  0.39632800  1
  H  3044  1  0.53064700  0.83689500  0.49014200  1
  H  3046  1  0.57434300  0.80241700  0.44874800  1
  H  3047  1  0.55771200  0.78509900  0.43296200  1
  H  3048  1  0.53893500  0.80123600  0.44837400  1
  H  3050  1  0.61215700  0.85863700  0.43934100  1
  H  3051  1  0.62059500  0.87998700  0.45510100  1
  H  3052  1  0.59579700  0.88602100  0.43905900  1
  H  3055  1  0.58878000  0.86366700  0.51248800  1
  H  3056  1  0.56195600  0.81600100  0.37517800  1
  H  3063  1  0.80494900  0.37557800  0.90365910  1
  H  3070  1  0.85392300  0.30303800  0.98177410  1
  H  3071  1  0.85056300  0.37501300  0.98993210  1
  H  3072  1  0.87591900  0.33776400  0.89576100  1
  H  3074  1  0.83439200  0.30362800  0.93772110  1
  H  3075  1  0.85152000  0.28637900  0.95345610  1
  H  3076  1  0.86982700  0.30248100  0.93791910  1
  H  3078  1  0.79588600  0.36055000  0.94760410  1
  H  3079  1  0.78690300  0.38188600  0.93188310  1
  H  3080  1  0.81212500  0.38778300  0.94757910  1
  H  3083  1  0.81698800  0.36499200  0.87415800  1
  H  3084  1  0.84602600  0.31765500  0.01116000  1
  H  3091  1  0.10767900  0.65006500  0.90465810  1
  H  3098  1  0.05953200  0.72176600  0.98305810  1
  H  3099  1  0.06378900  0.64978300  0.99107207  1
  H  3100  1  0.03582200  0.68691900  0.89710800  1
  H  3102  1  0.07831600  0.72146100  0.93900310  1
  H  3103  1  0.06129200  0.73853500  0.95477010  1
  H  3104  1  0.04287800  0.72234500  0.93920410  1
  H  3106  1  0.11763900  0.66516300  0.94857910  1
  H  3107  1  0.12656800  0.64393900  0.93281810  1
  H  3108  1  0.10185800  0.63772600  0.94861810  1
  H  3111  1  0.09435300  0.66003700  0.87518000  1
  H  3112  1  0.06752400  0.70720700  0.01243600  1
  H  3119  1  0.80670800  0.65296500  0.48210400  1
  H  3126  1  0.85416300  0.72545000  0.40421700  1
  H  3127  1  0.85176500  0.65349500  0.39599600  1
  H  3128  1  0.87714700  0.69070700  0.49030300  1
  H  3130  1  0.83484500  0.72485200  0.44816600  1
  H  3131  1  0.85162100  0.74208600  0.43252400  1
  H  3132  1  0.87026000  0.72595100  0.44814900  1
  H  3134  1  0.79713100  0.66791800  0.43809500  1
  H  3135  1  0.78860300  0.64660100  0.45379100  1
  H  3136  1  0.81383400  0.64068500  0.43822100  1
  H  3139  1  0.81895200  0.66330400  0.51169100  1
  H  3140  1  0.84605900  0.71084900  0.37480400  1
  H  3147  1  0.10619800  0.37515100  0.48316000  1
  H  3154  1  0.05944100  0.30320700  0.40442700  1
  H  3155  1  0.06259900  0.37516600  0.39635300  1
  H  3156  1  0.03515000  0.33802900  0.49014400  1
  H  3158  1  0.07808400  0.30358200  0.44865900  1
  H  3159  1  0.06140800  0.28649400  0.43274500  1
  H  3160  1  0.04266300  0.30272300  0.44811400  1
  H  3162  1  0.11649800  0.36014700  0.43930500  1
  H  3163  1  0.12494900  0.38138300  0.45515100  1
  H  3164  1  0.10010400  0.38752000  0.43916800  1
  H  3167  1  0.09302000  0.36522400  0.51254200  1
  H  3168  1  0.06728500  0.31770700  0.37508400  1
  H  3175  1  0.52554400  0.04255900  0.81514600  1
  H  3182  1  0.40360100  0.97175800  0.78486800  1
  H  3183  1  0.43260100  0.96131300  0.83701600  1
  H  3184  1  0.45425200  0.07966400  0.80596800  1
  H  3186  1  0.44982600  0.01284800  0.77247400  1
  H  3187  1  0.42124900  0.02824900  0.78000500  1
  H  3188  1  0.41756800  0.00301400  0.76711000  1
  H  3190  1  0.50115200  0.98860700  0.80314700  1
  H  3191  1  0.49909400  0.99089000  0.82670700  1
  H  3192  1  0.52697700  0.00179900  0.81539900  1
  H  3195  1  0.52216700  0.08637700  0.81968400  1
  H  3196  1  0.39537700  0.93672400  0.82385800  1
  H  3203  1  0.52598800  0.98371200  0.57163700  1
  H  3210  1  0.40359600  0.05543200  0.60007200  1
  H  3211  1  0.43297000  0.06601500  0.54827400  1
  H  3212  1  0.45435000  0.94731800  0.57853100  1
  H  3214  1  0.44993600  0.01387800  0.61278700  1
  H  3215  1  0.42153600  0.99871300  0.60490400  1
  H  3216  1  0.41756600  0.02389800  0.61785100  1
  H  3218  1  0.50107900  0.03769800  0.58360100  1
  H  3219  1  0.49973700  0.03599200  0.55997800  1
  H  3220  1  0.52731000  0.02450800  0.57170900  1
  H  3223  1  0.52239500  0.93969500  0.56651200  1
  H  3224  1  0.39567000  0.09098100  0.56129800  1
  H  3231  1  0.38482200  0.98535100  0.07162700  1
  H  3238  1  0.50698900  0.05585600  0.10180700  1
  H  3239  1  0.47826400  0.06619300  0.04957700  1
  H  3240  1  0.45600600  0.94807000  0.08077600  1
  H  3242  1  0.46046600  0.01504200  0.11422000  1
  H  3243  1  0.48898000  0.99946400  0.10679500  1
  H  3244  1  0.49276400  0.02474500  0.11962300  1
  H  3246  1  0.40942600  0.03924700  0.08355600  1
  H  3247  1  0.41149200  0.03694200  0.05999900  1
  H  3248  1  0.38355500  0.02612500  0.07130100  1
  H  3251  1  0.38805300  0.94149300  0.06713300  1
  H  3252  1  0.51550900  0.09075600  0.06276900  1
  H  3259  1  0.38346900  0.04277300  0.31493200  1
  H  3266  1  0.50614500  0.97119400  0.28670400  1
  H  3267  1  0.47667200  0.96039400  0.33845100  1
  H  3268  1  0.45529600  0.07900900  0.30838100  1
  H  3270  1  0.45946300  0.01245000  0.27393600  1
  H  3271  1  0.48775700  0.02775800  0.28182000  1
  H  3272  1  0.49189800  0.00258400  0.26888500  1
  H  3274  1  0.40827600  0.98878400  0.30293700  1
  H  3275  1  0.40958000  0.99036100  0.32656300  1
  H  3276  1  0.38205200  0.00195900  0.31484600  1
  H  3279  1  0.38714800  0.08682200  0.32008200  1
  H  3280  1  0.51401000  0.93553400  0.32552100  1
  H  3287  1  0.02694200  0.54166300  0.81456000  1
  H  3294  1  0.90514370  0.47020000  0.78516100  1
  H  3295  1  0.93518470  0.45966200  0.83704400  1
  H  3296  1  0.95507370  0.57835100  0.80645900  1
  H  3298  1  0.95074770  0.51168900  0.77253000  1
  H  3299  1  0.92219370  0.52686300  0.78036000  1
  H  3300  1  0.91847570  0.50168400  0.76740200  1
  H  3302  1  0.00278300  0.48768200  0.80245000  1
  H  3303  1  0.00127200  0.48965000  0.82604600  1
  H  3304  1  0.02877100  0.50090700  0.81452600  1
  H  3307  1  0.02335400  0.58531500  0.81939400  1
  H  3308  1  0.89767900  0.43505200  0.82408200  1
  H  3315  1  0.02807800  0.48443700  0.57215800  1
  H  3322  1  0.90537970  0.55625000  0.59971500  1
  H  3323  1  0.93568870  0.56711200  0.54819400  1
  H  3324  1  0.95610470  0.44821500  0.57803800  1
  H  3326  1  0.95145470  0.51457900  0.61265100  1
  H  3327  1  0.92317070  0.49949500  0.60449100  1
  H  3328  1  0.91901070  0.52460700  0.61749900  1
  H  3330  1  0.00312600  0.53838100  0.58414400  1
  H  3331  1  0.00229300  0.53691700  0.56050400  1
  H  3332  1  0.02956500  0.52523200  0.57243300  1
  H  3335  1  0.02461300  0.44060200  0.56688600  1
  H  3336  1  0.89797800  0.59191300  0.56100800  1
  H  3343  1  0.88643700  0.48358600  0.07156300  1
  H  3350  1  0.00799000  0.55475700  0.10173200  1
  H  3351  1  0.97908970  0.56505900  0.04953600  1
  H  3352  1  0.95797670  0.44667000  0.08035700  1
  H  3354  1  0.96192470  0.51352300  0.11409000  1
  H  3355  1  0.99055966  0.49818300  0.10658500  1
  H  3356  1  0.99414466  0.52343000  0.11947900  1
  H  3358  1  0.91066870  0.53754100  0.08366400  1
  H  3359  1  0.91261270  0.53543000  0.06009100  1
  H  3360  1  0.88483300  0.52435200  0.07141500  1
  H  3363  1  0.88993700  0.43982400  0.06693000  1
  H  3364  1  0.01631300  0.58969300  0.06276700  1
  H  3371  1  0.88537000  0.54362000  0.31515600  1
  H  3378  1  0.00790600  0.47220200  0.28675300  1
  H  3379  1  0.97865270  0.46136100  0.33855800  1
  H  3380  1  0.95709370  0.58006200  0.30876100  1
  H  3382  1  0.96132070  0.51360300  0.27413500  1
  H  3383  1  0.98965470  0.52885900  0.28201900  1
  H  3384  1  0.99373266  0.50372300  0.26902700  1
  H  3386  1  0.91035870  0.48974900  0.30303100  1
  H  3387  1  0.91159970  0.49121400  0.32666400  1
  H  3388  1  0.88406700  0.50280800  0.31495100  1
  H  3391  1  0.88881600  0.58758600  0.32035400  1
  H  3392  1  0.01609500  0.43662300  0.32548200  1
  H  3399  1  0.27035700  0.76824200  0.84484100  1
  H  3406  1  0.12830800  0.75934500  0.80425200  1
  H  3407  1  0.17311300  0.69863900  0.81320100  1
  H  3408  1  0.25507400  0.80436300  0.79719100  1
  H  3410  1  0.17554000  0.79773500  0.82011700  1
  H  3411  1  0.14713500  0.79635300  0.80624900  1
  H  3412  1  0.17900400  0.79658400  0.79657200  1
  H  3414  1  0.20659900  0.74630300  0.85020300  1
  H  3415  1  0.23987600  0.74273500  0.85731500  1
  H  3416  1  0.22731300  0.72474800  0.84039900  1
  H  3419  1  0.30451300  0.79211500  0.83207500  1
  H  3420  1  0.11055400  0.71680100  0.79749800  1
  H  3427  1  0.63961700  0.25856100  0.84532600  1
  H  3434  1  0.78054000  0.26592600  0.80373900  1
  H  3435  1  0.73654000  0.32699100  0.81265500  1
  H  3436  1  0.65303900  0.22174100  0.79785700  1
  H  3438  1  0.73351900  0.22798900  0.82015900  1
  H  3439  1  0.76144800  0.22905900  0.80605600  1
  H  3440  1  0.72923900  0.22895200  0.79664000  1
  H  3442  1  0.70381500  0.27997500  0.85016800  1
  H  3443  1  0.67080000  0.28387800  0.85746700  1
  H  3444  1  0.68301200  0.30157900  0.84035300  1
  H  3447  1  0.60479400  0.23494500  0.83295500  1
  H  3448  1  0.79837900  0.30839500  0.79657600  1
  H  3455  1  0.26916600  0.24256600  0.55231600  1
  H  3462  1  0.12650900  0.26727700  0.58718200  1
  H  3463  1  0.17373800  0.32424600  0.57322000  1
  H  3464  1  0.24966300  0.22169800  0.60434700  1
  H  3466  1  0.17235200  0.22475700  0.57497200  1
  H  3467  1  0.14358400  0.22931000  0.58789700  1
  H  3468  1  0.17508000  0.22914300  0.59834800  1
  H  3470  1  0.20720900  0.26560700  0.54122600  1
  H  3471  1  0.24109700  0.26661200  0.53521700  1
  H  3472  1  0.22766900  0.28868100  0.54867900  1
  H  3475  1  0.29328200  0.21051100  0.59095700  1
  H  3476  1  0.11157000  0.31104300  0.59135000  1
  H  3483  1  0.63841300  0.76676600  0.54241400  1
  H  3490  1  0.78107200  0.76173100  0.58197400  1
  H  3491  1  0.73864600  0.69987500  0.57490000  1
  H  3492  1  0.65209300  0.80371100  0.58984100  1
  H  3494  1  0.73184000  0.79858800  0.56585600  1
  H  3495  1  0.76052100  0.79830500  0.57952500  1
  H  3496  1  0.72881200  0.79824000  0.58944200  1
  H  3498  1  0.70324600  0.74645100  0.53704200  1
  H  3499  1  0.67014700  0.74188400  0.53003600  1
  H  3500  1  0.68377000  0.72444500  0.54703600  1
  H  3503  1  0.60309100  0.78986200  0.55527800  1
  H  3504  1  0.80040600  0.71923300  0.58959600  1
  H  3511  1  0.64103100  0.25925800  0.04226100  1
  H  3518  1  0.78341200  0.26633300  0.08273000  1
  H  3519  1  0.73965300  0.32756600  0.07365200  1
  H  3520  1  0.65609700  0.22267000  0.08972400  1
  H  3522  1  0.73551500  0.22849200  0.06695700  1
  H  3523  1  0.76397100  0.22957400  0.08079300  1
  H  3524  1  0.73212400  0.22978400  0.09050300  1
  H  3526  1  0.70503900  0.28059200  0.03682000  1
  H  3527  1  0.67176700  0.28453300  0.02980800  1
  H  3528  1  0.68466300  0.30228900  0.04675700  1
  H  3531  1  0.60669300  0.23552000  0.05492000  1
  H  3532  1  0.80186500  0.30869700  0.08943000  1
  H  3539  1  0.27180700  0.76848300  0.04190500  1
  H  3546  1  0.13088900  0.76016000  0.08296300  1
  H  3547  1  0.17577100  0.69936200  0.07490200  1
  H  3548  1  0.25809900  0.80523600  0.08937500  1
  H  3550  1  0.17768100  0.79826800  0.06656300  1
  H  3551  1  0.14962500  0.79717800  0.08055300  1
  H  3552  1  0.18173900  0.79769500  0.09010400  1
  H  3554  1  0.20779700  0.74666100  0.03710300  1
  H  3555  1  0.24083800  0.74291300  0.02980300  1
  H  3556  1  0.22873800  0.72516900  0.04692800  1
  H  3559  1  0.30644600  0.79233500  0.05431300  1
  H  3560  1  0.11333500  0.71767900  0.09020100  1
  H  3567  1  0.64046000  0.76564900  0.34427200  1
  H  3574  1  0.78177800  0.76117500  0.30368500  1
  H  3575  1  0.73978000  0.69914600  0.31065800  1
  H  3576  1  0.65279100  0.80335700  0.29713200  1
  H  3578  1  0.73294600  0.79774100  0.32033200  1
  H  3579  1  0.76123000  0.79766300  0.30651500  1
  H  3580  1  0.72924400  0.79766100  0.29676200  1
  H  3582  1  0.70529100  0.74491000  0.34894900  1
  H  3583  1  0.67239000  0.74031800  0.35610600  1
  H  3584  1  0.68539600  0.72317300  0.33882100  1
  H  3587  1  0.60496100  0.78943500  0.33206300  1
  H  3588  1  0.80098500  0.71851100  0.29575000  1
  H  3595  1  0.27115600  0.24231800  0.33322600  1
  H  3602  1  0.12675900  0.26613800  0.30034800  1
  H  3603  1  0.17455100  0.32335000  0.31317600  1
  H  3604  1  0.24944200  0.22072900  0.28160900  1
  H  3606  1  0.17336100  0.22383400  0.31199900  1
  H  3607  1  0.14395000  0.22820600  0.29946900  1
  H  3608  1  0.17492400  0.22803600  0.28857200  1
  H  3610  1  0.20954500  0.26510200  0.34496700  1
  H  3611  1  0.24367700  0.26629300  0.35055700  1
  H  3612  1  0.22954300  0.28819900  0.33715500  1
  H  3615  1  0.29394500  0.20997700  0.29458800  1
  H  3616  1  0.11138100  0.30961900  0.29622100  1
  H  3623  1  0.50474500  0.89794400  0.66922700  1
  H  3630  1  0.38693900  0.84155800  0.71753500  1
  H  3631  1  0.45652500  0.85622000  0.74682900  1
  H  3632  1  0.47947400  0.83345400  0.64974500  1
  H  3634  1  0.40965900  0.86064900  0.67676500  1
  H  3635  1  0.38585200  0.84214100  0.68624600  1
  H  3636  1  0.41528600  0.83025700  0.67732100  1
  H  3638  1  0.45851800  0.90266900  0.70309700  1
  H  3639  1  0.48919400  0.91369600  0.69579400  1
  H  3640  1  0.48901000  0.89220900  0.71236500  1
  H  3643  1  0.52098700  0.88491200  0.64134900  1
  H  3644  1  0.38961700  0.83678400  0.75180700  1
  H  3651  1  0.40385200  0.12773600  0.66972700  1
  H  3658  1  0.51988300  0.18643200  0.71869500  1
  H  3659  1  0.44956800  0.17328200  0.74713100  1
  H  3660  1  0.42754800  0.19225700  0.64958200  1
  H  3662  1  0.49801700  0.16564200  0.67809500  1
  H  3663  1  0.52156600  0.18468400  0.68742300  1
  H  3664  1  0.49227200  0.19601600  0.67767000  1
  H  3666  1  0.45007100  0.12473100  0.70409000  1
  H  3667  1  0.41968600  0.11295200  0.69670900  1
  H  3668  1  0.41932900  0.13487700  0.71294500  1
  H  3671  1  0.38665100  0.14032000  0.64173600  1
  H  3672  1  0.51687500  0.19213300  0.75271900  1
  H  3679  1  0.40592500  0.12887400  0.21749100  1
  H  3686  1  0.52357300  0.18571500  0.16917800  1
  H  3687  1  0.45400100  0.17090000  0.13992200  1
  H  3688  1  0.43144000  0.19320200  0.23714700  1
  H  3690  1  0.50104100  0.16635600  0.20993300  1
  H  3691  1  0.52476300  0.18494600  0.20045500  1
  H  3692  1  0.49532400  0.19673900  0.20944000  1
  H  3694  1  0.45191800  0.12429300  0.18346500  1
  H  3695  1  0.42126400  0.11327700  0.19081500  1
  H  3696  1  0.42139300  0.13488000  0.17433200  1
  H  3699  1  0.38973000  0.14187400  0.24543400  1
  H  3700  1  0.52073400  0.19070000  0.13491300  1
  H  3707  1  0.50680800  0.89955000  0.21711200  1
  H  3714  1  0.39081700  0.84110900  0.16802500  1
  H  3715  1  0.46104200  0.85450800  0.13955700  1
  H  3716  1  0.48363000  0.83470300  0.23691300  1
  H  3718  1  0.41279100  0.86156600  0.20869200  1
  H  3719  1  0.38924400  0.84256100  0.19931400  1
  H  3720  1  0.41859600  0.83119700  0.20897100  1
  H  3722  1  0.46030100  0.90273300  0.18292500  1
  H  3723  1  0.49066900  0.91457300  0.19028300  1
  H  3724  1  0.49103400  0.89283400  0.17389800  1
  H  3727  1  0.52436400  0.88669000  0.24492000  1
  H  3728  1  0.39359400  0.83579000  0.13403600  1
  H  3735  1  0.00633100  0.39782300  0.66928200  1
  H  3742  1  0.88878000  0.34036400  0.71741500  1
  H  3743  1  0.95833970  0.35526700  0.74664400  1
  H  3744  1  0.98054370  0.33383900  0.64914800  1
  H  3746  1  0.91112970  0.35998800  0.67669000  1
  H  3747  1  0.88751800  0.34127600  0.68614500  1
  H  3748  1  0.91698470  0.32962200  0.67709900  1
  H  3750  1  0.96051670  0.40203400  0.70343000  1
  H  3751  1  0.99113866  0.41310900  0.69607500  1
  H  3752  1  0.99108766  0.39130700  0.71240000  1
  H  3755  1  0.02175900  0.38566200  0.64105400  1
  H  3756  1  0.89177600  0.33516000  0.75172800  1
  H  3763  1  0.90473770  0.62787700  0.66946400  1
  H  3770  1  0.02081300  0.68586900  0.71888000  1
  H  3771  1  0.95043470  0.67250300  0.74717900  1
  H  3772  1  0.92849370  0.69258600  0.64972600  1
  H  3774  1  0.99895866  0.66557900  0.67812700  1
  H  3775  1  0.02252700  0.68448700  0.68759500  1
  H  3776  1  0.99325966  0.69596500  0.67790300  1
  H  3778  1  0.95098570  0.62445800  0.70377900  1
  H  3779  1  0.92059370  0.61276900  0.69632500  1
  H  3780  1  0.92025270  0.63449700  0.71271700  1
  H  3783  1  0.88784500  0.64051200  0.64149700  1
  H  3784  1  0.01787600  0.69116300  0.75288300  1
  H  3791  1  0.90662570  0.62889200  0.21776800  1
  H  3798  1  0.02430400  0.68505400  0.16908100  1
  H  3799  1  0.95467470  0.67009800  0.13993100  1
  H  3800  1  0.93208870  0.69343800  0.23701500  1
  H  3802  1  0.00173800  0.66616300  0.20995400  1
  H  3803  1  0.02549700  0.68462300  0.20036500  1
  H  3804  1  0.99608066  0.69654900  0.20928400  1
  H  3806  1  0.95268670  0.62393900  0.18382300  1
  H  3807  1  0.92202670  0.61299000  0.19122000  1
  H  3808  1  0.92217370  0.63439000  0.17458200  1
  H  3811  1  0.89070800  0.64193800  0.24569100  1
  H  3812  1  0.02159000  0.68964500  0.13485200  1
  H  3819  1  0.00813700  0.39963300  0.21698000  1
  H  3826  1  0.89239400  0.34008800  0.16813600  1
  H  3827  1  0.96258670  0.35370900  0.13971400  1
  H  3828  1  0.98451070  0.33526200  0.23742400  1
  H  3830  1  0.91401670  0.36111500  0.20872800  1
  H  3831  1  0.89065900  0.34190100  0.19939900  1
  H  3832  1  0.92004470  0.33078000  0.20917200  1
  H  3834  1  0.96199270  0.40229900  0.18255600  1
  H  3835  1  0.99230466  0.41420300  0.18994600  1
  H  3836  1  0.99280966  0.39216300  0.17380600  1
  H  3839  1  0.02502900  0.38755800  0.24509300  1
  H  3840  1  0.89542700  0.33434000  0.13412800  1
  C  1  1  0.91223600  0.85885500  0.87071100  1
  C  2  1  0.88933300  0.84608300  0.86557500  1
  C  3  1  0.87397500  0.83392000  0.87813400  1
  C  4  1  0.88046300  0.83620000  0.89634800  1
  C  5  1  0.90253400  0.84920300  0.90207700  1
  C  6  1  0.91881800  0.85995300  0.88920500  1
  C  9  1  0.92763400  0.87106000  0.85762800  1
  C  10  1  0.93742600  0.86037300  0.84181000  1
  C  11  1  0.95360200  0.87288400  0.82972700  1
  C  12  1  0.96009700  0.89598500  0.83367400  1
  C  13  1  0.95071200  0.90705100  0.84909500  1
  C  14  1  0.93395800  0.89463300  0.86064300  1
  C  25  1  0.11069600  0.16947800  0.87183200  1
  C  26  1  0.13390400  0.18164400  0.86658700  1
  C  27  1  0.15002900  0.19341600  0.87906100  1
  C  28  1  0.14400200  0.19127700  0.89730800  1
  C  29  1  0.12164200  0.17886900  0.90315000  1
  C  30  1  0.10459800  0.16859000  0.89036200  1
  C  33  1  0.09443200  0.15772300  0.85883600  1
  C  34  1  0.08478100  0.16860400  0.84298000  1
  C  35  1  0.06755300  0.15664300  0.83109500  1
  C  36  1  0.05982100  0.13393000  0.83527800  1
  C  37  1  0.06938900  0.12253600  0.85056900  1
  C  38  1  0.08710200  0.13440200  0.86195900  1
  C  49  1  0.91588000  0.17053300  0.62167200  1
  C  50  1  0.89298200  0.18332800  0.62690200  1
  C  51  1  0.87713900  0.19557100  0.61438800  1
  C  52  1  0.88377700  0.19419300  0.59624800  1
  C  53  1  0.90594700  0.18119000  0.59044500  1
  C  54  1  0.92229900  0.16981100  0.60319700  1
  C  57  1  0.93084800  0.15747900  0.63467400  1
  C  58  1  0.93984400  0.16704200  0.65114100  1
  C  59  1  0.95445300  0.15329400  0.66350300  1
  C  60  1  0.96094400  0.13025800  0.65898700  1
  C  61  1  0.95224500  0.12032200  0.64294500  1
  C  62  1  0.93659500  0.13384600  0.63120500  1
  C  73  1  0.10893900  0.85586600  0.62213300  1
  C  74  1  0.13226800  0.84355400  0.62746800  1
  C  75  1  0.14830500  0.83167600  0.61502300  1
  C  76  1  0.14203300  0.83372000  0.59676000  1
  C  77  1  0.11946200  0.84618900  0.59084600  1
  C  78  1  0.10252300  0.85664800  0.60358700  1
  C  81  1  0.09330100  0.86835400  0.63503400  1
  C  82  1  0.08453000  0.85847800  0.65138900  1
  C  83  1  0.06860300  0.87154800  0.66335600  1
  C  84  1  0.06054300  0.89412600  0.65854100  1
  C  85  1  0.06937700  0.90451600  0.64278300  1
  C  86  1  0.08626800  0.89172900  0.63145000  1
  C  97  1  0.11449600  0.16876500  0.12258900  1
  C  98  1  0.13726100  0.18166100  0.12780500  1
  C  99  1  0.15273200  0.19379800  0.11529700  1
  C  100  1  0.14627000  0.19162200  0.09707400  1
  C  101  1  0.12375100  0.17922200  0.09127600  1
  C  102  1  0.10805900  0.16766600  0.10407000  1
  C  105  1  0.09909300  0.15648100  0.13563400  1
  C  106  1  0.08920500  0.16712200  0.15144900  1
  C  107  1  0.07302400  0.15456100  0.16349900  1
  C  108  1  0.06659100  0.13146100  0.15951200  1
  C  109  1  0.07604000  0.12045000  0.14408900  1
  C  110  1  0.09281700  0.13290600  0.13258100  1
  C  121  1  0.91568700  0.85828000  0.12151200  1
  C  122  1  0.89276800  0.84580600  0.12687200  1
  C  123  1  0.87655600  0.83402900  0.11446600  1
  C  124  1  0.88235400  0.83622500  0.09619700  1
  C  125  1  0.90496700  0.84822400  0.09023900  1
  C  126  1  0.92146400  0.85934600  0.10293400  1
  C  129  1  0.93198200  0.87007200  0.13448000  1
  C  130  1  0.94181500  0.85916000  0.15028000  1
  C  131  1  0.95900400  0.87115300  0.16217000  1
  C  132  1  0.96659600  0.89390800  0.15801700  1
  C  133  1  0.95689800  0.90531300  0.14276700  1
  C  134  1  0.93916100  0.89343600  0.13140100  1
  C  145  1  0.11176200  0.85670100  0.37136800  1
  C  146  1  0.13453700  0.84369600  0.36614200  1
  C  147  1  0.15016800  0.83133800  0.37864000  1
  C  148  1  0.14385000  0.83328000  0.39685600  1
  C  149  1  0.12127500  0.84575800  0.40265500  1
  C  150  1  0.10541600  0.85758800  0.38986700  1
  C  153  1  0.09669300  0.86968100  0.35835300  1
  C  154  1  0.08757900  0.86002000  0.34194200  1
  C  155  1  0.07266800  0.87363300  0.32964700  1
  C  156  1  0.06589500  0.89659200  0.33420400  1
  C  157  1  0.07462000  0.90660300  0.35020600  1
  C  158  1  0.09066600  0.89326700  0.36183400  1
  C  169  1  0.91810500  0.17120700  0.37118000  1
  C  170  1  0.89515300  0.18381500  0.36560300  1
  C  171  1  0.87873800  0.19560000  0.37791000  1
  C  172  1  0.88502100  0.19421000  0.39614700  1
  C  173  1  0.90772200  0.18203700  0.40230200  1
  C  174  1  0.92403600  0.17038000  0.38978900  1
  C  177  1  0.93370300  0.15853500  0.35836300  1
  C  178  1  0.94265800  0.16831800  0.34201500  1
  C  179  1  0.95828100  0.15504600  0.33000600  1
  C  180  1  0.96590100  0.13234700  0.33478300  1
  C  181  1  0.95690900  0.12207300  0.35054600  1
  C  182  1  0.94030500  0.13507100  0.36192800  1
  C  193  1  0.41348800  0.35758900  0.87057900  1
  C  194  1  0.39012200  0.34571600  0.86514800  1
  C  195  1  0.37341000  0.33466200  0.87758100  1
  C  196  1  0.37961000  0.33640900  0.89581700  1
  C  197  1  0.40239100  0.34829900  0.90182200  1
  C  198  1  0.41957100  0.35842800  0.88915300  1
  C  201  1  0.42950100  0.36954600  0.85769400  1
  C  202  1  0.43908300  0.35891000  0.84179400  1
  C  203  1  0.45550100  0.37133000  0.82979400  1
  C  204  1  0.46229400  0.39433100  0.83385800  1
  C  205  1  0.45303300  0.40536800  0.84932400  1
  C  206  1  0.43618200  0.39300900  0.86084300  1
  C  217  1  0.61189100  0.66820300  0.87187900  1
  C  218  1  0.63530800  0.67975800  0.86631500  1
  C  219  1  0.65262300  0.69056500  0.87863600  1
  C  220  1  0.64706500  0.68876200  0.89691400  1
  C  221  1  0.62430500  0.67711400  0.90306000  1
  C  222  1  0.60645800  0.66734800  0.89050100  1
  C  225  1  0.59505200  0.65674500  0.85905700  1
  C  226  1  0.58548900  0.66767600  0.84319500  1
  C  227  1  0.56810400  0.65584200  0.83133100  1
  C  228  1  0.56020300  0.63317600  0.83552400  1
  C  229  1  0.56974500  0.62171200  0.85079600  1
  C  230  1  0.58752000  0.63348800  0.86219500  1
  C  241  1  0.41549400  0.67043400  0.62183600  1
  C  242  1  0.39205000  0.68228300  0.62728000  1
  C  243  1  0.37513100  0.69357600  0.61487300  1
  C  244  1  0.38118800  0.69211700  0.59664200  1
  C  245  1  0.40411000  0.68028800  0.59063400  1
  C  246  1  0.42150200  0.66989500  0.60328700  1
  C  249  1  0.43124100  0.65779200  0.63467500  1
  C  250  1  0.44008800  0.66745900  0.65114800  1
  C  251  1  0.45529500  0.65399100  0.66338300  1
  C  252  1  0.46244000  0.63113600  0.65874500  1
  C  253  1  0.45384400  0.62108600  0.64272400  1
  C  254  1  0.43768900  0.63432100  0.63109800  1
  C  265  1  0.61148600  0.35708200  0.62204400  1
  C  266  1  0.63502800  0.34543400  0.62773800  1
  C  267  1  0.65230200  0.33440400  0.61552200  1
  C  268  1  0.64651600  0.33600600  0.59721800  1
  C  269  1  0.62360500  0.34775300  0.59094600  1
  C  270  1  0.60582300  0.35777300  0.60339900  1
  C  273  1  0.59511500  0.36917300  0.63476100  1
  C  274  1  0.58636600  0.35916700  0.65108100  1
  C  275  1  0.57013800  0.37201600  0.66301700  1
  C  276  1  0.56183900  0.39453600  0.65820600  1
  C  277  1  0.57069900  0.40507200  0.64250900  1
  C  278  1  0.58777500  0.39246700  0.63118100  1
  C  289  1  0.61556000  0.66745900  0.12266600  1
  C  290  1  0.63856000  0.67977300  0.12818300  1
  C  291  1  0.65525500  0.69093000  0.11580700  1
  C  292  1  0.64925100  0.68907300  0.09755100  1
  C  293  1  0.62633700  0.67740700  0.09147100  1
  C  294  1  0.60977200  0.66637000  0.10405900  1
  C  297  1  0.59960300  0.65543700  0.13554400  1
  C  298  1  0.58975700  0.66613200  0.15134900  1
  C  299  1  0.57342300  0.65366900  0.16336900  1
  C  300  1  0.56685800  0.63059800  0.15937500  1
  C  301  1  0.57632700  0.61952200  0.14398000  1
  C  302  1  0.59319200  0.63190100  0.13248300  1
  C  313  1  0.41702300  0.35698100  0.12149800  1
  C  314  1  0.39369600  0.34530800  0.12707800  1
  C  315  1  0.37631100  0.33458100  0.11476300  1
  C  316  1  0.38193900  0.33627600  0.09648700  1
  C  317  1  0.40511300  0.34731900  0.09032800  1
  C  318  1  0.42239800  0.35786400  0.10286400  1
  C  321  1  0.43378000  0.36855700  0.13431400  1
  C  322  1  0.44336700  0.35773200  0.15022000  1
  C  323  1  0.46071600  0.36966400  0.16204900  1
  C  324  1  0.46858300  0.39231000  0.15777500  1
  C  325  1  0.45903900  0.40365900  0.14245900  1
  C  326  1  0.44126400  0.39181100  0.13110800  1
  C  337  1  0.61405500  0.35806000  0.37137400  1
  C  338  1  0.63702700  0.34562800  0.36583300  1
  C  339  1  0.65386800  0.33409000  0.37815700  1
  C  340  1  0.64803200  0.33568600  0.39641200  1
  C  341  1  0.62516500  0.34754700  0.40252200  1
  C  342  1  0.60844200  0.35893900  0.38997300  1
  C  345  1  0.59832300  0.37069700  0.35851200  1
  C  346  1  0.58917000  0.36089900  0.34215400  1
  C  347  1  0.57399200  0.37433500  0.32988000  1
  C  348  1  0.56706800  0.39727600  0.33441000  1
  C  349  1  0.57589200  0.40742800  0.35034100  1
  C  350  1  0.59212100  0.39424500  0.36195300  1
  C  361  1  0.41766300  0.67117800  0.37103100  1
  C  362  1  0.39417800  0.68286900  0.36527800  1
  C  363  1  0.37677700  0.69373200  0.37748000  1
  C  364  1  0.38257800  0.69225100  0.39578900  1
  C  365  1  0.40598000  0.68125900  0.40210500  1
  C  366  1  0.42327800  0.67053500  0.38968800  1
  C  369  1  0.43393600  0.65888400  0.35837200  1
  C  370  1  0.44271500  0.66871800  0.34199900  1
  C  371  1  0.45888000  0.65570500  0.33013100  1
  C  372  1  0.46711800  0.63321900  0.33506400  1
  C  373  1  0.45824800  0.62286300  0.35082400  1
  C  374  1  0.44119400  0.63559900  0.36207700  1
  C  385  1  0.89787100  0.85857900  0.94969900  1
  C  386  1  0.92024100  0.84702700  0.95707300  1
  C  388  1  0.90513000  0.85333700  0.98700600  1
  C  389  1  0.88250800  0.86582000  0.98055400  1
  C  390  1  0.87937800  0.86814400  0.96188000  1
  C  392  1  0.90909800  0.84746000  0.00524000  1
  C  393  1  0.91066900  0.82428000  0.01155600  1
  C  394  1  0.91169600  0.82070100  0.03020500  1
  C  395  1  0.91125500  0.83925500  0.04250100  1
  C  396  1  0.91033000  0.86180000  0.03526200  1
  C  401  1  0.90955000  0.80394300  0.99942700  1
  C  405  1  0.86148400  0.87508800  0.99256500  1
  C  409  1  0.90916500  0.83473700  0.06068600  1
  C  410  1  0.89240200  0.85919700  0.93146900  1
  C  413  1  0.12719700  0.16929200  0.95074900  1
  C  414  1  0.10489600  0.18070300  0.95817600  1
  C  416  1  0.12066100  0.17440000  0.98808100  1
  C  417  1  0.14324600  0.16206800  0.98157100  1
  C  418  1  0.14600100  0.15979300  0.96289000  1
  C  420  1  0.11699200  0.18018000  0.00633700  1
  C  421  1  0.11511800  0.20331800  0.01270800  1
  C  422  1  0.11445700  0.20682300  0.03136700  1
  C  423  1  0.11556600  0.18823600  0.04362600  1
  C  424  1  0.11669800  0.16572900  0.03634100  1
  C  429  1  0.11556900  0.22371500  0.00062400  1
  C  433  1  0.16458600  0.15287300  0.99352800  1
  C  437  1  0.11805200  0.19273800  0.06181200  1
  C  438  1  0.13219700  0.16858200  0.93249900  1
  C  441  1  0.90135700  0.17144300  0.54286300  1
  C  442  1  0.92352500  0.18292800  0.53558700  1
  C  444  1  0.90838200  0.17655400  0.50557500  1
  C  445  1  0.88600800  0.16407700  0.51192700  1
  C  446  1  0.88299100  0.16181900  0.53059200  1
  C  448  1  0.91216200  0.18246200  0.48736000  1
  C  449  1  0.91356700  0.20566000  0.48110700  1
  C  450  1  0.91444600  0.20931700  0.46247300  1
  C  451  1  0.91402100  0.19083100  0.45012300  1
  C  452  1  0.91327700  0.16825800  0.45729500  1
  C  457  1  0.91241300  0.22597000  0.49326900  1
  C  461  1  0.86511600  0.15473200  0.49981400  1
  C  465  1  0.91174300  0.19547100  0.43194300  1
  C  466  1  0.89609200  0.17076000  0.56108000  1
  C  469  1  0.12475900  0.85603100  0.54331300  1
  C  470  1  0.10274100  0.84455100  0.53566700  1
  C  472  1  0.11855000  0.85085300  0.50591300  1
  C  473  1  0.14083500  0.86326400  0.51264300  1
  C  474  1  0.14343000  0.86557300  0.53135100  1
  C  476  1  0.11512000  0.84501300  0.48762700  1
  C  477  1  0.11381900  0.82184800  0.48128400  1
  C  478  1  0.11325100  0.81828000  0.46262600  1
  C  479  1  0.11391000  0.83683000  0.45033800  1
  C  480  1  0.11453200  0.85936500  0.45758900  1
  C  485  1  0.11475300  0.80149000  0.49341000  1
  C  489  1  0.16204900  0.87249700  0.50089000  1
  C  493  1  0.11643400  0.83227500  0.43217400  1
  C  494  1  0.12966000  0.85674100  0.56161400  1
  C  497  1  0.39778300  0.35734600  0.94956800  1
  C  498  1  0.42001000  0.34559400  0.95694700  1
  C  500  1  0.40505800  0.35210400  0.98691800  1
  C  501  1  0.38257700  0.36477800  0.98044700  1
  C  502  1  0.37944500  0.36709800  0.96176900  1
  C  504  1  0.40901400  0.34629200  0.00519300  1
  C  505  1  0.41076500  0.32314500  0.01158200  1
  C  506  1  0.41152900  0.31963000  0.03025000  1
  C  507  1  0.41069900  0.33820900  0.04251400  1
  C  508  1  0.40973800  0.36072300  0.03522500  1
  C  513  1  0.41006000  0.30274500  0.99950400  1
  C  517  1  0.36166100  0.37428200  0.99243800  1
  C  521  1  0.40824900  0.33374400  0.06069400  1
  C  522  1  0.39235300  0.35814900  0.93132200  1
  C  525  1  0.63030100  0.66784900  0.95074000  1
  C  526  1  0.60806200  0.67929300  0.95822400  1
  C  528  1  0.62392200  0.67292000  0.98811100  1
  C  529  1  0.64646100  0.66057400  0.98153900  1
  C  530  1  0.64913000  0.65831600  0.96284800  1
  C  532  1  0.62033000  0.67863300  0.00640000  1
  C  533  1  0.61845600  0.70174500  0.01283000  1
  C  534  1  0.61795900  0.70519200  0.03150300  1
  C  535  1  0.61921100  0.68657200  0.04372600  1
  C  536  1  0.62029000  0.66408900  0.03639300  1
  C  541  1  0.61875200  0.72218700  0.00078800  1
  C  545  1  0.66784000  0.65133100  0.99344300  1
  C  549  1  0.62185300  0.69101200  0.06191700  1
  C  550  1  0.63516700  0.66704100  0.93246500  1
  C  553  1  0.39929000  0.67119100  0.54287800  1
  C  554  1  0.42129500  0.68289700  0.53559200  1
  C  556  1  0.40625400  0.67635900  0.50555200  1
  C  557  1  0.38401600  0.66371400  0.51193000  1
  C  558  1  0.38103400  0.66142900  0.53059700  1
  C  560  1  0.41000500  0.68216900  0.48729200  1
  C  561  1  0.41139700  0.70532000  0.48092400  1
  C  562  1  0.41202600  0.70885500  0.46226200  1
  C  563  1  0.41140700  0.69029200  0.44998300  1
  C  564  1  0.41078700  0.66777200  0.45725400  1
  C  569  1  0.41045200  0.72571400  0.49300500  1
  C  573  1  0.36318800  0.65419500  0.49984300  1
  C  577  1  0.40877500  0.69479100  0.43179600  1
  C  578  1  0.39404200  0.67036300  0.56110700  1
  C  581  1  0.62922000  0.35721800  0.54333300  1
  C  582  1  0.60723000  0.34571200  0.53567300  1
  C  584  1  0.62295900  0.35215200  0.50590600  1
  C  585  1  0.64521500  0.36459100  0.51265800  1
  C  586  1  0.64783300  0.36684200  0.53137200  1
  C  588  1  0.61950700  0.34640200  0.48758900  1
  C  589  1  0.61800600  0.32327700  0.48116900  1
  C  590  1  0.61761600  0.31979100  0.46249700  1
  C  591  1  0.61861000  0.33838000  0.45026000  1
  C  592  1  0.61931600  0.36087700  0.45757200  1
  C  597  1  0.61857100  0.30285600  0.49323600  1
  C  601  1  0.66638900  0.37393400  0.50092500  1
  C  605  1  0.62130300  0.33389700  0.43209300  1
  C  606  1  0.63406500  0.35802900  0.56164700  1
  C  609  1  0.05056600  0.06466600  0.86386300  1
  C  610  1  0.02272900  0.06460100  0.86097200  1
  C  612  1  0.02091500  0.02329200  0.86295100  1
  C  613  1  0.04893200  0.02205500  0.86594100  1
  C  614  1  0.06331800  0.04304000  0.86638800  1
  C  616  1  0.00401900  0.00373100  0.86245700  1
  C  617  1  0.98795500  0.99744200  0.84757600  1
  C  618  1  0.97291300  0.97686200  0.84880100  1
  C  619  1  0.97336100  0.96297800  0.86432100  1
  C  620  1  0.98915500  0.97062500  0.87873100  1
  C  625  1  0.98756200  0.01108500  0.83078700  1
  C  629  1  0.06339600  0.99964100  0.86786000  1
  C  633  1  0.96003100  0.94208200  0.86539900  1
  C  634  1  0.06504900  0.08500000  0.86440800  1
  C  637  1  0.05079800  0.96198600  0.62831500  1
  C  638  1  0.02285900  0.96228900  0.63045800  1
  C  640  1  0.02115200  0.00358600  0.62893500  1
  C  641  1  0.04925600  0.00459400  0.62666100  1
  C  642  1  0.06368100  0.98346000  0.62634900  1
  C  644  1  0.00424400  0.02327100  0.62931600  1
  C  645  1  0.98808100  0.02955700  0.64406900  1
  C  646  1  0.97295800  0.05026100  0.64275700  1
  C  647  1  0.97353000  0.06424300  0.62729700  1
  C  648  1  0.98942800  0.05658300  0.61300900  1
  C  653  1  0.98769000  0.01580900  0.66080200  1
  C  657  1  0.06370500  0.02688900  0.62536000  1
  C  661  1  0.96037200  0.08534700  0.62627200  1
  C  662  1  0.06524300  0.94151100  0.62815100  1
  C  665  1  0.97569700  0.96316500  0.12943800  1
  C  666  1  0.00354100  0.96315800  0.13229800  1
  C  668  1  0.00549700  0.00445000  0.13028000  1
  C  669  1  0.97748200  0.00576400  0.12731100  1
  C  670  1  0.96301500  0.98482000  0.12689800  1
  C  672  1  0.02247000  0.02395500  0.13075200  1
  C  673  1  0.03850200  0.03024200  0.14564800  1
  C  674  1  0.05366600  0.05074800  0.14439400  1
  C  675  1  0.05336300  0.06456400  0.12883600  1
  C  676  1  0.03758200  0.05692100  0.11441900  1
  C  681  1  0.03873000  0.01668100  0.16247700  1
  C  685  1  0.96310800  0.02821900  0.12537800  1
  C  689  1  0.06676700  0.08541900  0.12775200  1
  C  690  1  0.96115200  0.94286300  0.12892900  1
  C  693  1  0.97472500  0.06442800  0.36494900  1
  C  694  1  0.00268300  0.06406400  0.36291800  1
  C  696  1  0.00424000  0.02276500  0.36433300  1
  C  697  1  0.97611900  0.02181200  0.36652300  1
  C  698  1  0.96175400  0.04298000  0.36682900  1
  C  700  1  0.02112400  0.00307300  0.36393300  1
  C  701  1  0.03736300  0.99687800  0.34919800  1
  C  702  1  0.05265800  0.97627300  0.35053400  1
  C  703  1  0.05216800  0.96228400  0.36599300  1
  C  704  1  0.03612700  0.96983000  0.38024700  1
  C  709  1  0.03768100  0.01062100  0.33245900  1
  C  713  1  0.96161500  0.99954000  0.36773900  1
  C  717  1  0.06555700  0.94127800  0.36703900  1
  C  718  1  0.96037600  0.08495400  0.36507000  1
  C  721  1  0.55163500  0.56357700  0.86381700  1
  C  722  1  0.52373700  0.56334400  0.86123500  1
  C  724  1  0.52238800  0.52200700  0.86294200  1
  C  725  1  0.55048000  0.52093300  0.86560100  1
  C  726  1  0.56466500  0.54201800  0.86603700  1
  C  728  1  0.50568900  0.50233000  0.86251600  1
  C  729  1  0.48942700  0.49601600  0.84773900  1
  C  730  1  0.47460700  0.47532300  0.84901800  1
  C  731  1  0.47547600  0.46136000  0.86449100  1
  C  732  1  0.49145300  0.46902800  0.87880000  1
  C  737  1  0.48859900  0.50976600  0.83100700  1
  C  741  1  0.56519700  0.49860000  0.86719900  1
  C  745  1  0.46231300  0.44040000  0.86561500  1
  C  746  1  0.56594000  0.58400000  0.86434800  1
  C  749  1  0.55270300  0.46278900  0.62833800  1
  C  750  1  0.52471300  0.46316200  0.63016700  1
  C  752  1  0.52323500  0.50447000  0.62886600  1
  C  753  1  0.55139500  0.50541400  0.62690900  1
  C  754  1  0.56573300  0.48423600  0.62664000  1
  C  756  1  0.50640800  0.52419700  0.62918800  1
  C  757  1  0.49000800  0.53041500  0.64383800  1
  C  758  1  0.47493900  0.55114200  0.64247900  1
  C  759  1  0.47580400  0.56520500  0.62707200  1
  C  760  1  0.49195100  0.55762200  0.61288600  1
  C  765  1  0.48930300  0.51656600  0.66051600  1
  C  769  1  0.56596200  0.52767500  0.62588600  1
  C  773  1  0.46260000  0.58627900  0.62600300  1
  C  774  1  0.56707200  0.44227700  0.62822200  1
  C  777  1  0.47752700  0.46157300  0.12917400  1
  C  778  1  0.50538300  0.46170700  0.13196700  1
  C  780  1  0.50697700  0.50301900  0.13012900  1
  C  781  1  0.47893700  0.50419200  0.12724100  1
  C  782  1  0.46464700  0.48316400  0.12677100  1
  C  784  1  0.52377300  0.52262400  0.13063200  1
  C  785  1  0.53975500  0.52897000  0.14553500  1
  C  786  1  0.55469900  0.54960000  0.14431900  1
  C  787  1  0.55421600  0.56346200  0.12878800  1
  C  788  1  0.53851000  0.55575700  0.11435800  1
  C  793  1  0.54015900  0.51533000  0.16232500  1
  C  797  1  0.46437200  0.52657400  0.12544700  1
  C  801  1  0.56743400  0.58439500  0.12772500  1
  C  802  1  0.46313200  0.44120200  0.12864800  1
  C  805  1  0.47657400  0.56536500  0.36527400  1
  C  806  1  0.50453400  0.56508200  0.36325900  1
  C  808  1  0.50620200  0.52378600  0.36456300  1
  C  809  1  0.47808300  0.52274900  0.36672400  1
  C  810  1  0.46365800  0.54388200  0.36707800  1
  C  812  1  0.52311100  0.50412500  0.36412300  1
  C  813  1  0.53926300  0.49793900  0.34934300  1
  C  814  1  0.55448700  0.47729300  0.35061400  1
  C  815  1  0.55400700  0.46327800  0.36605600  1
  C  816  1  0.53808400  0.47082600  0.38036600  1
  C  821  1  0.53955100  0.51173800  0.33263200  1
  C  825  1  0.46363900  0.50043900  0.36786000  1
  C  829  1  0.56731900  0.44225300  0.36704600  1
  C  830  1  0.46213300  0.58583600  0.36540300  1
  C  833  1  0.82509500  0.78833000  0.87471800  1
  C  834  1  0.80827200  0.79241600  0.85992300  1
  C  836  1  0.77671600  0.76387400  0.86959500  1
  C  837  1  0.79273900  0.75901700  0.88489400  1
  C  838  1  0.81674700  0.77143500  0.88708000  1
  C  840  1  0.75195900  0.75277300  0.86588100  1
  C  841  1  0.72756400  0.76455500  0.86197400  1
  C  842  1  0.70417100  0.75117500  0.85982200  1
  C  843  1  0.70462000  0.72684100  0.86150200  1
  C  844  1  0.72943500  0.71617400  0.86500500  1
  C  849  1  0.72560700  0.79021000  0.86113100  1
  C  853  1  0.78473800  0.74231000  0.89894500  1
  C  857  1  0.68124600  0.71426700  0.86079100  1
  C  858  1  0.84879600  0.80007100  0.87780100  1
  C  861  1  0.19989400  0.23816300  0.87533400  1
  C  862  1  0.21624400  0.23373800  0.86048500  1
  C  864  1  0.24844000  0.26210100  0.86977000  1
  C  865  1  0.23293100  0.26727600  0.88512500  1
  C  866  1  0.20883200  0.25511500  0.88753000  1
  C  868  1  0.27318300  0.27299100  0.86581600  1
  C  869  1  0.29734800  0.26102300  0.86178700  1
  C  870  1  0.32078400  0.27423000  0.85937700  1
  C  871  1  0.32060200  0.29857900  0.86093900  1
  C  872  1  0.29598700  0.30943400  0.86454500  1
  C  877  1  0.29905200  0.23535000  0.86107000  1
  C  881  1  0.24154000  0.28407400  0.89901100  1
  C  885  1  0.34403300  0.31103500  0.85996800  1
  C  886  1  0.17606700  0.22676400  0.87859900  1
  C  889  1  0.82154200  0.22948300  0.63156000  1
  C  890  1  0.80411900  0.23091500  0.64620500  1
  C  892  1  0.77462600  0.25715600  0.63087700  1
  C  893  1  0.79156800  0.25700000  0.61573600  1
  C  894  1  0.81482900  0.24296300  0.61640300  1
  C  896  1  0.75023100  0.26973800  0.63204400  1
  C  897  1  0.72537900  0.25960700  0.63658100  1
  C  898  1  0.70264400  0.27422600  0.63742700  1
  C  899  1  0.70422300  0.29813100  0.63381200  1
  C  900  1  0.72935300  0.30708500  0.62930300  1
  C  905  1  0.72234200  0.23432700  0.63956900  1
  C  909  1  0.78508200  0.27016700  0.59923100  1
  C  913  1  0.68152000  0.31180300  0.63412900  1
  C  914  1  0.84417100  0.21540200  0.63241400  1
  C  917  1  0.19876500  0.78710800  0.61897200  1
  C  918  1  0.21542300  0.79179300  0.63370500  1
  C  920  1  0.24829100  0.76401300  0.62410500  1
  C  921  1  0.23250000  0.75857700  0.60886400  1
  C  922  1  0.20786900  0.77033600  0.60666600  1
  C  924  1  0.27353200  0.75356900  0.62783000  1
  C  925  1  0.29746100  0.76598600  0.63120300  1
  C  926  1  0.32146200  0.75315500  0.63336900  1
  C  927  1  0.32195800  0.72878000  0.63219100  1
  C  928  1  0.29755000  0.71748100  0.62925400  1
  C  933  1  0.29827500  0.79168900  0.63147100  1
  C  937  1  0.24132500  0.74194900  0.59490600  1
  C  941  1  0.34579500  0.71665900  0.63280100  1
  C  942  1  0.17454800  0.79824900  0.61587700  1
  C  945  1  0.20211500  0.23897600  0.11882300  1
  C  946  1  0.21895900  0.23464300  0.13356500  1
  C  948  1  0.25086400  0.26292200  0.12392600  1
  C  949  1  0.23480500  0.26804700  0.10869200  1
  C  950  1  0.21061800  0.25588400  0.10651600  1
  C  952  1  0.27582800  0.27371400  0.12761200  1
  C  953  1  0.30002800  0.26163900  0.13154600  1
  C  954  1  0.32365400  0.27472300  0.13367000  1
  C  955  1  0.32363100  0.29905100  0.13193500  1
  C  956  1  0.29899500  0.31002000  0.12841300  1
  C  961  1  0.30156300  0.23596700  0.13244900  1
  C  965  1  0.24294300  0.28475600  0.09467900  1
  C  969  1  0.34722000  0.31132600  0.13263500  1
  C  970  1  0.17828400  0.22743300  0.11571900  1
  C  973  1  0.82732400  0.78887200  0.11843000  1
  C  974  1  0.81095900  0.79319100  0.13329000  1
  C  976  1  0.77904300  0.76460300  0.12403000  1
  C  977  1  0.79456500  0.75952300  0.10866500  1
  C  978  1  0.81854400  0.77184800  0.10624300  1
  C  980  1  0.75441900  0.75354700  0.12797800  1
  C  981  1  0.73006400  0.76536500  0.13173600  1
  C  982  1  0.70675000  0.75198100  0.13408100  1
  C  983  1  0.70725900  0.72761300  0.13271500  1
  C  984  1  0.73206100  0.71692200  0.12940100  1
  C  989  1  0.72807000  0.79103100  0.13221600  1
  C  993  1  0.78606400  0.74266600  0.09479100  1
  C  997  1  0.68395500  0.71497100  0.13352200  1
  C  998  1  0.85100900  0.80045800  0.11514000  1
  C  1001  1  0.20017900  0.78641400  0.37446000  1
  C  1002  1  0.21633800  0.79123400  0.35962900  1
  C  1004  1  0.24935900  0.76314800  0.36869100  1
  C  1005  1  0.23402800  0.75749800  0.38398100  1
  C  1006  1  0.20956200  0.76935000  0.38650100  1
  C  1008  1  0.27449100  0.75277900  0.36470300  1
  C  1009  1  0.29828000  0.76528800  0.36125500  1
  C  1010  1  0.32224900  0.75253700  0.35886900  1
  C  1011  1  0.32285600  0.72815000  0.35986500  1
  C  1012  1  0.29858300  0.71676300  0.36290600  1
  C  1017  1  0.29903800  0.79099700  0.36116100  1
  C  1021  1  0.24320700  0.74056900  0.39769000  1
  C  1025  1  0.34674600  0.71613600  0.35921400  1
  C  1026  1  0.17621200  0.79772700  0.37787300  1
  C  1029  1  0.82245100  0.22889500  0.36067800  1
  C  1030  1  0.80435000  0.23006200  0.34625800  1
  C  1032  1  0.77538600  0.25633200  0.36179300  1
  C  1033  1  0.79300400  0.25642400  0.37671300  1
  C  1034  1  0.81632900  0.24251900  0.37582800  1
  C  1036  1  0.75090000  0.26883600  0.36088600  1
  C  1037  1  0.72585100  0.25859900  0.35682500  1
  C  1038  1  0.70302800  0.27315500  0.35629100  1
  C  1039  1  0.70471800  0.29709300  0.35978400  1
  C  1040  1  0.73005700  0.30615300  0.36378000  1
  C  1045  1  0.72276000  0.23329100  0.35400500  1
  C  1049  1  0.78717600  0.26970300  0.39323000  1
  C  1053  1  0.68200100  0.31075800  0.35969200  1
  C  1054  1  0.84514500  0.21492100  0.35967800  1
  C  1057  1  0.05313700  0.86631200  0.71004300  1
  C  1058  1  0.03830900  0.84595400  0.71261500  1
  C  1060  1  0.02329500  0.85838300  0.74150900  1
  C  1061  1  0.03793400  0.87927900  0.73982600  1
  C  1062  1  0.05263500  0.88273400  0.72402600  1
  C  1064  1  0.00684600  0.85323000  0.75641800  1
  C  1065  1  0.97936100  0.84732800  0.75526800  1
  C  1066  1  0.96491200  0.84499300  0.77135400  1
  C  1067  1  0.97703900  0.84839600  0.78817700  1
  C  1068  1  0.00449500  0.85346200  0.78839400  1
  C  1073  1  0.96517000  0.84496500  0.73792600  1
  C  1077  1  0.03714500  0.89802400  0.75342800  1
  C  1081  1  0.96202800  0.84825300  0.80365500  1
  C  1082  1  0.06624200  0.87172600  0.69427600  1
  C  1085  1  0.97071100  0.15924900  0.71019800  1
  C  1086  1  0.98502400  0.17994400  0.71260200  1
  C  1088  1  0.00014700  0.16850400  0.74180000  1
  C  1089  1  0.98610300  0.14727400  0.74027800  1
  C  1090  1  0.97156800  0.14315600  0.72439900  1
  C  1092  1  0.01621900  0.17435800  0.75683200  1
  C  1093  1  0.04373200  0.18016100  0.75599500  1
  C  1094  1  0.05783200  0.18316300  0.77225800  1
  C  1095  1  0.04531100  0.18050200  0.78894400  1
  C  1096  1  0.01781700  0.17556000  0.78880900  1
  C  1101  1  0.05826100  0.18171100  0.73883200  1
  C  1105  1  0.98731200  0.12891500  0.75418000  1
  C  1109  1  0.06001500  0.18102900  0.80466300  1
  C  1110  1  0.95748800  0.15339300  0.69448200  1
  C  1113  1  0.97366100  0.16040000  0.28330400  1
  C  1114  1  0.98850000  0.18075700  0.28076900  1
  C  1116  1  0.00333000  0.16849000  0.25178800  1
  C  1117  1  0.98864500  0.14760900  0.25342700  1
  C  1118  1  0.97403400  0.14407300  0.26925500  1
  C  1120  1  0.01972800  0.17372500  0.23686800  1
  C  1121  1  0.04718700  0.17972800  0.23800100  1
  C  1122  1  0.06158200  0.18219800  0.22190500  1
  C  1123  1  0.04943200  0.17882700  0.20508600  1
  C  1124  1  0.02200700  0.17364100  0.20488500  1
  C  1129  1  0.06142200  0.18207100  0.25533000  1
  C  1133  1  0.98929000  0.12895900  0.23974700  1
  C  1137  1  0.06440600  0.17911900  0.18959500  1
  C  1138  1  0.96059700  0.15494300  0.29907400  1
  C  1141  1  0.05620100  0.86784800  0.28299000  1
  C  1142  1  0.04197200  0.84712600  0.28050300  1
  C  1144  1  0.02658700  0.85882200  0.25142700  1
  C  1145  1  0.04050500  0.88010200  0.25304500  1
  C  1146  1  0.05513600  0.88410300  0.26890200  1
  C  1148  1  0.01048300  0.85306500  0.23639200  1
  C  1149  1  0.98297800  0.84725200  0.23723900  1
  C  1150  1  0.96883000  0.84438500  0.22098200  1
  C  1151  1  0.98129700  0.84719300  0.20429000  1
  C  1152  1  0.00879000  0.85213300  0.20441200  1
  C  1157  1  0.96851400  0.84554900  0.25441900  1
  C  1161  1  0.03907500  0.89861200  0.23926900  1
  C  1165  1  0.96654100  0.84677700  0.18858800  1
  C  1166  1  0.06952500  0.87359000  0.29869200  1
  C  1169  1  0.55444300  0.36650000  0.70974400  1
  C  1170  1  0.53955700  0.34614000  0.71216100  1
  C  1172  1  0.52487500  0.35802700  0.74128800  1
  C  1173  1  0.53961700  0.37889700  0.73977300  1
  C  1174  1  0.55416400  0.38261900  0.72393900  1
  C  1176  1  0.50851100  0.35263600  0.75621500  1
  C  1177  1  0.48107400  0.34654400  0.75510600  1
  C  1178  1  0.46671700  0.34395200  0.77121100  1
  C  1179  1  0.47887300  0.34728400  0.78803500  1
  C  1180  1  0.50627800  0.35255200  0.78821500  1
  C  1185  1  0.46680300  0.34423100  0.73778700  1
  C  1189  1  0.53908500  0.39738200  0.75358800  1
  C  1193  1  0.46394500  0.34685000  0.80355700  1
  C  1194  1  0.56737800  0.37221900  0.69395800  1
  C  1197  1  0.47159000  0.65952600  0.71013000  1
  C  1198  1  0.48594000  0.68017600  0.71267100  1
  C  1200  1  0.50106700  0.66841100  0.74180200  1
  C  1201  1  0.48700500  0.64720800  0.74013500  1
  C  1202  1  0.47245500  0.64328100  0.72423200  1
  C  1204  1  0.51714000  0.67407200  0.75688900  1
  C  1205  1  0.54466800  0.67983100  0.75611700  1
  C  1206  1  0.55875700  0.68261700  0.77241000  1
  C  1207  1  0.54621800  0.67977800  0.78907500  1
  C  1208  1  0.51871300  0.67488500  0.78888200  1
  C  1213  1  0.55922000  0.68156100  0.73897300  1
  C  1217  1  0.48822400  0.62868200  0.75390700  1
  C  1221  1  0.56089800  0.68017800  0.80481800  1
  C  1222  1  0.45840900  0.65379300  0.69435800  1
  C  1225  1  0.47430100  0.66056600  0.28338200  1
  C  1226  1  0.48914500  0.68089400  0.28071400  1
  C  1228  1  0.50402100  0.66830900  0.25181700  1
  C  1229  1  0.48934900  0.64744200  0.25359500  1
  C  1230  1  0.47471700  0.64408400  0.26943800  1
  C  1232  1  0.52043000  0.67336200  0.23686000  1
  C  1233  1  0.54790900  0.67930700  0.23794500  1
  C  1234  1  0.56230600  0.68156900  0.22183200  1
  C  1235  1  0.55014600  0.67805100  0.20503200  1
  C  1236  1  0.52270100  0.67292900  0.20487400  1
  C  1241  1  0.56215200  0.68179600  0.25525900  1
  C  1245  1  0.49004700  0.62862500  0.24005000  1
  C  1249  1  0.56511200  0.67820300  0.18952700  1
  C  1250  1  0.46128300  0.65522700  0.29920500  1
  C  1253  1  0.55728800  0.36822400  0.28320500  1
  C  1254  1  0.54300500  0.34749600  0.28087800  1
  C  1256  1  0.52791100  0.35866700  0.25159300  1
  C  1257  1  0.54192100  0.37992600  0.25303800  1
  C  1258  1  0.55641500  0.38419100  0.26891400  1
  C  1260  1  0.51188600  0.35266800  0.23655500  1
  C  1261  1  0.48443000  0.34666000  0.23737500  1
  C  1262  1  0.47037400  0.34352000  0.22110700  1
  C  1263  1  0.48286400  0.34624200  0.20441500  1
  C  1264  1  0.51030700  0.35138900  0.20456400  1
  C  1269  1  0.46989700  0.34502200  0.25453100  1
  C  1273  1  0.54071600  0.39818400  0.23905600  1
  C  1277  1  0.46818600  0.34551900  0.18867600  1
  C  1278  1  0.57048000  0.37425100  0.29890900  1
  C  1281  1  0.63324500  0.85885500  0.84407800  1
  C  1282  1  0.61034200  0.84608300  0.83894200  1
  C  1283  1  0.59498400  0.83392000  0.85150100  1
  C  1284  1  0.60147200  0.83620000  0.86971500  1
  C  1285  1  0.62354300  0.84920300  0.87544400  1
  C  1286  1  0.63982700  0.85995300  0.86257200  1
  C  1289  1  0.64864300  0.87106000  0.83099500  1
  C  1290  1  0.65843500  0.86037300  0.81517700  1
  C  1291  1  0.67461100  0.87288400  0.80309400  1
  C  1292  1  0.68110600  0.89598500  0.80704100  1
  C  1293  1  0.67172100  0.90705100  0.82246200  1
  C  1294  1  0.65496700  0.89463300  0.83401000  1
  C  1305  1  0.83170500  0.16947800  0.84519900  1
  C  1306  1  0.85491300  0.18164400  0.83995400  1
  C  1307  1  0.87103800  0.19341600  0.85242800  1
  C  1308  1  0.86501100  0.19127700  0.87067500  1
  C  1309  1  0.84265100  0.17886900  0.87651700  1
  C  1310  1  0.82560700  0.16859000  0.86372900  1
  C  1313  1  0.81544100  0.15772300  0.83220300  1
  C  1314  1  0.80579000  0.16860400  0.81634700  1
  C  1315  1  0.78856200  0.15664300  0.80446200  1
  C  1316  1  0.78083000  0.13393000  0.80864500  1
  C  1317  1  0.79039800  0.12253600  0.82393600  1
  C  1318  1  0.80811100  0.13440200  0.83532600  1
  C  1329  1  0.63688900  0.17053300  0.59503900  1
  C  1330  1  0.61399100  0.18332800  0.60026900  1
  C  1331  1  0.59814800  0.19557100  0.58775500  1
  C  1332  1  0.60478600  0.19419300  0.56961500  1
  C  1333  1  0.62695600  0.18119000  0.56381200  1
  C  1334  1  0.64330800  0.16981100  0.57656400  1
  C  1337  1  0.65185700  0.15747900  0.60804100  1
  C  1338  1  0.66085300  0.16704200  0.62450800  1
  C  1339  1  0.67546200  0.15329400  0.63687000  1
  C  1340  1  0.68195300  0.13025800  0.63235400  1
  C  1341  1  0.67325400  0.12032200  0.61631200  1
  C  1342  1  0.65760400  0.13384600  0.60457200  1
  C  1353  1  0.82994800  0.85586600  0.59550000  1
  C  1354  1  0.85327700  0.84355400  0.60083500  1
  C  1355  1  0.86931400  0.83167600  0.58839000  1
  C  1356  1  0.86304200  0.83372000  0.57012700  1
  C  1357  1  0.84047100  0.84618900  0.56421300  1
  C  1358  1  0.82353200  0.85664800  0.57695400  1
  C  1361  1  0.81431000  0.86835400  0.60840100  1
  C  1362  1  0.80553900  0.85847800  0.62475600  1
  C  1363  1  0.78961200  0.87154800  0.63672300  1
  C  1364  1  0.78155200  0.89412600  0.63190800  1
  C  1365  1  0.79038600  0.90451600  0.61615000  1
  C  1366  1  0.80727700  0.89172900  0.60481700  1
  C  1377  1  0.83550500  0.16876500  0.09595600  1
  C  1378  1  0.85827000  0.18166100  0.10117200  1
  C  1379  1  0.87374100  0.19379800  0.08866400  1
  C  1380  1  0.86727900  0.19162200  0.07044100  1
  C  1381  1  0.84476000  0.17922200  0.06464300  1
  C  1382  1  0.82906800  0.16766600  0.07743700  1
  C  1385  1  0.82010200  0.15648100  0.10900100  1
  C  1386  1  0.81021400  0.16712200  0.12481600  1
  C  1387  1  0.79403300  0.15456100  0.13686600  1
  C  1388  1  0.78760000  0.13146100  0.13287900  1
  C  1389  1  0.79704900  0.12045000  0.11745600  1
  C  1390  1  0.81382600  0.13290600  0.10594800  1
  C  1401  1  0.63669600  0.85828000  0.09487900  1
  C  1402  1  0.61377700  0.84580600  0.10023900  1
  C  1403  1  0.59756500  0.83402900  0.08783300  1
  C  1404  1  0.60336300  0.83622500  0.06956400  1
  C  1405  1  0.62597600  0.84822400  0.06360600  1
  C  1406  1  0.64247300  0.85934600  0.07630100  1
  C  1409  1  0.65299100  0.87007200  0.10784700  1
  C  1410  1  0.66282400  0.85916000  0.12364700  1
  C  1411  1  0.68001300  0.87115300  0.13553700  1
  C  1412  1  0.68760500  0.89390800  0.13138400  1
  C  1413  1  0.67790700  0.90531300  0.11613400  1
  C  1414  1  0.66017000  0.89343600  0.10476800  1
  C  1425  1  0.83277100  0.85670100  0.34473500  1
  C  1426  1  0.85554600  0.84369600  0.33950900  1
  C  1427  1  0.87117700  0.83133800  0.35200700  1
  C  1428  1  0.86485900  0.83328000  0.37022300  1
  C  1429  1  0.84228400  0.84575800  0.37602200  1
  C  1430  1  0.82642500  0.85758800  0.36323400  1
  C  1433  1  0.81770200  0.86968100  0.33172000  1
  C  1434  1  0.80858800  0.86002000  0.31530900  1
  C  1435  1  0.79367700  0.87363300  0.30301400  1
  C  1436  1  0.78690400  0.89659200  0.30757100  1
  C  1437  1  0.79562900  0.90660300  0.32357300  1
  C  1438  1  0.81167500  0.89326700  0.33520100  1
  C  1449  1  0.63911400  0.17120700  0.34454700  1
  C  1450  1  0.61616200  0.18381500  0.33897000  1
  C  1451  1  0.59974700  0.19560000  0.35127700  1
  C  1452  1  0.60603000  0.19421000  0.36951400  1
  C  1453  1  0.62873100  0.18203700  0.37566900  1
  C  1454  1  0.64504500  0.17038000  0.36315600  1
  C  1457  1  0.65471200  0.15853500  0.33173000  1
  C  1458  1  0.66366700  0.16831800  0.31538200  1
  C  1459  1  0.67929000  0.15504600  0.30337300  1
  C  1460  1  0.68691000  0.13234700  0.30815000  1
  C  1461  1  0.67791800  0.12207300  0.32391300  1
  C  1462  1  0.66131400  0.13507100  0.33529500  1
  C  1473  1  0.13449700  0.35758900  0.84394600  1
  C  1474  1  0.11113100  0.34571600  0.83851500  1
  C  1475  1  0.09441900  0.33466200  0.85094800  1
  C  1476  1  0.10061900  0.33640900  0.86918400  1
  C  1477  1  0.12340000  0.34829900  0.87518900  1
  C  1478  1  0.14058000  0.35842800  0.86252000  1
  C  1481  1  0.15051000  0.36954600  0.83106100  1
  C  1482  1  0.16009200  0.35891000  0.81516100  1
  C  1483  1  0.17651000  0.37133000  0.80316100  1
  C  1484  1  0.18330300  0.39433100  0.80722500  1
  C  1485  1  0.17404200  0.40536800  0.82269100  1
  C  1486  1  0.15719100  0.39300900  0.83421000  1
  C  1497  1  0.33290000  0.66820300  0.84524600  1
  C  1498  1  0.35631700  0.67975800  0.83968200  1
  C  1499  1  0.37363200  0.69056500  0.85200300  1
  C  1500  1  0.36807400  0.68876200  0.87028100  1
  C  1501  1  0.34531400  0.67711400  0.87642700  1
  C  1502  1  0.32746700  0.66734800  0.86386800  1
  C  1505  1  0.31606100  0.65674500  0.83242400  1
  C  1506  1  0.30649800  0.66767600  0.81656200  1
  C  1507  1  0.28911300  0.65584200  0.80469800  1
  C  1508  1  0.28121200  0.63317600  0.80889100  1
  C  1509  1  0.29075400  0.62171200  0.82416300  1
  C  1510  1  0.30852900  0.63348800  0.83556200  1
  C  1521  1  0.13650300  0.67043400  0.59520300  1
  C  1522  1  0.11305900  0.68228300  0.60064700  1
  C  1523  1  0.09614000  0.69357600  0.58824000  1
  C  1524  1  0.10219700  0.69211700  0.57000900  1
  C  1525  1  0.12511900  0.68028800  0.56400100  1
  C  1526  1  0.14251100  0.66989500  0.57665400  1
  C  1529  1  0.15225000  0.65779200  0.60804200  1
  C  1530  1  0.16109700  0.66745900  0.62451500  1
  C  1531  1  0.17630400  0.65399100  0.63675000  1
  C  1532  1  0.18344900  0.63113600  0.63211200  1
  C  1533  1  0.17485300  0.62108600  0.61609100  1
  C  1534  1  0.15869800  0.63432100  0.60446500  1
  C  1545  1  0.33249500  0.35708200  0.59541100  1
  C  1546  1  0.35603700  0.34543400  0.60110500  1
  C  1547  1  0.37331100  0.33440400  0.58888900  1
  C  1548  1  0.36752500  0.33600600  0.57058500  1
  C  1549  1  0.34461400  0.34775300  0.56431300  1
  C  1550  1  0.32683200  0.35777300  0.57676600  1
  C  1553  1  0.31612400  0.36917300  0.60812800  1
  C  1554  1  0.30737500  0.35916700  0.62444800  1
  C  1555  1  0.29114700  0.37201600  0.63638400  1
  C  1556  1  0.28284800  0.39453600  0.63157300  1
  C  1557  1  0.29170800  0.40507200  0.61587600  1
  C  1558  1  0.30878400  0.39246700  0.60454800  1
  C  1569  1  0.33656900  0.66745900  0.09603300  1
  C  1570  1  0.35956900  0.67977300  0.10155000  1
  C  1571  1  0.37626400  0.69093000  0.08917400  1
  C  1572  1  0.37026000  0.68907300  0.07091800  1
  C  1573  1  0.34734600  0.67740700  0.06483800  1
  C  1574  1  0.33078100  0.66637000  0.07742600  1
  C  1577  1  0.32061200  0.65543700  0.10891100  1
  C  1578  1  0.31076600  0.66613200  0.12471600  1
  C  1579  1  0.29443200  0.65366900  0.13673600  1
  C  1580  1  0.28786700  0.63059800  0.13274200  1
  C  1581  1  0.29733600  0.61952200  0.11734700  1
  C  1582  1  0.31420100  0.63190100  0.10585000  1
  C  1593  1  0.13803200  0.35698100  0.09486500  1
  C  1594  1  0.11470500  0.34530800  0.10044500  1
  C  1595  1  0.09732000  0.33458100  0.08813000  1
  C  1596  1  0.10294800  0.33627600  0.06985400  1
  C  1597  1  0.12612200  0.34731900  0.06369500  1
  C  1598  1  0.14340700  0.35786400  0.07623100  1
  C  1601  1  0.15478900  0.36855700  0.10768100  1
  C  1602  1  0.16437600  0.35773200  0.12358700  1
  C  1603  1  0.18172500  0.36966400  0.13541600  1
  C  1604  1  0.18959200  0.39231000  0.13114200  1
  C  1605  1  0.18004800  0.40365900  0.11582600  1
  C  1606  1  0.16227300  0.39181100  0.10447500  1
  C  1617  1  0.33506400  0.35806000  0.34474100  1
  C  1618  1  0.35803600  0.34562800  0.33920000  1
  C  1619  1  0.37487700  0.33409000  0.35152400  1
  C  1620  1  0.36904100  0.33568600  0.36977900  1
  C  1621  1  0.34617400  0.34754700  0.37588900  1
  C  1622  1  0.32945100  0.35893900  0.36334000  1
  C  1625  1  0.31933200  0.37069700  0.33187900  1
  C  1626  1  0.31017900  0.36089900  0.31552100  1
  C  1627  1  0.29500100  0.37433500  0.30324700  1
  C  1628  1  0.28807700  0.39727600  0.30777700  1
  C  1629  1  0.29690100  0.40742800  0.32370800  1
  C  1630  1  0.31313000  0.39424500  0.33532000  1
  C  1641  1  0.13867200  0.67117800  0.34439800  1
  C  1642  1  0.11518700  0.68286900  0.33864500  1
  C  1643  1  0.09778600  0.69373200  0.35084700  1
  C  1644  1  0.10358700  0.69225100  0.36915600  1
  C  1645  1  0.12698900  0.68125900  0.37547200  1
  C  1646  1  0.14428700  0.67053500  0.36305500  1
  C  1649  1  0.15494500  0.65888400  0.33173900  1
  C  1650  1  0.16372400  0.66871800  0.31536600  1
  C  1651  1  0.17988900  0.65570500  0.30349800  1
  C  1652  1  0.18812700  0.63321900  0.30843100  1
  C  1653  1  0.17925700  0.62286300  0.32419100  1
  C  1654  1  0.16220300  0.63559900  0.33544400  1
  C  1665  1  0.61888000  0.85857900  0.92306600  1
  C  1666  1  0.64125000  0.84702700  0.93044000  1
  C  1668  1  0.62613900  0.85333700  0.96037300  1
  C  1669  1  0.60351700  0.86582000  0.95392100  1
  C  1670  1  0.60038700  0.86814400  0.93524700  1
  C  1672  1  0.63010700  0.84746000  0.97860700  1
  C  1673  1  0.63167800  0.82428000  0.98492300  1
  C  1674  1  0.63270500  0.82070100  0.00357200  1
  C  1675  1  0.63226400  0.83925500  0.01586800  1
  C  1676  1  0.63133900  0.86180000  0.00862900  1
  C  1681  1  0.63055900  0.80394300  0.97279400  1
  C  1685  1  0.58249300  0.87508800  0.96593200  1
  C  1689  1  0.63017400  0.83473700  0.03405300  1
  C  1690  1  0.61341100  0.85919700  0.90483600  1
  C  1693  1  0.84820600  0.16929200  0.92411600  1
  C  1694  1  0.82590500  0.18070300  0.93154300  1
  C  1696  1  0.84167000  0.17440000  0.96144800  1
  C  1697  1  0.86425500  0.16206800  0.95493800  1
  C  1698  1  0.86701000  0.15979300  0.93625700  1
  C  1700  1  0.83800100  0.18018000  0.97970400  1
  C  1701  1  0.83612700  0.20331800  0.98607500  1
  C  1702  1  0.83546600  0.20682300  0.00473400  1
  C  1703  1  0.83657500  0.18823600  0.01699300  1
  C  1704  1  0.83770700  0.16572900  0.00970800  1
  C  1709  1  0.83657800  0.22371500  0.97399100  1
  C  1713  1  0.88559500  0.15287300  0.96689500  1
  C  1717  1  0.83906100  0.19273800  0.03517900  1
  C  1718  1  0.85320600  0.16858200  0.90586600  1
  C  1721  1  0.62236600  0.17144300  0.51623000  1
  C  1722  1  0.64453400  0.18292800  0.50895400  1
  C  1724  1  0.62939100  0.17655400  0.47894200  1
  C  1725  1  0.60701700  0.16407700  0.48529400  1
  C  1726  1  0.60400000  0.16181900  0.50395900  1
  C  1728  1  0.63317100  0.18246200  0.46072700  1
  C  1729  1  0.63457600  0.20566000  0.45447400  1
  C  1730  1  0.63545500  0.20931700  0.43584000  1
  C  1731  1  0.63503000  0.19083100  0.42349000  1
  C  1732  1  0.63428600  0.16825800  0.43066200  1
  C  1737  1  0.63342200  0.22597000  0.46663600  1
  C  1741  1  0.58612500  0.15473200  0.47318100  1
  C  1745  1  0.63275200  0.19547100  0.40531000  1
  C  1746  1  0.61710100  0.17076000  0.53444700  1
  C  1749  1  0.84576800  0.85603100  0.51668000  1
  C  1750  1  0.82375000  0.84455100  0.50903400  1
  C  1752  1  0.83955900  0.85085300  0.47928000  1
  C  1753  1  0.86184400  0.86326400  0.48601000  1
  C  1754  1  0.86443900  0.86557300  0.50471800  1
  C  1756  1  0.83612900  0.84501300  0.46099400  1
  C  1757  1  0.83482800  0.82184800  0.45465100  1
  C  1758  1  0.83426000  0.81828000  0.43599300  1
  C  1759  1  0.83491900  0.83683000  0.42370500  1
  C  1760  1  0.83554100  0.85936500  0.43095600  1
  C  1765  1  0.83576200  0.80149000  0.46677700  1
  C  1769  1  0.88305800  0.87249700  0.47425700  1
  C  1773  1  0.83744300  0.83227500  0.40554100  1
  C  1774  1  0.85066900  0.85674100  0.53498100  1
  C  1777  1  0.11879200  0.35734600  0.92293500  1
  C  1778  1  0.14101900  0.34559400  0.93031400  1
  C  1780  1  0.12606700  0.35210400  0.96028500  1
  C  1781  1  0.10358600  0.36477800  0.95381400  1
  C  1782  1  0.10045400  0.36709800  0.93513600  1
  C  1784  1  0.13002300  0.34629200  0.97856000  1
  C  1785  1  0.13177400  0.32314500  0.98494900  1
  C  1786  1  0.13253800  0.31963000  0.00361700  1
  C  1787  1  0.13170800  0.33820900  0.01588100  1
  C  1788  1  0.13074700  0.36072300  0.00859200  1
  C  1793  1  0.13106900  0.30274500  0.97287100  1
  C  1797  1  0.08267000  0.37428200  0.96580500  1
  C  1801  1  0.12925800  0.33374400  0.03406100  1
  C  1802  1  0.11336200  0.35814900  0.90468900  1
  C  1805  1  0.35131000  0.66784900  0.92410700  1
  C  1806  1  0.32907100  0.67929300  0.93159100  1
  C  1808  1  0.34493100  0.67292000  0.96147800  1
  C  1809  1  0.36747000  0.66057400  0.95490600  1
  C  1810  1  0.37013900  0.65831600  0.93621500  1
  C  1812  1  0.34133900  0.67863300  0.97976700  1
  C  1813  1  0.33946500  0.70174500  0.98619700  1
  C  1814  1  0.33896800  0.70519200  0.00487000  1
  C  1815  1  0.34022000  0.68657200  0.01709300  1
  C  1816  1  0.34129900  0.66408900  0.00976000  1
  C  1821  1  0.33976100  0.72218700  0.97415500  1
  C  1825  1  0.38884900  0.65133100  0.96681000  1
  C  1829  1  0.34286200  0.69101200  0.03528400  1
  C  1830  1  0.35617600  0.66704100  0.90583200  1
  C  1833  1  0.12029900  0.67119100  0.51624500  1
  C  1834  1  0.14230400  0.68289700  0.50895900  1
  C  1836  1  0.12726300  0.67635900  0.47891900  1
  C  1837  1  0.10502500  0.66371400  0.48529700  1
  C  1838  1  0.10204300  0.66142900  0.50396400  1
  C  1840  1  0.13101400  0.68216900  0.46065900  1
  C  1841  1  0.13240600  0.70532000  0.45429100  1
  C  1842  1  0.13303500  0.70885500  0.43562900  1
  C  1843  1  0.13241600  0.69029200  0.42335000  1
  C  1844  1  0.13179600  0.66777200  0.43062100  1
  C  1849  1  0.13146100  0.72571400  0.46637200  1
  C  1853  1  0.08419700  0.65419500  0.47321000  1
  C  1857  1  0.12978400  0.69479100  0.40516300  1
  C  1858  1  0.11505100  0.67036300  0.53447400  1
  C  1861  1  0.35022900  0.35721800  0.51670000  1
  C  1862  1  0.32823900  0.34571200  0.50904000  1
  C  1864  1  0.34396800  0.35215200  0.47927300  1
  C  1865  1  0.36622400  0.36459100  0.48602500  1
  C  1866  1  0.36884200  0.36684200  0.50473900  1
  C  1868  1  0.34051600  0.34640200  0.46095600  1
  C  1869  1  0.33901500  0.32327700  0.45453600  1
  C  1870  1  0.33862500  0.31979100  0.43586400  1
  C  1871  1  0.33961900  0.33838000  0.42362700  1
  C  1872  1  0.34032500  0.36087700  0.43093900  1
  C  1877  1  0.33958000  0.30285600  0.46660300  1
  C  1881  1  0.38739800  0.37393400  0.47429200  1
  C  1885  1  0.34231200  0.33389700  0.40546000  1
  C  1886  1  0.35507400  0.35802900  0.53501400  1
  C  1889  1  0.77157500  0.06466600  0.83723000  1
  C  1890  1  0.74373800  0.06460100  0.83433900  1
  C  1892  1  0.74192400  0.02329200  0.83631800  1
  C  1893  1  0.76994100  0.02205500  0.83930800  1
  C  1894  1  0.78432700  0.04304000  0.83975500  1
  C  1896  1  0.72502800  0.00373100  0.83582400  1
  C  1897  1  0.70896400  0.99744200  0.82094300  1
  C  1898  1  0.69392200  0.97686200  0.82216800  1
  C  1899  1  0.69437000  0.96297800  0.83768800  1
  C  1900  1  0.71016400  0.97062500  0.85209800  1
  C  1905  1  0.70857100  0.01108500  0.80415400  1
  C  1909  1  0.78440500  0.99964100  0.84122700  1
  C  1913  1  0.68104000  0.94208200  0.83876600  1
  C  1914  1  0.78605800  0.08500000  0.83777500  1
  C  1917  1  0.77180700  0.96198600  0.60168200  1
  C  1918  1  0.74386800  0.96228900  0.60382500  1
  C  1920  1  0.74216100  0.00358600  0.60230200  1
  C  1921  1  0.77026500  0.00459400  0.60002800  1
  C  1922  1  0.78469000  0.98346000  0.59971600  1
  C  1924  1  0.72525300  0.02327100  0.60268300  1
  C  1925  1  0.70909000  0.02955700  0.61743600  1
  C  1926  1  0.69396700  0.05026100  0.61612400  1
  C  1927  1  0.69453900  0.06424300  0.60066400  1
  C  1928  1  0.71043700  0.05658300  0.58637600  1
  C  1933  1  0.70869900  0.01580900  0.63416900  1
  C  1937  1  0.78471400  0.02688900  0.59872700  1
  C  1941  1  0.68138100  0.08534700  0.59963900  1
  C  1942  1  0.78625200  0.94151100  0.60151800  1
  C  1945  1  0.69670600  0.96316500  0.10280500  1
  C  1946  1  0.72455000  0.96315800  0.10566500  1
  C  1948  1  0.72650600  0.00445000  0.10364700  1
  C  1949  1  0.69849100  0.00576400  0.10067800  1
  C  1950  1  0.68402400  0.98482000  0.10026500  1
  C  1952  1  0.74347900  0.02395500  0.10411900  1
  C  1953  1  0.75951100  0.03024200  0.11901500  1
  C  1954  1  0.77467500  0.05074800  0.11776100  1
  C  1955  1  0.77437200  0.06456400  0.10220300  1
  C  1956  1  0.75859100  0.05692100  0.08778600  1
  C  1961  1  0.75973900  0.01668100  0.13584400  1
  C  1965  1  0.68411700  0.02821900  0.09874500  1
  C  1969  1  0.78777600  0.08541900  0.10111900  1
  C  1970  1  0.68216100  0.94286300  0.10229600  1
  C  1973  1  0.69573400  0.06442800  0.33831600  1
  C  1974  1  0.72369200  0.06406400  0.33628500  1
  C  1976  1  0.72524900  0.02276500  0.33770000  1
  C  1977  1  0.69712800  0.02181200  0.33989000  1
  C  1978  1  0.68276300  0.04298000  0.34019600  1
  C  1980  1  0.74213300  0.00307300  0.33730000  1
  C  1981  1  0.75837200  0.99687800  0.32256500  1
  C  1982  1  0.77366700  0.97627300  0.32390100  1
  C  1983  1  0.77317700  0.96228400  0.33936000  1
  C  1984  1  0.75713600  0.96983000  0.35361400  1
  C  1989  1  0.75869000  0.01062100  0.30582600  1
  C  1993  1  0.68262400  0.99954000  0.34110600  1
  C  1997  1  0.78656600  0.94127800  0.34040600  1
  C  1998  1  0.68138500  0.08495400  0.33843700  1
  C  2001  1  0.27264400  0.56357700  0.83718400  1
  C  2002  1  0.24474600  0.56334400  0.83460200  1
  C  2004  1  0.24339700  0.52200700  0.83630900  1
  C  2005  1  0.27148900  0.52093300  0.83896800  1
  C  2006  1  0.28567400  0.54201800  0.83940400  1
  C  2008  1  0.22669800  0.50233000  0.83588300  1
  C  2009  1  0.21043600  0.49601600  0.82110600  1
  C  2010  1  0.19561600  0.47532300  0.82238500  1
  C  2011  1  0.19648500  0.46136000  0.83785800  1
  C  2012  1  0.21246200  0.46902800  0.85216700  1
  C  2017  1  0.20960800  0.50976600  0.80437400  1
  C  2021  1  0.28620600  0.49860000  0.84056600  1
  C  2025  1  0.18332200  0.44040000  0.83898200  1
  C  2026  1  0.28694900  0.58400000  0.83771500  1
  C  2029  1  0.27371200  0.46278900  0.60170500  1
  C  2030  1  0.24572200  0.46316200  0.60353400  1
  C  2032  1  0.24424400  0.50447000  0.60223300  1
  C  2033  1  0.27240400  0.50541400  0.60027600  1
  C  2034  1  0.28674200  0.48423600  0.60000700  1
  C  2036  1  0.22741700  0.52419700  0.60255500  1
  C  2037  1  0.21101700  0.53041500  0.61720500  1
  C  2038  1  0.19594800  0.55114200  0.61584600  1
  C  2039  1  0.19681300  0.56520500  0.60043900  1
  C  2040  1  0.21296000  0.55762200  0.58625300  1
  C  2045  1  0.21031200  0.51656600  0.63388300  1
  C  2049  1  0.28697100  0.52767500  0.59925300  1
  C  2053  1  0.18360900  0.58627900  0.59937000  1
  C  2054  1  0.28808100  0.44227700  0.60158900  1
  C  2057  1  0.19853600  0.46157300  0.10254100  1
  C  2058  1  0.22639200  0.46170700  0.10533400  1
  C  2060  1  0.22798600  0.50301900  0.10349600  1
  C  2061  1  0.19994600  0.50419200  0.10060800  1
  C  2062  1  0.18565600  0.48316400  0.10013800  1
  C  2064  1  0.24478200  0.52262400  0.10399900  1
  C  2065  1  0.26076400  0.52897000  0.11890200  1
  C  2066  1  0.27570800  0.54960000  0.11768600  1
  C  2067  1  0.27522500  0.56346200  0.10215500  1
  C  2068  1  0.25951900  0.55575700  0.08772500  1
  C  2073  1  0.26116800  0.51533000  0.13569200  1
  C  2077  1  0.18538100  0.52657400  0.09881400  1
  C  2081  1  0.28844300  0.58439500  0.10109200  1
  C  2082  1  0.18414100  0.44120200  0.10201500  1
  C  2085  1  0.19758300  0.56536500  0.33864100  1
  C  2086  1  0.22554300  0.56508200  0.33662600  1
  C  2088  1  0.22721100  0.52378600  0.33793000  1
  C  2089  1  0.19909200  0.52274900  0.34009100  1
  C  2090  1  0.18466700  0.54388200  0.34044500  1
  C  2092  1  0.24412000  0.50412500  0.33749000  1
  C  2093  1  0.26027200  0.49793900  0.32271000  1
  C  2094  1  0.27549600  0.47729300  0.32398100  1
  C  2095  1  0.27501600  0.46327800  0.33942300  1
  C  2096  1  0.25909300  0.47082600  0.35373300  1
  C  2101  1  0.26056000  0.51173800  0.30599900  1
  C  2105  1  0.18464800  0.50043900  0.34122700  1
  C  2109  1  0.28832800  0.44225300  0.34041300  1
  C  2110  1  0.18314200  0.58583600  0.33877000  1
  C  2113  1  0.54610400  0.78833000  0.84808500  1
  C  2114  1  0.52928100  0.79241600  0.83329000  1
  C  2116  1  0.49772500  0.76387400  0.84296200  1
  C  2117  1  0.51374800  0.75901700  0.85826100  1
  C  2118  1  0.53775600  0.77143500  0.86044700  1
  C  2120  1  0.47296800  0.75277300  0.83924800  1
  C  2121  1  0.44857300  0.76455500  0.83534100  1
  C  2122  1  0.42518000  0.75117500  0.83318900  1
  C  2123  1  0.42562900  0.72684100  0.83486900  1
  C  2124  1  0.45044400  0.71617400  0.83837200  1
  C  2129  1  0.44661600  0.79021000  0.83449800  1
  C  2133  1  0.50574700  0.74231000  0.87231200  1
  C  2137  1  0.40225500  0.71426700  0.83415800  1
  C  2138  1  0.56980500  0.80007100  0.85116800  1
  C  2141  1  0.92090280  0.23816300  0.84870100  1
  C  2142  1  0.93725280  0.23373800  0.83385200  1
  C  2144  1  0.96944880  0.26210100  0.84313700  1
  C  2145  1  0.95393980  0.26727600  0.85849200  1
  C  2146  1  0.92984080  0.25511500  0.86089700  1
  C  2148  1  0.99419183  0.27299100  0.83918300  1
  C  2149  1  0.01835700  0.26102300  0.83515400  1
  C  2150  1  0.04179300  0.27423000  0.83274400  1
  C  2151  1  0.04161100  0.29857900  0.83430600  1
  C  2152  1  0.01699600  0.30943400  0.83791200  1
  C  2157  1  0.02006100  0.23535000  0.83443700  1
  C  2161  1  0.96254880  0.28407400  0.87237800  1
  C  2165  1  0.06504200  0.31103500  0.83333500  1
  C  2166  1  0.89707600  0.22676400  0.85196600  1
  C  2169  1  0.54255100  0.22948300  0.60492700  1
  C  2170  1  0.52512800  0.23091500  0.61957200  1
  C  2172  1  0.49563500  0.25715600  0.60424400  1
  C  2173  1  0.51257700  0.25700000  0.58910300  1
  C  2174  1  0.53583800  0.24296300  0.58977000  1
  C  2176  1  0.47124000  0.26973800  0.60541100  1
  C  2177  1  0.44638800  0.25960700  0.60994800  1
  C  2178  1  0.42365300  0.27422600  0.61079400  1
  C  2179  1  0.42523200  0.29813100  0.60717900  1
  C  2180  1  0.45036200  0.30708500  0.60267000  1
  C  2185  1  0.44335100  0.23432700  0.61293600  1
  C  2189  1  0.50609100  0.27016700  0.57259800  1
  C  2193  1  0.40252900  0.31180300  0.60749600  1
  C  2194  1  0.56518000  0.21540200  0.60578100  1
  C  2197  1  0.91977380  0.78710800  0.59233900  1
  C  2198  1  0.93643180  0.79179300  0.60707200  1
  C  2200  1  0.96929980  0.76401300  0.59747200  1
  C  2201  1  0.95350880  0.75857700  0.58223100  1
  C  2202  1  0.92887780  0.77033600  0.58003300  1
  C  2204  1  0.99454083  0.75356900  0.60119700  1
  C  2205  1  0.01847000  0.76598600  0.60457000  1
  C  2206  1  0.04247100  0.75315500  0.60673600  1
  C  2207  1  0.04296700  0.72878000  0.60555800  1
  C  2208  1  0.01855900  0.71748100  0.60262100  1
  C  2213  1  0.01928400  0.79168900  0.60483800  1
  C  2217  1  0.96233380  0.74194900  0.56827300  1
  C  2221  1  0.06680400  0.71665900  0.60616800  1
  C  2222  1  0.89555700  0.79824900  0.58924400  1
  C  2225  1  0.92312380  0.23897600  0.09219000  1
  C  2226  1  0.93996780  0.23464300  0.10693200  1
  C  2228  1  0.97187280  0.26292200  0.09729300  1
  C  2229  1  0.95581380  0.26804700  0.08205900  1
  C  2230  1  0.93162680  0.25588400  0.07988300  1
  C  2232  1  0.99683683  0.27371400  0.10097900  1
  C  2233  1  0.02103700  0.26163900  0.10491300  1
  C  2234  1  0.04466300  0.27472300  0.10703700  1
  C  2235  1  0.04464000  0.29905100  0.10530200  1
  C  2236  1  0.02000400  0.31002000  0.10178000  1
  C  2241  1  0.02257200  0.23596700  0.10581600  1
  C  2245  1  0.96395180  0.28475600  0.06804600  1
  C  2249  1  0.06822900  0.31132600  0.10600200  1
  C  2250  1  0.89929300  0.22743300  0.08908600  1
  C  2253  1  0.54833300  0.78887200  0.09179700  1
  C  2254  1  0.53196800  0.79319100  0.10665700  1
  C  2256  1  0.50005200  0.76460300  0.09739700  1
  C  2257  1  0.51557400  0.75952300  0.08203200  1
  C  2258  1  0.53955300  0.77184800  0.07961000  1
  C  2260  1  0.47542800  0.75354700  0.10134500  1
  C  2261  1  0.45107300  0.76536500  0.10510300  1
  C  2262  1  0.42775900  0.75198100  0.10744800  1
  C  2263  1  0.42826800  0.72761300  0.10608200  1
  C  2264  1  0.45307000  0.71692200  0.10276800  1
  C  2269  1  0.44907900  0.79103100  0.10558300  1
  C  2273  1  0.50707300  0.74266600  0.06815800  1
  C  2277  1  0.40496400  0.71497100  0.10688900  1
  C  2278  1  0.57201800  0.80045800  0.08850700  1
  C  2281  1  0.92118780  0.78641400  0.34782700  1
  C  2282  1  0.93734680  0.79123400  0.33299600  1
  C  2284  1  0.97036780  0.76314800  0.34205800  1
  C  2285  1  0.95503680  0.75749800  0.35734800  1
  C  2286  1  0.93057080  0.76935000  0.35986800  1
  C  2288  1  0.99549983  0.75277900  0.33807000  1
  C  2289  1  0.01928900  0.76528800  0.33462200  1
  C  2290  1  0.04325800  0.75253700  0.33223600  1
  C  2291  1  0.04386500  0.72815000  0.33323200  1
  C  2292  1  0.01959200  0.71676300  0.33627300  1
  C  2297  1  0.02004700  0.79099700  0.33452800  1
  C  2301  1  0.96421580  0.74056900  0.37105700  1
  C  2305  1  0.06775500  0.71613600  0.33258100  1
  C  2306  1  0.89722100  0.79772700  0.35124000  1
  C  2309  1  0.54346000  0.22889500  0.33404500  1
  C  2310  1  0.52535900  0.23006200  0.31962500  1
  C  2312  1  0.49639500  0.25633200  0.33516000  1
  C  2313  1  0.51401300  0.25642400  0.35008000  1
  C  2314  1  0.53733800  0.24251900  0.34919500  1
  C  2316  1  0.47190900  0.26883600  0.33425300  1
  C  2317  1  0.44686000  0.25859900  0.33019200  1
  C  2318  1  0.42403700  0.27315500  0.32965800  1
  C  2319  1  0.42572700  0.29709300  0.33315100  1
  C  2320  1  0.45106600  0.30615300  0.33714700  1
  C  2325  1  0.44376900  0.23329100  0.32737200  1
  C  2329  1  0.50818500  0.26970300  0.36659700  1
  C  2333  1  0.40301000  0.31075800  0.33305900  1
  C  2334  1  0.56615400  0.21492100  0.33304500  1
  C  2337  1  0.77414600  0.86631200  0.68341000  1
  C  2338  1  0.75931800  0.84595400  0.68598200  1
  C  2340  1  0.74430400  0.85838300  0.71487600  1
  C  2341  1  0.75894300  0.87927900  0.71319300  1
  C  2342  1  0.77364400  0.88273400  0.69739300  1
  C  2344  1  0.72785500  0.85323000  0.72978500  1
  C  2345  1  0.70037000  0.84732800  0.72863500  1
  C  2346  1  0.68592100  0.84499300  0.74472100  1
  C  2347  1  0.69804800  0.84839600  0.76154400  1
  C  2348  1  0.72550400  0.85346200  0.76176100  1
  C  2353  1  0.68617900  0.84496500  0.71129300  1
  C  2357  1  0.75815400  0.89802400  0.72679500  1
  C  2361  1  0.68303700  0.84825300  0.77702200  1
  C  2362  1  0.78725100  0.87172600  0.66764300  1
  C  2365  1  0.69172000  0.15924900  0.68356500  1
  C  2366  1  0.70603300  0.17994400  0.68596900  1
  C  2368  1  0.72115600  0.16850400  0.71516700  1
  C  2369  1  0.70711200  0.14727400  0.71364500  1
  C  2370  1  0.69257700  0.14315600  0.69776600  1
  C  2372  1  0.73722800  0.17435800  0.73019900  1
  C  2373  1  0.76474100  0.18016100  0.72936200  1
  C  2374  1  0.77884100  0.18316300  0.74562500  1
  C  2375  1  0.76632000  0.18050200  0.76231100  1
  C  2376  1  0.73882600  0.17556000  0.76217600  1
  C  2381  1  0.77927000  0.18171100  0.71219900  1
  C  2385  1  0.70832100  0.12891500  0.72754700  1
  C  2389  1  0.78102400  0.18102900  0.77803000  1
  C  2390  1  0.67849700  0.15339300  0.66784900  1
  C  2393  1  0.69467000  0.16040000  0.25667100  1
  C  2394  1  0.70950900  0.18075700  0.25413600  1
  C  2396  1  0.72433900  0.16849000  0.22515500  1
  C  2397  1  0.70965400  0.14760900  0.22679400  1
  C  2398  1  0.69504300  0.14407300  0.24262200  1
  C  2400  1  0.74073700  0.17372500  0.21023500  1
  C  2401  1  0.76819600  0.17972800  0.21136800  1
  C  2402  1  0.78259100  0.18219800  0.19527200  1
  C  2403  1  0.77044100  0.17882700  0.17845300  1
  C  2404  1  0.74301600  0.17364100  0.17825200  1
  C  2409  1  0.78243100  0.18207100  0.22869700  1
  C  2413  1  0.71029900  0.12895900  0.21311400  1
  C  2417  1  0.78541500  0.17911900  0.16296200  1
  C  2418  1  0.68160600  0.15494300  0.27244100  1
  C  2421  1  0.77721000  0.86784800  0.25635700  1
  C  2422  1  0.76298100  0.84712600  0.25387000  1
  C  2424  1  0.74759600  0.85882200  0.22479400  1
  C  2425  1  0.76151400  0.88010200  0.22641200  1
  C  2426  1  0.77614500  0.88410300  0.24226900  1
  C  2428  1  0.73149200  0.85306500  0.20975900  1
  C  2429  1  0.70398700  0.84725200  0.21060600  1
  C  2430  1  0.68983900  0.84438500  0.19434900  1
  C  2431  1  0.70230600  0.84719300  0.17765700  1
  C  2432  1  0.72979900  0.85213300  0.17777900  1
  C  2437  1  0.68952300  0.84554900  0.22778600  1
  C  2441  1  0.76008400  0.89861200  0.21263600  1
  C  2445  1  0.68755000  0.84677700  0.16195500  1
  C  2446  1  0.79053400  0.87359000  0.27205900  1
  C  2449  1  0.27545200  0.36650000  0.68311100  1
  C  2450  1  0.26056600  0.34614000  0.68552800  1
  C  2452  1  0.24588400  0.35802700  0.71465500  1
  C  2453  1  0.26062600  0.37889700  0.71314000  1
  C  2454  1  0.27517300  0.38261900  0.69730600  1
  C  2456  1  0.22952000  0.35263600  0.72958200  1
  C  2457  1  0.20208300  0.34654400  0.72847300  1
  C  2458  1  0.18772600  0.34395200  0.74457800  1
  C  2459  1  0.19988200  0.34728400  0.76140200  1
  C  2460  1  0.22728700  0.35255200  0.76158200  1
  C  2465  1  0.18781200  0.34423100  0.71115400  1
  C  2469  1  0.26009400  0.39738200  0.72695500  1
  C  2473  1  0.18495400  0.34685000  0.77692400  1
  C  2474  1  0.28838700  0.37221900  0.66732500  1
  C  2477  1  0.19259900  0.65952600  0.68349700  1
  C  2478  1  0.20694900  0.68017600  0.68603800  1
  C  2480  1  0.22207600  0.66841100  0.71516900  1
  C  2481  1  0.20801400  0.64720800  0.71350200  1
  C  2482  1  0.19346400  0.64328100  0.69759900  1
  C  2484  1  0.23814900  0.67407200  0.73025600  1
  C  2485  1  0.26567700  0.67983100  0.72948400  1
  C  2486  1  0.27976600  0.68261700  0.74577700  1
  C  2487  1  0.26722700  0.67977800  0.76244200  1
  C  2488  1  0.23972200  0.67488500  0.76224900  1
  C  2493  1  0.28022900  0.68156100  0.71234000  1
  C  2497  1  0.20923300  0.62868200  0.72727400  1
  C  2501  1  0.28190700  0.68017800  0.77818500  1
  C  2502  1  0.17941800  0.65379300  0.66772500  1
  C  2505  1  0.19531000  0.66056600  0.25674900  1
  C  2506  1  0.21015400  0.68089400  0.25408100  1
  C  2508  1  0.22503000  0.66830900  0.22518400  1
  C  2509  1  0.21035800  0.64744200  0.22696200  1
  C  2510  1  0.19572600  0.64408400  0.24280500  1
  C  2512  1  0.24143900  0.67336200  0.21022700  1
  C  2513  1  0.26891800  0.67930700  0.21131200  1
  C  2514  1  0.28331500  0.68156900  0.19519900  1
  C  2515  1  0.27115500  0.67805100  0.17839900  1
  C  2516  1  0.24371000  0.67292900  0.17824100  1
  C  2521  1  0.28316100  0.68179600  0.22862600  1
  C  2525  1  0.21105600  0.62862500  0.21341700  1
  C  2529  1  0.28612100  0.67820300  0.16289400  1
  C  2530  1  0.18229200  0.65522700  0.27257200  1
  C  2533  1  0.27829700  0.36822400  0.25657200  1
  C  2534  1  0.26401400  0.34749600  0.25424500  1
  C  2536  1  0.24892000  0.35866700  0.22496000  1
  C  2537  1  0.26293000  0.37992600  0.22640500  1
  C  2538  1  0.27742400  0.38419100  0.24228100  1
  C  2540  1  0.23289500  0.35266800  0.20992200  1
  C  2541  1  0.20543900  0.34666000  0.21074200  1
  C  2542  1  0.19138300  0.34352000  0.19447400  1
  C  2543  1  0.20387300  0.34624200  0.17778200  1
  C  2544  1  0.23131600  0.35138900  0.17793100  1
  C  2549  1  0.19090600  0.34502200  0.22789800  1
  C  2553  1  0.26172500  0.39818400  0.21242300  1
  C  2557  1  0.18919500  0.34551900  0.16204300  1
  C  2558  1  0.29148900  0.37425100  0.27227600  1
  C  2561  1  0.35425400  0.85885500  0.81744500  1
  C  2562  1  0.33135100  0.84608300  0.81230900  1
  C  2563  1  0.31599300  0.83392000  0.82486800  1
  C  2564  1  0.32248100  0.83620000  0.84308200  1
  C  2565  1  0.34455200  0.84920300  0.84881100  1
  C  2566  1  0.36083600  0.85995300  0.83593900  1
  C  2569  1  0.36965200  0.87106000  0.80436200  1
  C  2570  1  0.37944400  0.86037300  0.78854400  1
  C  2571  1  0.39562000  0.87288400  0.77646100  1
  C  2572  1  0.40211500  0.89598500  0.78040800  1
  C  2573  1  0.39273000  0.90705100  0.79582900  1
  C  2574  1  0.37597600  0.89463300  0.80737700  1
  C  2585  1  0.55271400  0.16947800  0.81856600  1
  C  2586  1  0.57592200  0.18164400  0.81332100  1
  C  2587  1  0.59204700  0.19341600  0.82579500  1
  C  2588  1  0.58602000  0.19127700  0.84404200  1
  C  2589  1  0.56366000  0.17886900  0.84988400  1
  C  2590  1  0.54661600  0.16859000  0.83709600  1
  C  2593  1  0.53645000  0.15772300  0.80557000  1
  C  2594  1  0.52679900  0.16860400  0.78971400  1
  C  2595  1  0.50957100  0.15664300  0.77782900  1
  C  2596  1  0.50183900  0.13393000  0.78201200  1
  C  2597  1  0.51140700  0.12253600  0.79730300  1
  C  2598  1  0.52912000  0.13440200  0.80869300  1
  C  2609  1  0.35789800  0.17053300  0.56840600  1
  C  2610  1  0.33500000  0.18332800  0.57363600  1
  C  2611  1  0.31915700  0.19557100  0.56112200  1
  C  2612  1  0.32579500  0.19419300  0.54298200  1
  C  2613  1  0.34796500  0.18119000  0.53717900  1
  C  2614  1  0.36431700  0.16981100  0.54993100  1
  C  2617  1  0.37286600  0.15747900  0.58140800  1
  C  2618  1  0.38186200  0.16704200  0.59787500  1
  C  2619  1  0.39647100  0.15329400  0.61023700  1
  C  2620  1  0.40296200  0.13025800  0.60572100  1
  C  2621  1  0.39426300  0.12032200  0.58967900  1
  C  2622  1  0.37861300  0.13384600  0.57793900  1
  C  2633  1  0.55095700  0.85586600  0.56886700  1
  C  2634  1  0.57428600  0.84355400  0.57420200  1
  C  2635  1  0.59032300  0.83167600  0.56175700  1
  C  2636  1  0.58405100  0.83372000  0.54349400  1
  C  2637  1  0.56148000  0.84618900  0.53758000  1
  C  2638  1  0.54454100  0.85664800  0.55032100  1
  C  2641  1  0.53531900  0.86835400  0.58176800  1
  C  2642  1  0.52654800  0.85847800  0.59812300  1
  C  2643  1  0.51062100  0.87154800  0.61009000  1
  C  2644  1  0.50256100  0.89412600  0.60527500  1
  C  2645  1  0.51139500  0.90451600  0.58951700  1
  C  2646  1  0.52828600  0.89172900  0.57818400  1
  C  2657  1  0.55651400  0.16876500  0.06932300  1
  C  2658  1  0.57927900  0.18166100  0.07453900  1
  C  2659  1  0.59475000  0.19379800  0.06203100  1
  C  2660  1  0.58828800  0.19162200  0.04380800  1
  C  2661  1  0.56576900  0.17922200  0.03801000  1
  C  2662  1  0.55007700  0.16766600  0.05080400  1
  C  2665  1  0.54111100  0.15648100  0.08236800  1
  C  2666  1  0.53122300  0.16712200  0.09818300  1
  C  2667  1  0.51504200  0.15456100  0.11023300  1
  C  2668  1  0.50860900  0.13146100  0.10624600  1
  C  2669  1  0.51805800  0.12045000  0.09082300  1
  C  2670  1  0.53483500  0.13290600  0.07931500  1
  C  2681  1  0.35770500  0.85828000  0.06824600  1
  C  2682  1  0.33478600  0.84580600  0.07360600  1
  C  2683  1  0.31857400  0.83402900  0.06120000  1
  C  2684  1  0.32437200  0.83622500  0.04293100  1
  C  2685  1  0.34698500  0.84822400  0.03697300  1
  C  2686  1  0.36348200  0.85934600  0.04966800  1
  C  2689  1  0.37400000  0.87007200  0.08121400  1
  C  2690  1  0.38383300  0.85916000  0.09701400  1
  C  2691  1  0.40102200  0.87115300  0.10890400  1
  C  2692  1  0.40861400  0.89390800  0.10475100  1
  C  2693  1  0.39891600  0.90531300  0.08950100  1
  C  2694  1  0.38117900  0.89343600  0.07813500  1
  C  2705  1  0.55378000  0.85670100  0.31810200  1
  C  2706  1  0.57655500  0.84369600  0.31287600  1
  C  2707  1  0.59218600  0.83133800  0.32537400  1
  C  2708  1  0.58586800  0.83328000  0.34359000  1
  C  2709  1  0.56329300  0.84575800  0.34938900  1
  C  2710  1  0.54743400  0.85758800  0.33660100  1
  C  2713  1  0.53871100  0.86968100  0.30508700  1
  C  2714  1  0.52959700  0.86002000  0.28867600  1
  C  2715  1  0.51468600  0.87363300  0.27638100  1
  C  2716  1  0.50791300  0.89659200  0.28093800  1
  C  2717  1  0.51663800  0.90660300  0.29694000  1
  C  2718  1  0.53268400  0.89326700  0.30856800  1
  C  2729  1  0.36012300  0.17120700  0.31791400  1
  C  2730  1  0.33717100  0.18381500  0.31233700  1
  C  2731  1  0.32075600  0.19560000  0.32464400  1
  C  2732  1  0.32703900  0.19421000  0.34288100  1
  C  2733  1  0.34974000  0.18203700  0.34903600  1
  C  2734  1  0.36605400  0.17038000  0.33652300  1
  C  2737  1  0.37572100  0.15853500  0.30509700  1
  C  2738  1  0.38467600  0.16831800  0.28874900  1
  C  2739  1  0.40029900  0.15504600  0.27674000  1
  C  2740  1  0.40791900  0.13234700  0.28151700  1
  C  2741  1  0.39892700  0.12207300  0.29728000  1
  C  2742  1  0.38232300  0.13507100  0.30866200  1
  C  2753  1  0.85550600  0.35758900  0.81731300  1
  C  2754  1  0.83214000  0.34571600  0.81188200  1
  C  2755  1  0.81542800  0.33466200  0.82431500  1
  C  2756  1  0.82162800  0.33640900  0.84255100  1
  C  2757  1  0.84440900  0.34829900  0.84855600  1
  C  2758  1  0.86158900  0.35842800  0.83588700  1
  C  2761  1  0.87151900  0.36954600  0.80442800  1
  C  2762  1  0.88110100  0.35891000  0.78852800  1
  C  2763  1  0.89751900  0.37133000  0.77652800  1
  C  2764  1  0.90431170  0.39433100  0.78059200  1
  C  2765  1  0.89505100  0.40536800  0.79605800  1
  C  2766  1  0.87820000  0.39300900  0.80757700  1
  C  2777  1  0.05390900  0.66820300  0.81861300  1
  C  2778  1  0.07732600  0.67975800  0.81304900  1
  C  2779  1  0.09464100  0.69056500  0.82537000  1
  C  2780  1  0.08908300  0.68876200  0.84364800  1
  C  2781  1  0.06632300  0.67711400  0.84979400  1
  C  2782  1  0.04847600  0.66734800  0.83723500  1
  C  2785  1  0.03707000  0.65674500  0.80579100  1
  C  2786  1  0.02750700  0.66767600  0.78992900  1
  C  2787  1  0.01012200  0.65584200  0.77806500  1
  C  2788  1  0.00222100  0.63317600  0.78225800  1
  C  2789  1  0.01176300  0.62171200  0.79753000  1
  C  2790  1  0.02953800  0.63348800  0.80892900  1
  C  2801  1  0.85751200  0.67043400  0.56857000  1
  C  2802  1  0.83406800  0.68228300  0.57401400  1
  C  2803  1  0.81714900  0.69357600  0.56160700  1
  C  2804  1  0.82320600  0.69211700  0.54337600  1
  C  2805  1  0.84612800  0.68028800  0.53736800  1
  C  2806  1  0.86352000  0.66989500  0.55002100  1
  C  2809  1  0.87325900  0.65779200  0.58140900  1
  C  2810  1  0.88210600  0.66745900  0.59788200  1
  C  2811  1  0.89731300  0.65399100  0.61011700  1
  C  2812  1  0.90445770  0.63113600  0.60547900  1
  C  2813  1  0.89586200  0.62108600  0.58945800  1
  C  2814  1  0.87970700  0.63432100  0.57783200  1
  C  2825  1  0.05350400  0.35708200  0.56877800  1
  C  2826  1  0.07704600  0.34543400  0.57447200  1
  C  2827  1  0.09432000  0.33440400  0.56225600  1
  C  2828  1  0.08853400  0.33600600  0.54395200  1
  C  2829  1  0.06562300  0.34775300  0.53768000  1
  C  2830  1  0.04784100  0.35777300  0.55013300  1
  C  2833  1  0.03713300  0.36917300  0.58149500  1
  C  2834  1  0.02838400  0.35916700  0.59781500  1
  C  2835  1  0.01215600  0.37201600  0.60975100  1
  C  2836  1  0.00385700  0.39453600  0.60494000  1
  C  2837  1  0.01271700  0.40507200  0.58924300  1
  C  2838  1  0.02979300  0.39246700  0.57791500  1
  C  2849  1  0.05757800  0.66745900  0.06940000  1
  C  2850  1  0.08057800  0.67977300  0.07491700  1
  C  2851  1  0.09727300  0.69093000  0.06254100  1
  C  2852  1  0.09126900  0.68907300  0.04428500  1
  C  2853  1  0.06835500  0.67740700  0.03820500  1
  C  2854  1  0.05179000  0.66637000  0.05079300  1
  C  2857  1  0.04162100  0.65543700  0.08227800  1
  C  2858  1  0.03177500  0.66613200  0.09808300  1
  C  2859  1  0.01544100  0.65366900  0.11010300  1
  C  2860  1  0.00887600  0.63059800  0.10610900  1
  C  2861  1  0.01834500  0.61952200  0.09071400  1
  C  2862  1  0.03521000  0.63190100  0.07921700  1
  C  2873  1  0.85904100  0.35698100  0.06823200  1
  C  2874  1  0.83571400  0.34530800  0.07381200  1
  C  2875  1  0.81832900  0.33458100  0.06149700  1
  C  2876  1  0.82395700  0.33627600  0.04322100  1
  C  2877  1  0.84713100  0.34731900  0.03706200  1
  C  2878  1  0.86441600  0.35786400  0.04959800  1
  C  2881  1  0.87579800  0.36855700  0.08104800  1
  C  2882  1  0.88538500  0.35773200  0.09695400  1
  C  2883  1  0.90273370  0.36966400  0.10878300  1
  C  2884  1  0.91060070  0.39231000  0.10450900  1
  C  2885  1  0.90105670  0.40365900  0.08919300  1
  C  2886  1  0.88328200  0.39181100  0.07784200  1
  C  2897  1  0.05607300  0.35806000  0.31810800  1
  C  2898  1  0.07904500  0.34562800  0.31256700  1
  C  2899  1  0.09588600  0.33409000  0.32489100  1
  C  2900  1  0.09005000  0.33568600  0.34314600  1
  C  2901  1  0.06718300  0.34754700  0.34925600  1
  C  2902  1  0.05046000  0.35893900  0.33670700  1
  C  2905  1  0.04034100  0.37069700  0.30524600  1
  C  2906  1  0.03118800  0.36089900  0.28888800  1
  C  2907  1  0.01601000  0.37433500  0.27661400  1
  C  2908  1  0.00908600  0.39727600  0.28114400  1
  C  2909  1  0.01791000  0.40742800  0.29707500  1
  C  2910  1  0.03413900  0.39424500  0.30868700  1
  C  2921  1  0.85968100  0.67117800  0.31776500  1
  C  2922  1  0.83619600  0.68286900  0.31201200  1
  C  2923  1  0.81879500  0.69373200  0.32421400  1
  C  2924  1  0.82459600  0.69225100  0.34252300  1
  C  2925  1  0.84799800  0.68125900  0.34883900  1
  C  2926  1  0.86529600  0.67053500  0.33642200  1
  C  2929  1  0.87595400  0.65888400  0.30510600  1
  C  2930  1  0.88473300  0.66871800  0.28873300  1
  C  2931  1  0.90089770  0.65570500  0.27686500  1
  C  2932  1  0.90913570  0.63321900  0.28179800  1
  C  2933  1  0.90026570  0.62286300  0.29755800  1
  C  2934  1  0.88321200  0.63559900  0.30881100  1
  C  2945  1  0.33988900  0.85857900  0.89643300  1
  C  2946  1  0.36225900  0.84702700  0.90380710  1
  C  2948  1  0.34714800  0.85333700  0.93374010  1
  C  2949  1  0.32452600  0.86582000  0.92728810  1
  C  2950  1  0.32139600  0.86814400  0.90861410  1
  C  2952  1  0.35111600  0.84746000  0.95197410  1
  C  2953  1  0.35268700  0.82428000  0.95829010  1
  C  2954  1  0.35371400  0.82070100  0.97693910  1
  C  2955  1  0.35327300  0.83925500  0.98923510  1
  C  2956  1  0.35234800  0.86180000  0.98199610  1
  C  2961  1  0.35156800  0.80394300  0.94616110  1
  C  2965  1  0.30350200  0.87508800  0.93929910  1
  C  2969  1  0.35118300  0.83473700  0.00742000  1
  C  2970  1  0.33442000  0.85919700  0.87820300  1
  C  2973  1  0.56921500  0.16929200  0.89748300  1
  C  2974  1  0.54691400  0.18070300  0.90491010  1
  C  2976  1  0.56267900  0.17440000  0.93481510  1
  C  2977  1  0.58526400  0.16206800  0.92830510  1
  C  2978  1  0.58801900  0.15979300  0.90962410  1
  C  2980  1  0.55901000  0.18018000  0.95307110  1
  C  2981  1  0.55713600  0.20331800  0.95944210  1
  C  2982  1  0.55647500  0.20682300  0.97810110  1
  C  2983  1  0.55758400  0.18823600  0.99036007  1
  C  2984  1  0.55871600  0.16572900  0.98307510  1
  C  2989  1  0.55758700  0.22371500  0.94735810  1
  C  2993  1  0.60660400  0.15287300  0.94026210  1
  C  2997  1  0.56007000  0.19273800  0.00854600  1
  C  2998  1  0.57421500  0.16858200  0.87923300  1
  C  3001  1  0.34337500  0.17144300  0.48959700  1
  C  3002  1  0.36554300  0.18292800  0.48232100  1
  C  3004  1  0.35040000  0.17655400  0.45230900  1
  C  3005  1  0.32802600  0.16407700  0.45866100  1
  C  3006  1  0.32500900  0.16181900  0.47732600  1
  C  3008  1  0.35418000  0.18246200  0.43409400  1
  C  3009  1  0.35558500  0.20566000  0.42784100  1
  C  3010  1  0.35646400  0.20931700  0.40920700  1
  C  3011  1  0.35603900  0.19083100  0.39685700  1
  C  3012  1  0.35529500  0.16825800  0.40402900  1
  C  3017  1  0.35443100  0.22597000  0.44000300  1
  C  3021  1  0.30713400  0.15473200  0.44654800  1
  C  3025  1  0.35376100  0.19547100  0.37867700  1
  C  3026  1  0.33811000  0.17076000  0.50781400  1
  C  3029  1  0.56677700  0.85603100  0.49004700  1
  C  3030  1  0.54475900  0.84455100  0.48240100  1
  C  3032  1  0.56056800  0.85085300  0.45264700  1
  C  3033  1  0.58285300  0.86326400  0.45937700  1
  C  3034  1  0.58544800  0.86557300  0.47808500  1
  C  3036  1  0.55713800  0.84501300  0.43436100  1
  C  3037  1  0.55583700  0.82184800  0.42801800  1
  C  3038  1  0.55526900  0.81828000  0.40936000  1
  C  3039  1  0.55592800  0.83683000  0.39707200  1
  C  3040  1  0.55655000  0.85936500  0.40432300  1
  C  3045  1  0.55677100  0.80149000  0.44014400  1
  C  3049  1  0.60406700  0.87249700  0.44762400  1
  C  3053  1  0.55845200  0.83227500  0.37890800  1
  C  3054  1  0.57167800  0.85674100  0.50834800  1
  C  3057  1  0.83980100  0.35734600  0.89630200  1
  C  3058  1  0.86202800  0.34559400  0.90368110  1
  C  3060  1  0.84707600  0.35210400  0.93365210  1
  C  3061  1  0.82459500  0.36477800  0.92718110  1
  C  3062  1  0.82146300  0.36709800  0.90850310  1
  C  3064  1  0.85103200  0.34629200  0.95192710  1
  C  3065  1  0.85278300  0.32314500  0.95831610  1
  C  3066  1  0.85354700  0.31963000  0.97698410  1
  C  3067  1  0.85271700  0.33820900  0.98924810  1
  C  3068  1  0.85175600  0.36072300  0.98195910  1
  C  3073  1  0.85207800  0.30274500  0.94623810  1
  C  3077  1  0.80367900  0.37428200  0.93917210  1
  C  3081  1  0.85026700  0.33374400  0.00742800  1
  C  3082  1  0.83437100  0.35814900  0.87805600  1
  C  3085  1  0.07231900  0.66784900  0.89747400  1
  C  3086  1  0.05008000  0.67929300  0.90495810  1
  C  3088  1  0.06594000  0.67292000  0.93484510  1
  C  3089  1  0.08847900  0.66057400  0.92827310  1
  C  3090  1  0.09114800  0.65831600  0.90958210  1
  C  3092  1  0.06234800  0.67863300  0.95313410  1
  C  3093  1  0.06047400  0.70174500  0.95956410  1
  C  3094  1  0.05997700  0.70519200  0.97823710  1
  C  3095  1  0.06122900  0.68657200  0.99046007  1
  C  3096  1  0.06230800  0.66408900  0.98312710  1
  C  3101  1  0.06077000  0.72218700  0.94752210  1
  C  3105  1  0.10985800  0.65133100  0.94017710  1
  C  3109  1  0.06387100  0.69101200  0.00865100  1
  C  3110  1  0.07718500  0.66704100  0.87919900  1
  C  3113  1  0.84130800  0.67119100  0.48961200  1
  C  3114  1  0.86331300  0.68289700  0.48232600  1
  C  3116  1  0.84827200  0.67635900  0.45228600  1
  C  3117  1  0.82603400  0.66371400  0.45866400  1
  C  3118  1  0.82305200  0.66142900  0.47733100  1
  C  3120  1  0.85202300  0.68216900  0.43402600  1
  C  3121  1  0.85341500  0.70532000  0.42765800  1
  C  3122  1  0.85404400  0.70885500  0.40899600  1
  C  3123  1  0.85342500  0.69029200  0.39671700  1
  C  3124  1  0.85280500  0.66777200  0.40398800  1
  C  3129  1  0.85247000  0.72571400  0.43973900  1
  C  3133  1  0.80520600  0.65419500  0.44657700  1
  C  3137  1  0.85079300  0.69479100  0.37853000  1
  C  3138  1  0.83606000  0.67036300  0.50784100  1
  C  3141  1  0.07123800  0.35721800  0.49006700  1
  C  3142  1  0.04924800  0.34571200  0.48240700  1
  C  3144  1  0.06497700  0.35215200  0.45264000  1
  C  3145  1  0.08723300  0.36459100  0.45939200  1
  C  3146  1  0.08985100  0.36684200  0.47810600  1
  C  3148  1  0.06152500  0.34640200  0.43432300  1
  C  3149  1  0.06002400  0.32327700  0.42790300  1
  C  3150  1  0.05963400  0.31979100  0.40923100  1
  C  3151  1  0.06062800  0.33838000  0.39699400  1
  C  3152  1  0.06133400  0.36087700  0.40430600  1
  C  3157  1  0.06058900  0.30285600  0.43997000  1
  C  3161  1  0.10840700  0.37393400  0.44765900  1
  C  3165  1  0.06332100  0.33389700  0.37882700  1
  C  3166  1  0.07608300  0.35802900  0.50838100  1
  C  3169  1  0.49258400  0.06466600  0.81059700  1
  C  3170  1  0.46474700  0.06460100  0.80770600  1
  C  3172  1  0.46293300  0.02329200  0.80968500  1
  C  3173  1  0.49095000  0.02205500  0.81267500  1
  C  3174  1  0.50533600  0.04304000  0.81312200  1
  C  3176  1  0.44603700  0.00373100  0.80919100  1
  C  3177  1  0.42997300  0.99744200  0.79431000  1
  C  3178  1  0.41493100  0.97686200  0.79553500  1
  C  3179  1  0.41537900  0.96297800  0.81105500  1
  C  3180  1  0.43117300  0.97062500  0.82546500  1
  C  3185  1  0.42958000  0.01108500  0.77752100  1
  C  3189  1  0.50541400  0.99964100  0.81459400  1
  C  3193  1  0.40204900  0.94208200  0.81213300  1
  C  3194  1  0.50706700  0.08500000  0.81114200  1
  C  3197  1  0.49281600  0.96198600  0.57504900  1
  C  3198  1  0.46487700  0.96228900  0.57719200  1
  C  3200  1  0.46317000  0.00358600  0.57566900  1
  C  3201  1  0.49127400  0.00459400  0.57339500  1
  C  3202  1  0.50569900  0.98346000  0.57308300  1
  C  3204  1  0.44626200  0.02327100  0.57605000  1
  C  3205  1  0.43009900  0.02955700  0.59080300  1
  C  3206  1  0.41497600  0.05026100  0.58949100  1
  C  3207  1  0.41554800  0.06424300  0.57403100  1
  C  3208  1  0.43144600  0.05658300  0.55974300  1
  C  3213  1  0.42970800  0.01580900  0.60753600  1
  C  3217  1  0.50572300  0.02688900  0.57209400  1
  C  3221  1  0.40239000  0.08534700  0.57300600  1
  C  3222  1  0.50726100  0.94151100  0.57488500  1
  C  3225  1  0.41771500  0.96316500  0.07617200  1
  C  3226  1  0.44555900  0.96315800  0.07903200  1
  C  3228  1  0.44751500  0.00445000  0.07701400  1
  C  3229  1  0.41950000  0.00576400  0.07404500  1
  C  3230  1  0.40503300  0.98482000  0.07363200  1
  C  3232  1  0.46448800  0.02395500  0.07748600  1
  C  3233  1  0.48052000  0.03024200  0.09238200  1
  C  3234  1  0.49568400  0.05074800  0.09112800  1
  C  3235  1  0.49538100  0.06456400  0.07557000  1
  C  3236  1  0.47960000  0.05692100  0.06115300  1
  C  3241  1  0.48074800  0.01668100  0.10921100  1
  C  3245  1  0.40512600  0.02821900  0.07211200  1
  C  3249  1  0.50878500  0.08541900  0.07448600  1
  C  3250  1  0.40317000  0.94286300  0.07566300  1
  C  3253  1  0.41674300  0.06442800  0.31168300  1
  C  3254  1  0.44470100  0.06406400  0.30965200  1
  C  3256  1  0.44625800  0.02276500  0.31106700  1
  C  3257  1  0.41813700  0.02181200  0.31325700  1
  C  3258  1  0.40377200  0.04298000  0.31356300  1
  C  3260  1  0.46314200  0.00307300  0.31066700  1
  C  3261  1  0.47938100  0.99687800  0.29593200  1
  C  3262  1  0.49467600  0.97627300  0.29726800  1
  C  3263  1  0.49418600  0.96228400  0.31272700  1
  C  3264  1  0.47814500  0.96983000  0.32698100  1
  C  3269  1  0.47969900  0.01062100  0.27919300  1
  C  3273  1  0.40363300  0.99954000  0.31447300  1
  C  3277  1  0.50757500  0.94127800  0.31377300  1
  C  3278  1  0.40239400  0.08495400  0.31180400  1
  C  3281  1  0.99365266  0.56357700  0.81055100  1
  C  3282  1  0.96575470  0.56334400  0.80796900  1
  C  3284  1  0.96440570  0.52200700  0.80967600  1
  C  3285  1  0.99249766  0.52093300  0.81233500  1
  C  3286  1  0.00668300  0.54201800  0.81277100  1
  C  3288  1  0.94770670  0.50233000  0.80925000  1
  C  3289  1  0.93144470  0.49601600  0.79447300  1
  C  3290  1  0.91662470  0.47532300  0.79575200  1
  C  3291  1  0.91749370  0.46136000  0.81122500  1
  C  3292  1  0.93347070  0.46902800  0.82553400  1
  C  3297  1  0.93061670  0.50976600  0.77774100  1
  C  3301  1  0.00721500  0.49860000  0.81393300  1
  C  3305  1  0.90433070  0.44040000  0.81234900  1
  C  3306  1  0.00795800  0.58400000  0.81108200  1
  C  3309  1  0.99472066  0.46278900  0.57507200  1
  C  3310  1  0.96673070  0.46316200  0.57690100  1
  C  3312  1  0.96525270  0.50447000  0.57560000  1
  C  3313  1  0.99341266  0.50541400  0.57364300  1
  C  3314  1  0.00775100  0.48423600  0.57337400  1
  C  3316  1  0.94842570  0.52419700  0.57592200  1
  C  3317  1  0.93202570  0.53041500  0.59057200  1
  C  3318  1  0.91695670  0.55114200  0.58921300  1
  C  3319  1  0.91782170  0.56520500  0.57380600  1
  C  3320  1  0.93396870  0.55762200  0.55962000  1
  C  3325  1  0.93132070  0.51656600  0.60725000  1
  C  3329  1  0.00798000  0.52767500  0.57262000  1
  C  3333  1  0.90461770  0.58627900  0.57273700  1
  C  3334  1  0.00909000  0.44227700  0.57495600  1
  C  3337  1  0.91954470  0.46157300  0.07590800  1
  C  3338  1  0.94740070  0.46170700  0.07870100  1
  C  3340  1  0.94899470  0.50301900  0.07686300  1
  C  3341  1  0.92095470  0.50419200  0.07397500  1
  C  3342  1  0.90666470  0.48316400  0.07350500  1
  C  3344  1  0.96579070  0.52262400  0.07736600  1
  C  3345  1  0.98177270  0.52897000  0.09226900  1
  C  3346  1  0.99671666  0.54960000  0.09105300  1
  C  3347  1  0.99623366  0.56346200  0.07552200  1
  C  3348  1  0.98052770  0.55575700  0.06109200  1
  C  3353  1  0.98217670  0.51533000  0.10905900  1
  C  3357  1  0.90638970  0.52657400  0.07218100  1
  C  3361  1  0.00945200  0.58439500  0.07445900  1
  C  3362  1  0.90514970  0.44120200  0.07538200  1
  C  3365  1  0.91859170  0.56536500  0.31200800  1
  C  3366  1  0.94655170  0.56508200  0.30999300  1
  C  3368  1  0.94821970  0.52378600  0.31129700  1
  C  3369  1  0.92010070  0.52274900  0.31345800  1
  C  3370  1  0.90567570  0.54388200  0.31381200  1
  C  3372  1  0.96512870  0.50412500  0.31085700  1
  C  3373  1  0.98128070  0.49793900  0.29607700  1
  C  3374  1  0.99650466  0.47729300  0.29734800  1
  C  3375  1  0.99602466  0.46327800  0.31279000  1
  C  3376  1  0.98010170  0.47082600  0.32710000  1
  C  3381  1  0.98156870  0.51173800  0.27936600  1
  C  3385  1  0.90565670  0.50043900  0.31459400  1
  C  3389  1  0.00933700  0.44225300  0.31378000  1
  C  3390  1  0.90415070  0.58583600  0.31213700  1
  C  3393  1  0.26711300  0.78833000  0.82145200  1
  C  3394  1  0.25029000  0.79241600  0.80665700  1
  C  3396  1  0.21873400  0.76387400  0.81632900  1
  C  3397  1  0.23475700  0.75901700  0.83162800  1
  C  3398  1  0.25876500  0.77143500  0.83381400  1
  C  3400  1  0.19397700  0.75277300  0.81261500  1
  C  3401  1  0.16958200  0.76455500  0.80870800  1
  C  3402  1  0.14618900  0.75117500  0.80655600  1
  C  3403  1  0.14663800  0.72684100  0.80823600  1
  C  3404  1  0.17145300  0.71617400  0.81173900  1
  C  3409  1  0.16762500  0.79021000  0.80786500  1
  C  3413  1  0.22675600  0.74231000  0.84567900  1
  C  3417  1  0.12326400  0.71426700  0.80752500  1
  C  3418  1  0.29081400  0.80007100  0.82453500  1
  C  3421  1  0.64191200  0.23816300  0.82206800  1
  C  3422  1  0.65826200  0.23373800  0.80721900  1
  C  3424  1  0.69045800  0.26210100  0.81650400  1
  C  3425  1  0.67494900  0.26727600  0.83185900  1
  C  3426  1  0.65085000  0.25511500  0.83426400  1
  C  3428  1  0.71520100  0.27299100  0.81255000  1
  C  3429  1  0.73936600  0.26102300  0.80852100  1
  C  3430  1  0.76280200  0.27423000  0.80611100  1
  C  3431  1  0.76262000  0.29857900  0.80767300  1
  C  3432  1  0.73800500  0.30943400  0.81127900  1
  C  3437  1  0.74107000  0.23535000  0.80780400  1
  C  3441  1  0.68355800  0.28407400  0.84574500  1
  C  3445  1  0.78605100  0.31103500  0.80670200  1
  C  3446  1  0.61808500  0.22676400  0.82533300  1
  C  3449  1  0.26356000  0.22948300  0.57829400  1
  C  3450  1  0.24613700  0.23091500  0.59293900  1
  C  3452  1  0.21664400  0.25715600  0.57761100  1
  C  3453  1  0.23358600  0.25700000  0.56247000  1
  C  3454  1  0.25684700  0.24296300  0.56313700  1
  C  3456  1  0.19224900  0.26973800  0.57877800  1
  C  3457  1  0.16739700  0.25960700  0.58331500  1
  C  3458  1  0.14466200  0.27422600  0.58416100  1
  C  3459  1  0.14624100  0.29813100  0.58054600  1
  C  3460  1  0.17137100  0.30708500  0.57603700  1
  C  3465  1  0.16436000  0.23432700  0.58630300  1
  C  3469  1  0.22710000  0.27016700  0.54596500  1
  C  3473  1  0.12353800  0.31180300  0.58086300  1
  C  3474  1  0.28618900  0.21540200  0.57914800  1
  C  3477  1  0.64078300  0.78710800  0.56570600  1
  C  3478  1  0.65744100  0.79179300  0.58043900  1
  C  3480  1  0.69030900  0.76401300  0.57083900  1
  C  3481  1  0.67451800  0.75857700  0.55559800  1
  C  3482  1  0.64988700  0.77033600  0.55340000  1
  C  3484  1  0.71555000  0.75356900  0.57456400  1
  C  3485  1  0.73947900  0.76598600  0.57793700  1
  C  3486  1  0.76348000  0.75315500  0.58010300  1
  C  3487  1  0.76397600  0.72878000  0.57892500  1
  C  3488  1  0.73956800  0.71748100  0.57598800  1
  C  3493  1  0.74029300  0.79168900  0.57820500  1
  C  3497  1  0.68334300  0.74194900  0.54164000  1
  C  3501  1  0.78781300  0.71665900  0.57953500  1
  C  3502  1  0.61656600  0.79824900  0.56261100  1
  C  3505  1  0.64413300  0.23897600  0.06555700  1
  C  3506  1  0.66097700  0.23464300  0.08029900  1
  C  3508  1  0.69288200  0.26292200  0.07066000  1
  C  3509  1  0.67682300  0.26804700  0.05542600  1
  C  3510  1  0.65263600  0.25588400  0.05325000  1
  C  3512  1  0.71784600  0.27371400  0.07434600  1
  C  3513  1  0.74204600  0.26163900  0.07828000  1
  C  3514  1  0.76567200  0.27472300  0.08040400  1
  C  3515  1  0.76564900  0.29905100  0.07866900  1
  C  3516  1  0.74101300  0.31002000  0.07514700  1
  C  3521  1  0.74358100  0.23596700  0.07918300  1
  C  3525  1  0.68496100  0.28475600  0.04141300  1
  C  3529  1  0.78923800  0.31132600  0.07936900  1
  C  3530  1  0.62030200  0.22743300  0.06245300  1
  C  3533  1  0.26934200  0.78887200  0.06516400  1
  C  3534  1  0.25297700  0.79319100  0.08002400  1
  C  3536  1  0.22106100  0.76460300  0.07076400  1
  C  3537  1  0.23658300  0.75952300  0.05539900  1
  C  3538  1  0.26056200  0.77184800  0.05297700  1
  C  3540  1  0.19643700  0.75354700  0.07471200  1
  C  3541  1  0.17208200  0.76536500  0.07847000  1
  C  3542  1  0.14876800  0.75198100  0.08081500  1
  C  3543  1  0.14927700  0.72761300  0.07944900  1
  C  3544  1  0.17407900  0.71692200  0.07613500  1
  C  3549  1  0.17008800  0.79103100  0.07895000  1
  C  3553  1  0.22808200  0.74266600  0.04152500  1
  C  3557  1  0.12597300  0.71497100  0.08025600  1
  C  3558  1  0.29302700  0.80045800  0.06187400  1
  C  3561  1  0.64219700  0.78641400  0.32119400  1
  C  3562  1  0.65835600  0.79123400  0.30636300  1
  C  3564  1  0.69137700  0.76314800  0.31542500  1
  C  3565  1  0.67604600  0.75749800  0.33071500  1
  C  3566  1  0.65158000  0.76935000  0.33323500  1
  C  3568  1  0.71650900  0.75277900  0.31143700  1
  C  3569  1  0.74029800  0.76528800  0.30798900  1
  C  3570  1  0.76426700  0.75253700  0.30560300  1
  C  3571  1  0.76487400  0.72815000  0.30659900  1
  C  3572  1  0.74060100  0.71676300  0.30964000  1
  C  3577  1  0.74105600  0.79099700  0.30789500  1
  C  3581  1  0.68522500  0.74056900  0.34442400  1
  C  3585  1  0.78876400  0.71613600  0.30594800  1
  C  3586  1  0.61823000  0.79772700  0.32460700  1
  C  3589  1  0.26446900  0.22889500  0.30741200  1
  C  3590  1  0.24636800  0.23006200  0.29299200  1
  C  3592  1  0.21740400  0.25633200  0.30852700  1
  C  3593  1  0.23502200  0.25642400  0.32344700  1
  C  3594  1  0.25834700  0.24251900  0.32256200  1
  C  3596  1  0.19291800  0.26883600  0.30762000  1
  C  3597  1  0.16786900  0.25859900  0.30355900  1
  C  3598  1  0.14504600  0.27315500  0.30302500  1
  C  3599  1  0.14673600  0.29709300  0.30651800  1
  C  3600  1  0.17207500  0.30615300  0.31051400  1
  C  3605  1  0.16477800  0.23329100  0.30073900  1
  C  3609  1  0.22919400  0.26970300  0.33996400  1
  C  3613  1  0.12401900  0.31075800  0.30642600  1
  C  3614  1  0.28716300  0.21492100  0.30641200  1
  C  3617  1  0.49515500  0.86631200  0.65677700  1
  C  3618  1  0.48032700  0.84595400  0.65934900  1
  C  3620  1  0.46531300  0.85838300  0.68824300  1
  C  3621  1  0.47995200  0.87927900  0.68656000  1
  C  3622  1  0.49465300  0.88273400  0.67076000  1
  C  3624  1  0.44886400  0.85323000  0.70315200  1
  C  3625  1  0.42137900  0.84732800  0.70200200  1
  C  3626  1  0.40693000  0.84499300  0.71808800  1
  C  3627  1  0.41905700  0.84839600  0.73491100  1
  C  3628  1  0.44651300  0.85346200  0.73512800  1
  C  3633  1  0.40718800  0.84496500  0.68466000  1
  C  3637  1  0.47916300  0.89802400  0.70016200  1
  C  3641  1  0.40404600  0.84825300  0.75038900  1
  C  3642  1  0.50826000  0.87172600  0.64101000  1
  C  3645  1  0.41272900  0.15924900  0.65693200  1
  C  3646  1  0.42704200  0.17994400  0.65933600  1
  C  3648  1  0.44216500  0.16850400  0.68853400  1
  C  3649  1  0.42812100  0.14727400  0.68701200  1
  C  3650  1  0.41358600  0.14315600  0.67113300  1
  C  3652  1  0.45823700  0.17435800  0.70356600  1
  C  3653  1  0.48575000  0.18016100  0.70272900  1
  C  3654  1  0.49985000  0.18316300  0.71899200  1
  C  3655  1  0.48732900  0.18050200  0.73567800  1
  C  3656  1  0.45983500  0.17556000  0.73554300  1
  C  3661  1  0.50027900  0.18171100  0.68556600  1
  C  3665  1  0.42933000  0.12891500  0.70091400  1
  C  3669  1  0.50203300  0.18102900  0.75139700  1
  C  3670  1  0.39950600  0.15339300  0.64121600  1
  C  3673  1  0.41567900  0.16040000  0.23003800  1
  C  3674  1  0.43051800  0.18075700  0.22750300  1
  C  3676  1  0.44534800  0.16849000  0.19852200  1
  C  3677  1  0.43066300  0.14760900  0.20016100  1
  C  3678  1  0.41605200  0.14407300  0.21598900  1
  C  3680  1  0.46174600  0.17372500  0.18360200  1
  C  3681  1  0.48920500  0.17972800  0.18473500  1
  C  3682  1  0.50360000  0.18219800  0.16863900  1
  C  3683  1  0.49145000  0.17882700  0.15182000  1
  C  3684  1  0.46402500  0.17364100  0.15161900  1
  C  3689  1  0.50344000  0.18207100  0.20206400  1
  C  3693  1  0.43130800  0.12895900  0.18648100  1
  C  3697  1  0.50642400  0.17911900  0.13632900  1
  C  3698  1  0.40261500  0.15494300  0.24580800  1
  C  3701  1  0.49821900  0.86784800  0.22972400  1
  C  3702  1  0.48399000  0.84712600  0.22723700  1
  C  3704  1  0.46860500  0.85882200  0.19816100  1
  C  3705  1  0.48252300  0.88010200  0.19977900  1
  C  3706  1  0.49715400  0.88410300  0.21563600  1
  C  3708  1  0.45250100  0.85306500  0.18312600  1
  C  3709  1  0.42499600  0.84725200  0.18397300  1
  C  3710  1  0.41084800  0.84438500  0.16771600  1
  C  3711  1  0.42331500  0.84719300  0.15102400  1
  C  3712  1  0.45080800  0.85213300  0.15114600  1
  C  3717  1  0.41053200  0.84554900  0.20115300  1
  C  3721  1  0.48109300  0.89861200  0.18600300  1
  C  3725  1  0.40855900  0.84677700  0.13532200  1
  C  3726  1  0.51154300  0.87359000  0.24542600  1
  C  3729  1  0.99646066  0.36650000  0.65647800  1
  C  3730  1  0.98157470  0.34614000  0.65889500  1
  C  3732  1  0.96689270  0.35802700  0.68802200  1
  C  3733  1  0.98163470  0.37889700  0.68650700  1
  C  3734  1  0.99618166  0.38261900  0.67067300  1
  C  3736  1  0.95052870  0.35263600  0.70294900  1
  C  3737  1  0.92309170  0.34654400  0.70184000  1
  C  3738  1  0.90873470  0.34395200  0.71794500  1
  C  3739  1  0.92089070  0.34728400  0.73476900  1
  C  3740  1  0.94829570  0.35255200  0.73494900  1
  C  3745  1  0.90882070  0.34423100  0.68452100  1
  C  3749  1  0.98110270  0.39738200  0.70032200  1
  C  3753  1  0.90596270  0.34685000  0.75029100  1
  C  3754  1  0.00939600  0.37221900  0.64069200  1
  C  3757  1  0.91360770  0.65952600  0.65686400  1
  C  3758  1  0.92795770  0.68017600  0.65940500  1
  C  3760  1  0.94308470  0.66841100  0.68853600  1
  C  3761  1  0.92902270  0.64720800  0.68686900  1
  C  3762  1  0.91447270  0.64328100  0.67096600  1
  C  3764  1  0.95915770  0.67407200  0.70362300  1
  C  3765  1  0.98668570  0.67983100  0.70285100  1
  C  3766  1  0.00077500  0.68261700  0.71914400  1
  C  3767  1  0.98823570  0.67977800  0.73580900  1
  C  3768  1  0.96073070  0.67488500  0.73561600  1
  C  3773  1  0.00123800  0.68156100  0.68570700  1
  C  3777  1  0.93024170  0.62868200  0.70064100  1
  C  3781  1  0.00291600  0.68017800  0.75155200  1
  C  3782  1  0.90042670  0.65379300  0.64109200  1
  C  3785  1  0.91631870  0.66056600  0.23011600  1
  C  3786  1  0.93116270  0.68089400  0.22744800  1
  C  3788  1  0.94603870  0.66830900  0.19855100  1
  C  3789  1  0.93136670  0.64744200  0.20032900  1
  C  3790  1  0.91673470  0.64408400  0.21617200  1
  C  3792  1  0.96244770  0.67336200  0.18359400  1
  C  3793  1  0.98992670  0.67930700  0.18467900  1
  C  3794  1  0.00432400  0.68156900  0.16856600  1
  C  3795  1  0.99216366  0.67805100  0.15176600  1
  C  3796  1  0.96471870  0.67292900  0.15160800  1
  C  3801  1  0.00417000  0.68179600  0.20199300  1
  C  3805  1  0.93206470  0.62862500  0.18678400  1
  C  3809  1  0.00713000  0.67820300  0.13626100  1
  C  3810  1  0.90330070  0.65522700  0.24593900  1
  C  3813  1  0.99930566  0.36822400  0.22993900  1
  C  3814  1  0.98502270  0.34749600  0.22761200  1
  C  3816  1  0.96992870  0.35866700  0.19832700  1
  C  3817  1  0.98393870  0.37992600  0.19977200  1
  C  3818  1  0.99843266  0.38419100  0.21564800  1
  C  3820  1  0.95390370  0.35266800  0.18328900  1
  C  3821  1  0.92644770  0.34666000  0.18410900  1
  C  3822  1  0.91239170  0.34352000  0.16784100  1
  C  3823  1  0.92488170  0.34624200  0.15114900  1
  C  3824  1  0.95232470  0.35138900  0.15129800  1
  C  3829  1  0.91191470  0.34502200  0.20126500  1
  C  3833  1  0.98273370  0.39818400  0.18579000  1
  C  3837  1  0.91020370  0.34551900  0.13541000  1
  C  3838  1  0.01249800  0.37425100  0.24564300  1
  N  21  1  0.95953100  0.92837400  0.85193600  1
  N  22  1  0.96439000  0.86503500  0.81472900  1
  N  23  1  0.90792700  0.85069400  0.91946700  1
  N  24  1  0.85287900  0.82128900  0.87330000  1
  N  45  1  0.05969700  0.10155800  0.85353600  1
  N  46  1  0.05716500  0.16454600  0.81592300  1
  N  47  1  0.11666900  0.17751000  0.92056300  1
  N  48  1  0.17131000  0.20563800  0.87410000  1
  N  69  1  0.96051000  0.09886900  0.63983000  1
  N  70  1  0.96364000  0.16143500  0.67902100  1
  N  71  1  0.91116500  0.17994900  0.57306800  1
  N  72  1  0.85594500  0.20851000  0.61820600  1
  N  93  1  0.05978400  0.92548300  0.63934000  1
  N  94  1  0.05979400  0.86340500  0.67890400  1
  N  95  1  0.11439300  0.84758900  0.57340100  1
  N  96  1  0.16986200  0.81954600  0.61999600  1
  N  117  1  0.06722700  0.09914000  0.14120600  1
  N  118  1  0.06219900  0.16233600  0.17850900  1
  N  119  1  0.11881600  0.17687800  0.07386500  1
  N  120  1  0.17397000  0.20623200  0.12017300  1
  N  141  1  0.96654400  0.92629800  0.13978400  1
  N  142  1  0.96947900  0.86323700  0.17731700  1
  N  143  1  0.90936700  0.85053100  0.07279300  1
  N  144  1  0.85542100  0.82168600  0.11950500  1
  N  165  1  0.06600200  0.92793300  0.35338100  1
  N  166  1  0.06343500  0.86547900  0.31414300  1
  N  167  1  0.11648800  0.84806100  0.42006300  1
  N  168  1  0.17148300  0.81900000  0.37367700  1
  N  189  1  0.96618200  0.10101500  0.35399200  1
  N  190  1  0.96716800  0.16313500  0.31446400  1
  N  191  1  0.91222100  0.17976300  0.41977900  1
  N  192  1  0.85737400  0.20824900  0.37385800  1
  N  213  1  0.46183200  0.42669500  0.85215300  1
  N  214  1  0.46611700  0.36356800  0.81470900  1
  N  215  1  0.40764100  0.34944200  0.91926600  1
  N  216  1  0.35154400  0.32283000  0.87356900  1
  N  237  1  0.56015200  0.60068200  0.85368400  1
  N  238  1  0.55783500  0.66377200  0.81612300  1
  N  239  1  0.61962300  0.67596300  0.92053300  1
  N  240  1  0.67431900  0.70243700  0.87445900  1
  N  261  1  0.46241300  0.59972600  0.63960300  1
  N  262  1  0.46434200  0.66214000  0.67894900  1
  N  263  1  0.40917900  0.67925000  0.57320200  1
  N  264  1  0.35304400  0.70514300  0.61901000  1
  N  285  1  0.56113700  0.42607000  0.63914400  1
  N  286  1  0.56138400  0.36372600  0.67855300  1
  N  287  1  0.61882700  0.34887100  0.57344600  1
  N  288  1  0.67395300  0.32220900  0.61985300  1
  N  309  1  0.56762800  0.59816900  0.14115000  1
  N  310  1  0.56268200  0.66148100  0.17840100  1
  N  311  1  0.62165900  0.67520500  0.07401000  1
  N  312  1  0.67694200  0.70293600  0.11992700  1
  N  333  1  0.46866900  0.42464500  0.13947700  1
  N  334  1  0.47099500  0.36187000  0.17729500  1
  N  335  1  0.40944100  0.34943800  0.07284900  1
  N  336  1  0.35440200  0.32299700  0.11894300  1
  N  357  1  0.56735300  0.42879600  0.35345000  1
  N  358  1  0.56477700  0.36603500  0.31440200  1
  N  359  1  0.62064000  0.34966800  0.41997600  1
  N  360  1  0.67533800  0.32170800  0.37388100  1
  N  381  1  0.46781600  0.60190800  0.35430500  1
  N  382  1  0.46761500  0.66376400  0.31453100  1
  N  383  1  0.41041300  0.67915800  0.41961400  1
  N  384  1  0.35453700  0.70504600  0.37313200  1
  N  387  1  0.92273300  0.84467800  0.97497000  1
  N  397  1  0.90902900  0.86491900  0.01738100  1
  N  415  1  0.10275100  0.18298700  0.97608100  1
  N  425  1  0.11764400  0.16268900  0.01844900  1
  N  443  1  0.92589700  0.18521800  0.51770200  1
  N  453  1  0.91211500  0.16506500  0.47516600  1
  N  471  1  0.10075100  0.84223400  0.51774100  1
  N  481  1  0.11538400  0.86246700  0.47548600  1
  N  499  1  0.42251400  0.34326900  0.97485300  1
  N  509  1  0.40864300  0.36376700  0.01732500  1
  N  527  1  0.60599100  0.68155000  0.97614000  1
  N  537  1  0.62110100  0.66111200  0.01848700  1
  N  555  1  0.42364700  0.68518900  0.51769600  1
  N  565  1  0.40982000  0.66470900  0.47514700  1
  N  583  1  0.60521200  0.34345900  0.51774100  1
  N  593  1  0.62003200  0.36389200  0.47548000  1
  N  611  1  0.00926900  0.04438500  0.86068700  1
  N  621  1  0.00368200  0.99015800  0.87722600  1
  N  639  1  0.00937700  0.98263900  0.63064800  1
  N  649  1  0.00401300  0.03690600  0.61458500  1
  N  667  1  0.01707500  0.98333300  0.13255300  1
  N  677  1  0.02294000  0.03745500  0.11594700  1
  N  695  1  0.01609500  0.04368800  0.36271900  1
  N  705  1  0.02140400  0.98943200  0.37866300  1
  N  723  1  0.51047200  0.54303300  0.86095800  1
  N  733  1  0.50576000  0.48867500  0.87724400  1
  N  751  1  0.51132000  0.48355100  0.63032700  1
  N  761  1  0.50647200  0.53791600  0.61450400  1
  N  779  1  0.51875400  0.48196400  0.13228000  1
  N  789  1  0.52407400  0.53617500  0.11585200  1
  N  807  1  0.51801000  0.54473700  0.36301300  1
  N  817  1  0.52341200  0.49045700  0.37883600  1
  N  835  1  0.78538000  0.78025900  0.85798900  1
  N  845  1  0.75150500  0.72928900  0.86704400  1
  N  863  1  0.23922700  0.24565800  0.85833400  1
  N  873  1  0.27388200  0.29648000  0.86682600  1
  N  891  1  0.78187700  0.24426700  0.64527100  1
  N  901  1  0.75091400  0.29285200  0.62869600  1
  N  919  1  0.23892200  0.78026400  0.63565900  1
  N  929  1  0.27489600  0.73007700  0.62717500  1
  N  947  1  0.24202600  0.24655300  0.13548600  1
  N  957  1  0.27670200  0.29718300  0.12640400  1
  N  975  1  0.78809000  0.78111500  0.13546100  1
  N  985  1  0.75404300  0.73004100  0.12716100  1
  N  1003  1  0.23968900  0.77963700  0.35738100  1
  N  1013  1  0.27595600  0.72928300  0.36521100  1
  N  1031  1  0.78205700  0.24331600  0.34739100  1
  N  1041  1  0.75168400  0.29197900  0.36409200  1
  N  1059  1  0.02430700  0.84291100  0.72784900  1
  N  1069  1  0.01786500  0.85578500  0.77288900  1
  N  1087  1  0.99885900  0.18364000  0.72792200  1
  N  1097  1  0.00479200  0.17255600  0.77314900  1
  N  1115  1  0.00241800  0.18387600  0.26550900  1
  N  1125  1  0.00868900  0.17120100  0.22040000  1
  N  1143  1  0.02805200  0.84353700  0.26519900  1
  N  1153  1  0.02186300  0.85501100  0.22007100  1
  N  1171  1  0.52569800  0.34284200  0.72742800  1
  N  1181  1  0.51955200  0.35510800  0.77269100  1
  N  1199  1  0.49978800  0.68369300  0.72801800  1
  N  1209  1  0.50569800  0.67209400  0.77319000  1
  N  1227  1  0.50308700  0.68384400  0.26544000  1
  N  1237  1  0.50938200  0.67068600  0.22040800  1
  N  1255  1  0.52921000  0.34365900  0.26555600  1
  N  1265  1  0.52328800  0.35451600  0.22023000  1
  N  1301  1  0.68054000  0.92837400  0.82530300  1
  N  1302  1  0.68539900  0.86503500  0.78809600  1
  N  1303  1  0.62893600  0.85069400  0.89283400  1
  N  1304  1  0.57388800  0.82128900  0.84666700  1
  N  1325  1  0.78070600  0.10155800  0.82690300  1
  N  1326  1  0.77817400  0.16454600  0.78929000  1
  N  1327  1  0.83767800  0.17751000  0.89393000  1
  N  1328  1  0.89231900  0.20563800  0.84746700  1
  N  1349  1  0.68151900  0.09886900  0.61319700  1
  N  1350  1  0.68464900  0.16143500  0.65238800  1
  N  1351  1  0.63217400  0.17994900  0.54643500  1
  N  1352  1  0.57695400  0.20851000  0.59157300  1
  N  1373  1  0.78079300  0.92548300  0.61270700  1
  N  1374  1  0.78080300  0.86340500  0.65227100  1
  N  1375  1  0.83540200  0.84758900  0.54676800  1
  N  1376  1  0.89087100  0.81954600  0.59336300  1
  N  1397  1  0.78823600  0.09914000  0.11457300  1
  N  1398  1  0.78320800  0.16233600  0.15187600  1
  N  1399  1  0.83982500  0.17687800  0.04723200  1
  N  1400  1  0.89497900  0.20623200  0.09354000  1
  N  1421  1  0.68755300  0.92629800  0.11315100  1
  N  1422  1  0.69048800  0.86323700  0.15068400  1
  N  1423  1  0.63037600  0.85053100  0.04616000  1
  N  1424  1  0.57643000  0.82168600  0.09287200  1
  N  1445  1  0.78701100  0.92793300  0.32674800  1
  N  1446  1  0.78444400  0.86547900  0.28751000  1
  N  1447  1  0.83749700  0.84806100  0.39343000  1
  N  1448  1  0.89249200  0.81900000  0.34704400  1
  N  1469  1  0.68719100  0.10101500  0.32735900  1
  N  1470  1  0.68817700  0.16313500  0.28783100  1
  N  1471  1  0.63323000  0.17976300  0.39314600  1
  N  1472  1  0.57838300  0.20824900  0.34722500  1
  N  1493  1  0.18284100  0.42669500  0.82552000  1
  N  1494  1  0.18712600  0.36356800  0.78807600  1
  N  1495  1  0.12865000  0.34944200  0.89263300  1
  N  1496  1  0.07255300  0.32283000  0.84693600  1
  N  1517  1  0.28116100  0.60068200  0.82705100  1
  N  1518  1  0.27884400  0.66377200  0.78949000  1
  N  1519  1  0.34063200  0.67596300  0.89390000  1
  N  1520  1  0.39532800  0.70243700  0.84782600  1
  N  1541  1  0.18342200  0.59972600  0.61297000  1
  N  1542  1  0.18535100  0.66214000  0.65231600  1
  N  1543  1  0.13018800  0.67925000  0.54656900  1
  N  1544  1  0.07405300  0.70514300  0.59237700  1
  N  1565  1  0.28214600  0.42607000  0.61251100  1
  N  1566  1  0.28239300  0.36372600  0.65192000  1
  N  1567  1  0.33983600  0.34887100  0.54681300  1
  N  1568  1  0.39496200  0.32220900  0.59322000  1
  N  1589  1  0.28863700  0.59816900  0.11451700  1
  N  1590  1  0.28369100  0.66148100  0.15176800  1
  N  1591  1  0.34266800  0.67520500  0.04737700  1
  N  1592  1  0.39795100  0.70293600  0.09329400  1
  N  1613  1  0.18967800  0.42464500  0.11284400  1
  N  1614  1  0.19200400  0.36187000  0.15066200  1
  N  1615  1  0.13045000  0.34943800  0.04621600  1
  N  1616  1  0.07541100  0.32299700  0.09231000  1
  N  1637  1  0.28836200  0.42879600  0.32681700  1
  N  1638  1  0.28578600  0.36603500  0.28776900  1
  N  1639  1  0.34164900  0.34966800  0.39334300  1
  N  1640  1  0.39634700  0.32170800  0.34724800  1
  N  1661  1  0.18882500  0.60190800  0.32767200  1
  N  1662  1  0.18862400  0.66376400  0.28789800  1
  N  1663  1  0.13142200  0.67915800  0.39298100  1
  N  1664  1  0.07554600  0.70504600  0.34649900  1
  N  1667  1  0.64374200  0.84467800  0.94833700  1
  N  1677  1  0.63003800  0.86491900  0.99074803  1
  N  1695  1  0.82376000  0.18298700  0.94944800  1
  N  1705  1  0.83865300  0.16268900  0.99181603  1
  N  1723  1  0.64690600  0.18521800  0.49106900  1
  N  1733  1  0.63312400  0.16506500  0.44853300  1
  N  1751  1  0.82176000  0.84223400  0.49110800  1
  N  1761  1  0.83639300  0.86246700  0.44885300  1
  N  1779  1  0.14352300  0.34326900  0.94822000  1
  N  1789  1  0.12965200  0.36376700  0.99069203  1
  N  1807  1  0.32700000  0.68155000  0.94950700  1
  N  1817  1  0.34211000  0.66111200  0.99185403  1
  N  1835  1  0.14465600  0.68518900  0.49106300  1
  N  1845  1  0.13082900  0.66470900  0.44851400  1
  N  1863  1  0.32622100  0.34345900  0.49110800  1
  N  1873  1  0.34104100  0.36389200  0.44884700  1
  N  1891  1  0.73027800  0.04438500  0.83405400  1
  N  1901  1  0.72469100  0.99015800  0.85059300  1
  N  1919  1  0.73038600  0.98263900  0.60401500  1
  N  1929  1  0.72502200  0.03690600  0.58795200  1
  N  1947  1  0.73808400  0.98333300  0.10592000  1
  N  1957  1  0.74394900  0.03745500  0.08931400  1
  N  1975  1  0.73710400  0.04368800  0.33608600  1
  N  1985  1  0.74241300  0.98943200  0.35203000  1
  N  2003  1  0.23148100  0.54303300  0.83432500  1
  N  2013  1  0.22676900  0.48867500  0.85061100  1
  N  2031  1  0.23232900  0.48355100  0.60369400  1
  N  2041  1  0.22748100  0.53791600  0.58787100  1
  N  2059  1  0.23976300  0.48196400  0.10564700  1
  N  2069  1  0.24508300  0.53617500  0.08921900  1
  N  2087  1  0.23901900  0.54473700  0.33638000  1
  N  2097  1  0.24442100  0.49045700  0.35220300  1
  N  2115  1  0.50638900  0.78025900  0.83135600  1
  N  2125  1  0.47251400  0.72928900  0.84041100  1
  N  2143  1  0.96023580  0.24565800  0.83170100  1
  N  2153  1  0.99489083  0.29648000  0.84019300  1
  N  2171  1  0.50288600  0.24426700  0.61863800  1
  N  2181  1  0.47192300  0.29285200  0.60206300  1
  N  2199  1  0.95993080  0.78026400  0.60902600  1
  N  2209  1  0.99590483  0.73007700  0.60054200  1
  N  2227  1  0.96303480  0.24655300  0.10885300  1
  N  2237  1  0.99771083  0.29718300  0.09977100  1
  N  2255  1  0.50909900  0.78111500  0.10882800  1
  N  2265  1  0.47505200  0.73004100  0.10052800  1
  N  2283  1  0.96069780  0.77963700  0.33074800  1
  N  2293  1  0.99696483  0.72928300  0.33857800  1
  N  2311  1  0.50306600  0.24331600  0.32075800  1
  N  2321  1  0.47269300  0.29197900  0.33745900  1
  N  2339  1  0.74531600  0.84291100  0.70121600  1
  N  2349  1  0.73887400  0.85578500  0.74625600  1
  N  2367  1  0.71986800  0.18364000  0.70128900  1
  N  2377  1  0.72580100  0.17255600  0.74651600  1
  N  2395  1  0.72342700  0.18387600  0.23887600  1
  N  2405  1  0.72969800  0.17120100  0.19376700  1
  N  2423  1  0.74906100  0.84353700  0.23856600  1
  N  2433  1  0.74287200  0.85501100  0.19343800  1
  N  2451  1  0.24670700  0.34284200  0.70079500  1
  N  2461  1  0.24056100  0.35510800  0.74605800  1
  N  2479  1  0.22079700  0.68369300  0.70138500  1
  N  2489  1  0.22670700  0.67209400  0.74655700  1
  N  2507  1  0.22409600  0.68384400  0.23880700  1
  N  2517  1  0.23039100  0.67068600  0.19377500  1
  N  2535  1  0.25021900  0.34365900  0.23892300  1
  N  2545  1  0.24429700  0.35451600  0.19359700  1
  N  2581  1  0.40154900  0.92837400  0.79867000  1
  N  2582  1  0.40640800  0.86503500  0.76146300  1
  N  2583  1  0.34994500  0.85069400  0.86620100  1
  N  2584  1  0.29489700  0.82128900  0.82003400  1
  N  2605  1  0.50171500  0.10155800  0.80027000  1
  N  2606  1  0.49918300  0.16454600  0.76265700  1
  N  2607  1  0.55868700  0.17751000  0.86729700  1
  N  2608  1  0.61332800  0.20563800  0.82083400  1
  N  2629  1  0.40252800  0.09886900  0.58656400  1
  N  2630  1  0.40565800  0.16143500  0.62575500  1
  N  2631  1  0.35318300  0.17994900  0.51980200  1
  N  2632  1  0.29796300  0.20851000  0.56494000  1
  N  2653  1  0.50180200  0.92548300  0.58607400  1
  N  2654  1  0.50181200  0.86340500  0.62563800  1
  N  2655  1  0.55641100  0.84758900  0.52013500  1
  N  2656  1  0.61188000  0.81954600  0.56673000  1
  N  2677  1  0.50924500  0.09914000  0.08794000  1
  N  2678  1  0.50421700  0.16233600  0.12524300  1
  N  2679  1  0.56083400  0.17687800  0.02059900  1
  N  2680  1  0.61598800  0.20623200  0.06690700  1
  N  2701  1  0.40856200  0.92629800  0.08651800  1
  N  2702  1  0.41149700  0.86323700  0.12405100  1
  N  2703  1  0.35138500  0.85053100  0.01952700  1
  N  2704  1  0.29743900  0.82168600  0.06623900  1
  N  2725  1  0.50802000  0.92793300  0.30011500  1
  N  2726  1  0.50545300  0.86547900  0.26087700  1
  N  2727  1  0.55850600  0.84806100  0.36679700  1
  N  2728  1  0.61350100  0.81900000  0.32041100  1
  N  2749  1  0.40820000  0.10101500  0.30072600  1
  N  2750  1  0.40918600  0.16313500  0.26119800  1
  N  2751  1  0.35423900  0.17976300  0.36651300  1
  N  2752  1  0.29939200  0.20824900  0.32059200  1
  N  2773  1  0.90384970  0.42669500  0.79888700  1
  N  2774  1  0.90813470  0.36356800  0.76144300  1
  N  2775  1  0.84965900  0.34944200  0.86600000  1
  N  2776  1  0.79356200  0.32283000  0.82030300  1
  N  2797  1  0.00217000  0.60068200  0.80041800  1
  N  2798  1  0.99985266  0.66377200  0.76285700  1
  N  2799  1  0.06164100  0.67596300  0.86726700  1
  N  2800  1  0.11633700  0.70243700  0.82119300  1
  N  2821  1  0.90443070  0.59972600  0.58633700  1
  N  2822  1  0.90635970  0.66214000  0.62568300  1
  N  2823  1  0.85119700  0.67925000  0.51993600  1
  N  2824  1  0.79506200  0.70514300  0.56574400  1
  N  2845  1  0.00315500  0.42607000  0.58587800  1
  N  2846  1  0.00340200  0.36372600  0.62528700  1
  N  2847  1  0.06084500  0.34887100  0.52018000  1
  N  2848  1  0.11597100  0.32220900  0.56658700  1
  N  2869  1  0.00964600  0.59816900  0.08788400  1
  N  2870  1  0.00470000  0.66148100  0.12513500  1
  N  2871  1  0.06367700  0.67520500  0.02074400  1
  N  2872  1  0.11896000  0.70293600  0.06666100  1
  N  2893  1  0.91068670  0.42464500  0.08621100  1
  N  2894  1  0.91301270  0.36187000  0.12402900  1
  N  2895  1  0.85145900  0.34943800  0.01958300  1
  N  2896  1  0.79642000  0.32299700  0.06567700  1
  N  2917  1  0.00937100  0.42879600  0.30018400  1
  N  2918  1  0.00679500  0.36603500  0.26113600  1
  N  2919  1  0.06265800  0.34966800  0.36671000  1
  N  2920  1  0.11735600  0.32170800  0.32061500  1
  N  2941  1  0.90983370  0.60190800  0.30103900  1
  N  2942  1  0.90963270  0.66376400  0.26126500  1
  N  2943  1  0.85243100  0.67915800  0.36634800  1
  N  2944  1  0.79655500  0.70504600  0.31986600  1
  N  2947  1  0.36475100  0.84467800  0.92170410  1
  N  2957  1  0.35104700  0.86491900  0.96411510  1
  N  2975  1  0.54476900  0.18298700  0.92281510  1
  N  2985  1  0.55966200  0.16268900  0.96518310  1
  N  3003  1  0.36791500  0.18521800  0.46443600  1
  N  3013  1  0.35413300  0.16506500  0.42190000  1
  N  3031  1  0.54276900  0.84223400  0.46447500  1
  N  3041  1  0.55740200  0.86246700  0.42222000  1
  N  3059  1  0.86453200  0.34326900  0.92158710  1
  N  3069  1  0.85066100  0.36376700  0.96405910  1
  N  3087  1  0.04800900  0.68155000  0.92287410  1
  N  3097  1  0.06311900  0.66111200  0.96522110  1
  N  3115  1  0.86566500  0.68518900  0.46443000  1
  N  3125  1  0.85183800  0.66470900  0.42188100  1
  N  3143  1  0.04723000  0.34345900  0.46447500  1
  N  3153  1  0.06205000  0.36389200  0.42221400  1
  N  3171  1  0.45128700  0.04438500  0.80742100  1
  N  3181  1  0.44570000  0.99015800  0.82396000  1
  N  3199  1  0.45139500  0.98263900  0.57738200  1
  N  3209  1  0.44603100  0.03690600  0.56131900  1
  N  3227  1  0.45909300  0.98333300  0.07928700  1
  N  3237  1  0.46495800  0.03745500  0.06268100  1
  N  3255  1  0.45811300  0.04368800  0.30945300  1
  N  3265  1  0.46342200  0.98943200  0.32539700  1
  N  3283  1  0.95248970  0.54303300  0.80769200  1
  N  3293  1  0.94777770  0.48867500  0.82397800  1
  N  3311  1  0.95333770  0.48355100  0.57706100  1
  N  3321  1  0.94848970  0.53791600  0.56123800  1
  N  3339  1  0.96077170  0.48196400  0.07901400  1
  N  3349  1  0.96609170  0.53617500  0.06258600  1
  N  3367  1  0.96002770  0.54473700  0.30974700  1
  N  3377  1  0.96542970  0.49045700  0.32557000  1
  N  3395  1  0.22739800  0.78025900  0.80472300  1
  N  3405  1  0.19352300  0.72928900  0.81377800  1
  N  3423  1  0.68124500  0.24565800  0.80506800  1
  N  3433  1  0.71590000  0.29648000  0.81356000  1
  N  3451  1  0.22389500  0.24426700  0.59200500  1
  N  3461  1  0.19293200  0.29285200  0.57543000  1
  N  3479  1  0.68094000  0.78026400  0.58239300  1
  N  3489  1  0.71691400  0.73007700  0.57390900  1
  N  3507  1  0.68404400  0.24655300  0.08222000  1
  N  3517  1  0.71872000  0.29718300  0.07313800  1
  N  3535  1  0.23010800  0.78111500  0.08219500  1
  N  3545  1  0.19606100  0.73004100  0.07389500  1
  N  3563  1  0.68170700  0.77963700  0.30411500  1
  N  3573  1  0.71797400  0.72928300  0.31194500  1
  N  3591  1  0.22407500  0.24331600  0.29412500  1
  N  3601  1  0.19370200  0.29197900  0.31082600  1
  N  3619  1  0.46632500  0.84291100  0.67458300  1
  N  3629  1  0.45988300  0.85578500  0.71962300  1
  N  3647  1  0.44087700  0.18364000  0.67465600  1
  N  3657  1  0.44681000  0.17255600  0.71988300  1
  N  3675  1  0.44443600  0.18387600  0.21224300  1
  N  3685  1  0.45070700  0.17120100  0.16713400  1
  N  3703  1  0.47007000  0.84353700  0.21193300  1
  N  3713  1  0.46388100  0.85501100  0.16680500  1
  N  3731  1  0.96771570  0.34284200  0.67416200  1
  N  3741  1  0.96156970  0.35510800  0.71942500  1
  N  3759  1  0.94180570  0.68369300  0.67475200  1
  N  3769  1  0.94771570  0.67209400  0.71992400  1
  N  3787  1  0.94510470  0.68384400  0.21217400  1
  N  3797  1  0.95139970  0.67068600  0.16714200  1
  N  3815  1  0.97122770  0.34365900  0.21229000  1
  N  3825  1  0.96530570  0.35451600  0.16696400  1
  O  17  1  0.94171400  0.87044200  0.89475100  1
  O  18  1  0.93355000  0.83738000  0.83905600  1
  O  41  1  0.08143800  0.15882400  0.89603600  1
  O  42  1  0.08984300  0.19135400  0.83998500  1
  O  65  1  0.94510700  0.15907600  0.59761100  1
  O  66  1  0.93590500  0.18992000  0.65473300  1
  O  89  1  0.07920200  0.86656200  0.59786500  1
  O  90  1  0.08984100  0.83586200  0.65519500  1
  O  113  1  0.08531100  0.15698900  0.09846600  1
  O  114  1  0.09298900  0.19012100  0.15423800  1
  O  137  1  0.94435500  0.86947200  0.09715600  1
  O  138  1  0.93702400  0.83634400  0.15320000  1
  O  161  1  0.08263800  0.86840200  0.39542700  1
  O  162  1  0.09163600  0.83715900  0.33835400  1
  O  185  1  0.94691800  0.15993400  0.39573200  1
  O  186  1  0.93781800  0.19102700  0.33823800  1
  O  209  1  0.44281700  0.36809600  0.89494500  1
  O  210  1  0.43458400  0.33605200  0.83882400  1
  O  233  1  0.58316800  0.65811600  0.89646200  1
  O  234  1  0.59089000  0.69035800  0.84015200  1
  O  257  1  0.44480700  0.66016700  0.59753600  1
  O  258  1  0.43531900  0.69018100  0.65487200  1
  O  281  1  0.58239900  0.36713300  0.59733200  1
  O  282  1  0.59210600  0.33662800  0.65490200  1
  O  305  1  0.58685800  0.65621000  0.09818500  1
  O  306  1  0.59383500  0.68908500  0.15417100  1
  O  329  1  0.44559600  0.36726600  0.09690300  1
  O  330  1  0.43801500  0.33506300  0.15335600  1
  O  353  1  0.58555400  0.36928000  0.39584000  1
  O  354  1  0.59356800  0.33807800  0.33858300  1
  O  377  1  0.44665400  0.66108700  0.39576700  1
  O  378  1  0.43707900  0.69124000  0.33805300  1
  O  1297  1  0.66272300  0.87044200  0.86811800  1
  O  1298  1  0.65455900  0.83738000  0.81242300  1
  O  1321  1  0.80244700  0.15882400  0.86940300  1
  O  1322  1  0.81085200  0.19135400  0.81335200  1
  O  1345  1  0.66611600  0.15907600  0.57097800  1
  O  1346  1  0.65691400  0.18992000  0.62810000  1
  O  1369  1  0.80021100  0.86656200  0.57123200  1
  O  1370  1  0.81085000  0.83586200  0.62856200  1
  O  1393  1  0.80632000  0.15698900  0.07183300  1
  O  1394  1  0.81399800  0.19012100  0.12760500  1
  O  1417  1  0.66536400  0.86947200  0.07052300  1
  O  1418  1  0.65803300  0.83634400  0.12656700  1
  O  1441  1  0.80364700  0.86840200  0.36879400  1
  O  1442  1  0.81264500  0.83715900  0.31172100  1
  O  1465  1  0.66792700  0.15993400  0.36909900  1
  O  1466  1  0.65882700  0.19102700  0.31160500  1
  O  1489  1  0.16382600  0.36809600  0.86831200  1
  O  1490  1  0.15559300  0.33605200  0.81219100  1
  O  1513  1  0.30417700  0.65811600  0.86982900  1
  O  1514  1  0.31189900  0.69035800  0.81351900  1
  O  1537  1  0.16581600  0.66016700  0.57090300  1
  O  1538  1  0.15632800  0.69018100  0.62823900  1
  O  1561  1  0.30340800  0.36713300  0.57069900  1
  O  1562  1  0.31311500  0.33662800  0.62826900  1
  O  1585  1  0.30786700  0.65621000  0.07155200  1
  O  1586  1  0.31484400  0.68908500  0.12753800  1
  O  1609  1  0.16660500  0.36726600  0.07027000  1
  O  1610  1  0.15902400  0.33506300  0.12672300  1
  O  1633  1  0.30656300  0.36928000  0.36920700  1
  O  1634  1  0.31457700  0.33807800  0.31195000  1
  O  1657  1  0.16766300  0.66108700  0.36913400  1
  O  1658  1  0.15808800  0.69124000  0.31142000  1
  O  2577  1  0.38373200  0.87044200  0.84148500  1
  O  2578  1  0.37556800  0.83738000  0.78579000  1
  O  2601  1  0.52345600  0.15882400  0.84277000  1
  O  2602  1  0.53186100  0.19135400  0.78671900  1
  O  2625  1  0.38712500  0.15907600  0.54434500  1
  O  2626  1  0.37792300  0.18992000  0.60146700  1
  O  2649  1  0.52122000  0.86656200  0.54459900  1
  O  2650  1  0.53185900  0.83586200  0.60192900  1
  O  2673  1  0.52732900  0.15698900  0.04520000  1
  O  2674  1  0.53500700  0.19012100  0.10097200  1
  O  2697  1  0.38637300  0.86947200  0.04389000  1
  O  2698  1  0.37904200  0.83634400  0.09993400  1
  O  2721  1  0.52465600  0.86840200  0.34216100  1
  O  2722  1  0.53365400  0.83715900  0.28508800  1
  O  2745  1  0.38893600  0.15993400  0.34246600  1
  O  2746  1  0.37983600  0.19102700  0.28497200  1
  O  2769  1  0.88483500  0.36809600  0.84167900  1
  O  2770  1  0.87660200  0.33605200  0.78555800  1
  O  2793  1  0.02518600  0.65811600  0.84319600  1
  O  2794  1  0.03290800  0.69035800  0.78688600  1
  O  2817  1  0.88682500  0.66016700  0.54427000  1
  O  2818  1  0.87733700  0.69018100  0.60160600  1
  O  2841  1  0.02441700  0.36713300  0.54406600  1
  O  2842  1  0.03412400  0.33662800  0.60163600  1
  O  2865  1  0.02887600  0.65621000  0.04491900  1
  O  2866  1  0.03585300  0.68908500  0.10090500  1
  O  2889  1  0.88761400  0.36726600  0.04363700  1
  O  2890  1  0.88003300  0.33506300  0.10009000  1
  O  2913  1  0.02757200  0.36928000  0.34257400  1
  O  2914  1  0.03558600  0.33807800  0.28531700  1
  O  2937  1  0.88867200  0.66108700  0.34250100  1
  O  2938  1  0.87909700  0.69124000  0.28478700  1
