# generated using pymatgen
data_H19C29N6O
_symmetry_space_group_name_H-M   'P 1'
_cell_length_a   53.47700000
_cell_length_b   61.22310000
_cell_length_c   61.26500000
_cell_angle_alpha   89.98350000
_cell_angle_beta   89.97900000
_cell_angle_gamma   89.95800000
_symmetry_Int_Tables_number   1
_chemical_formula_structural   H19C29N6O
_chemical_formula_sum   'H608 C928 N192 O32'
_cell_volume   200583.23252023
_cell_formula_units_Z   32
loop_
 _symmetry_equiv_pos_site_id
 _symmetry_equiv_pos_as_xyz
  1  'x, y, z'
loop_
 _atom_site_type_symbol
 _atom_site_label
 _atom_site_symmetry_multiplicity
 _atom_site_fract_x
 _atom_site_fract_y
 _atom_site_fract_z
 _atom_site_occupancy
  H  12  1  0.94492900  0.04633200  0.05365300  1
  H  13  1  0.99171700  0.08964900  0.05605600  1
  H  14  1  0.96837200  0.11470000  0.07831800  1
  H  15  1  0.92844700  0.08048500  0.01595100  1
  H  16  1  0.90517500  0.10546700  0.03817100  1
  H  66  1  0.79493500  0.19006400  0.33575000  1
  H  67  1  0.77160700  0.21174200  0.31021000  1
  H  68  1  0.85967000  0.22687100  0.32178000  1
  H  69  1  0.83639000  0.24856100  0.29639500  1
  H  70  1  0.81874300  0.21171300  0.26459900  1
  H  71  1  0.81880900  0.21169700  0.22338300  1
  H  72  1  0.77281700  0.26085600  0.24389100  1
  H  73  1  0.74292200  0.28874300  0.24371300  1
  H  74  1  0.77427000  0.26000400  0.32723300  1
  H  75  1  0.74120400  0.28988000  0.32710700  1
  H  76  1  0.67735500  0.29686600  0.29873700  1
  H  77  1  0.65412900  0.31905500  0.32378500  1
  H  78  1  0.74028700  0.33755300  0.30715800  1
  H  79  1  0.71706600  0.35966000  0.33240300  1
  H  80  1  0.68888200  0.33121000  0.26415900  1
  H  81  1  0.68862900  0.33087900  0.22303000  1
  H  82  1  0.77530600  0.26019900  0.16061200  1
  H  83  1  0.74311100  0.29076300  0.16040400  1
  H  84  1  0.72948400  0.34576000  0.19349300  1
  H  85  1  0.68966000  0.28936100  0.17450600  1
  H  86  1  0.66709300  0.31056500  0.14796500  1
  H  87  1  0.77610300  0.20485000  0.18656000  1
  H  88  1  0.79977600  0.18306300  0.16136900  1
  H  89  1  0.85437200  0.23270500  0.15781100  1
  H  90  1  0.83091700  0.25427200  0.18309000  1
  H  96  1  0.87724300  0.19423200  0.33701200  1
  H  98  1  0.63548500  0.35281500  0.33648400  1
  H  105  1  0.85247000  0.13336000  0.09497300  1
  H  108  1  0.94364400  0.19717700  0.14370500  1
  H  109  1  0.91904100  0.18096800  0.15411200  1
  H  110  1  0.94158300  0.16943300  0.13595000  1
  H  112  1  0.87559400  0.20460300  0.14013000  1
  H  114  1  0.88673200  0.11801700  0.07198100  1
  H  115  1  0.60149500  0.35012600  0.14299100  1
  H  116  1  0.70634900  0.36698200  0.16738900  1
  H  122  1  0.57918000  0.36375400  0.15934200  1
  H  123  1  0.57729000  0.36596700  0.13062600  1
  H  125  1  0.65269600  0.37291800  0.15896200  1
  H  128  1  0.91141000  0.17223800  0.35376700  1
  H  132  1  0.60119400  0.37545000  0.35242400  1
  H  136  1  0.65971000  0.39716300  0.07756300  1
  H  141  1  0.82158200  0.13138700  0.38866000  1
  H  146  1  0.62400200  0.41739500  0.06187500  1
  H  147  1  0.69058900  0.41830600  0.38559800  1
  H  148  1  0.96543300  0.11057100  0.40697000  1
  H  152  1  0.81893000  0.12377600  0.41639600  1
  H  153  1  0.84392800  0.11333500  0.40065900  1
  H  160  1  0.60405300  0.43851600  0.03588400  1
  H  162  1  0.66808800  0.43632200  0.39743000  1
  H  163  1  0.54668800  0.43820100  0.40472600  1
  H  164  1  0.69343700  0.42652400  0.41313900  1
  H  167  1  0.98913700  0.08574400  0.42914100  1
  H  168  1  0.88670400  0.12743800  0.42486000  1
  H  169  1  0.62585300  0.42217300  0.42221300  1
  H  173  1  0.52236900  0.44236400  0.01139000  1
  H  174  1  0.55157400  0.44431500  0.08704100  1
  H  177  1  0.93920500  0.04572900  0.43866200  1
  H  187  1  0.92937600  0.97093900  0.01547800  1
  H  188  1  0.90589900  0.94644300  0.03781000  1
  H  189  1  0.99202200  0.96267700  0.05648200  1
  H  190  1  0.96851600  0.93788200  0.07884600  1
  H  191  1  0.94518700  0.00509400  0.05356700  1
  H  209  1  0.54740800  0.61708100  0.07975300  1
  H  210  1  0.52363300  0.59194400  0.05800500  1
  H  211  1  0.61171600  0.60289300  0.04245000  1
  H  212  1  0.58798200  0.57795300  0.02064300  1
  H  213  1  0.57103900  0.54597500  0.05685900  1
  H  214  1  0.57064600  0.50476700  0.05677400  1
  H  215  1  0.52521700  0.60931000  0.01039500  1
  H  216  1  0.52758800  0.46934300  0.06532100  1
  H  217  1  0.58024800  0.46352300  0.01436500  1
  H  267  1  0.72281800  0.69119200  0.33575500  1
  H  268  1  0.74659100  0.71298200  0.31062600  1
  H  269  1  0.65823700  0.72790900  0.32090600  1
  H  270  1  0.68195200  0.74971900  0.29593500  1
  H  271  1  0.70015600  0.71259200  0.26469400  1
  H  272  1  0.70019000  0.71247300  0.22349600  1
  H  273  1  0.74585200  0.76183400  0.24393000  1
  H  274  1  0.77493200  0.79042400  0.24372500  1
  H  275  1  0.74362700  0.76161700  0.32725500  1
  H  276  1  0.77650300  0.79166000  0.32708200  1
  H  277  1  0.83940500  0.79616600  0.30105100  1
  H  278  1  0.86296600  0.81823100  0.32572900  1
  H  279  1  0.77960700  0.84101500  0.30439000  1
  H  280  1  0.80316700  0.86311700  0.32933900  1
  H  281  1  0.83019900  0.83157100  0.26419600  1
  H  282  1  0.83039300  0.83130400  0.22300100  1
  H  283  1  0.74300800  0.76140300  0.16069000  1
  H  284  1  0.77499000  0.79210400  0.16046300  1
  H  285  1  0.78852300  0.84689900  0.19385200  1
  H  286  1  0.81083500  0.86833100  0.16736500  1
  H  287  1  0.82857000  0.79082500  0.17410400  1
  H  288  1  0.85037800  0.81226800  0.14724500  1
  H  289  1  0.74258000  0.70571200  0.18658900  1
  H  290  1  0.71852100  0.68369900  0.16192700  1
  H  291  1  0.66375900  0.73328800  0.15871500  1
  H  292  1  0.68761200  0.75507800  0.18345000  1
  H  303  1  0.66388800  0.63188400  0.09866200  1
  H  306  1  0.57452400  0.70047600  0.14348000  1
  H  307  1  0.59839800  0.68407800  0.15486500  1
  H  308  1  0.57568200  0.67235900  0.13702400  1
  H  310  1  0.64272400  0.70560800  0.14053200  1
  H  312  1  0.62939600  0.61639600  0.07615400  1
  H  319  1  0.85508100  0.89963900  0.07801900  1
  H  322  1  0.94115500  0.86220700  0.15353700  1
  H  323  1  0.94105400  0.86582700  0.12491500  1
  H  324  1  0.91774500  0.84936900  0.13775700  1
  H  326  1  0.86925700  0.87020600  0.15766800  1
  H  328  1  0.88979700  0.92028500  0.06126200  1
  H  329  1  0.60631700  0.67166200  0.34996700  1
  H  331  1  0.64077900  0.69424100  0.33454300  1
  H  332  1  0.88024100  0.84303000  0.34994500  1
  H  339  1  0.91500700  0.85956100  0.37071200  1
  H  344  1  0.69458500  0.63331100  0.39030000  1
  H  349  1  0.90189500  0.93959100  0.39916500  1
  H  351  1  0.55244200  0.60714800  0.40071800  1
  H  353  1  0.95909400  0.94914200  0.40204400  1
  H  357  1  0.67190600  0.61533100  0.40189400  1
  H  360  1  0.82953100  0.93612800  0.40720600  1
  H  361  1  0.82932900  0.90747400  0.40371900  1
  H  366  1  0.52317300  0.46356800  0.42645800  1
  H  367  1  0.57060100  0.50465600  0.43110000  1
  H  368  1  0.57130600  0.54591100  0.43109200  1
  H  369  1  0.52827400  0.58239200  0.42256100  1
  H  373  1  0.98141400  0.97561300  0.42345400  1
  H  374  1  0.69570000  0.62668400  0.41836300  1
  H  375  1  0.62739600  0.62954900  0.42353300  1
  H  376  1  0.85266300  0.92016300  0.42024500  1
  H  380  1  0.93946100  0.00451200  0.43892100  1
  H  397  1  0.07092000  0.04720300  0.93104800  1
  H  398  1  0.02343500  0.02624100  0.97887500  1
  H  399  1  0.99111100  0.02602100  0.00456800  1
  H  400  1  0.02253500  0.10971200  0.97633900  1
  H  401  1  0.98995900  0.10949100  0.00665600  1
  H  402  1  0.02789800  0.08263800  0.92240300  1
  H  403  1  0.05188000  0.10763800  0.90067000  1
  H  404  1  0.10421500  0.11355400  0.95188100  1
  H  405  1  0.08041500  0.08857200  0.97341300  1
  H  455  1  0.27152600  0.34037000  0.67748200  1
  H  456  1  0.35960200  0.32519500  0.66584500  1
  H  457  1  0.33633700  0.30349500  0.69122200  1
  H  458  1  0.31872200  0.34031800  0.72303900  1
  H  459  1  0.31879700  0.34035200  0.76425200  1
  H  460  1  0.27271200  0.29130600  0.74379700  1
  H  461  1  0.24285600  0.26343600  0.74397300  1
  H  462  1  0.27418000  0.29212800  0.66044000  1
  H  463  1  0.24115800  0.26225700  0.66057800  1
  H  464  1  0.17728000  0.25510300  0.68910100  1
  H  465  1  0.15407200  0.23289600  0.66410000  1
  H  466  1  0.24038600  0.21460600  0.68038200  1
  H  467  1  0.21718300  0.19248300  0.65518400  1
  H  468  1  0.18906500  0.22078500  0.72358000  1
  H  469  1  0.18882700  0.22112700  0.76470800  1
  H  470  1  0.27519700  0.29199000  0.82707700  1
  H  471  1  0.24306000  0.26142000  0.82729600  1
  H  472  1  0.22968200  0.20636500  0.79426700  1
  H  473  1  0.20657300  0.18513300  0.82037200  1
  H  474  1  0.18963100  0.26272300  0.81318100  1
  H  475  1  0.16709200  0.24150900  0.83972400  1
  H  476  1  0.27605500  0.34734800  0.80102700  1
  H  477  1  0.35423700  0.31944400  0.82994700  1
  H  478  1  0.33083400  0.29785000  0.80469200  1
  H  507  1  0.04665400  0.11388200  0.58299500  1
  H  508  1  0.02316100  0.08857000  0.56123400  1
  H  509  1  0.10754100  0.10785100  0.53952700  1
  H  510  1  0.08412800  0.08270100  0.51790500  1
  H  511  1  0.07054800  0.04733500  0.55661400  1
  H  512  1  0.02216400  0.02613100  0.50960200  1
  H  513  1  0.99459300  0.02565100  0.47991700  1
  H  514  1  0.02340300  0.10956900  0.50991200  1
  H  515  1  0.99098200  0.10911300  0.47947600  1
  H  516  1  0.92977800  0.08305800  0.47446000  1
  H  517  1  0.90612700  0.10774200  0.45238700  1
  H  519  1  0.37715100  0.35786100  0.65066300  1
  H  526  1  0.10124500  0.17659900  0.63537300  1
  H  529  1  0.19342500  0.12539500  0.57455100  1
  H  530  1  0.16808300  0.11563000  0.59028400  1
  H  531  1  0.19059600  0.13361100  0.60209600  1
  H  533  1  0.12584600  0.12984400  0.56554600  1
  H  535  1  0.13552500  0.19920100  0.65126700  1
  H  536  1  0.44348600  0.35493300  0.84394600  1
  H  538  1  0.37543800  0.34756700  0.84759300  1
  H  545  1  0.15991100  0.15481700  0.91016900  1
  H  548  1  0.07941900  0.18838600  0.82844200  1
  H  549  1  0.07752400  0.18616900  0.85715700  1
  H  550  1  0.10174000  0.20197100  0.84478300  1
  H  552  1  0.15298500  0.17905900  0.82879200  1
  H  554  1  0.12419400  0.13462600  0.92586700  1
  H  555  1  0.29483900  0.36205500  0.65194600  1
  H  556  1  0.29967500  0.36915900  0.82619400  1
  H  560  1  0.41131200  0.37986500  0.63394700  1
  H  566  1  0.41888100  0.37116800  0.83354800  1
  H  567  1  0.44142400  0.38268300  0.85169200  1
  H  577  1  0.32149600  0.42077900  0.59903700  1
  H  579  1  0.38666600  0.42471100  0.56286200  1
  H  580  1  0.35232400  0.41887800  0.89272100  1
  H  583  1  0.46825600  0.43738900  0.90947300  1
  H  587  1  0.31887800  0.42841000  0.57130600  1
  H  588  1  0.34384200  0.43883000  0.58706300  1
  H  589  1  0.38656300  0.43417200  0.91571200  1
  H  592  1  0.48980900  0.44261900  0.98108100  1
  H  593  1  0.40493700  0.44682900  0.94947700  1
  H  596  1  0.60747500  0.44408400  0.44827800  1
  H  597  1  0.52330000  0.44251700  0.47773100  1
  H  598  1  0.49087300  0.44300100  0.50818100  1
  H  599  1  0.40596400  0.44467300  0.53549000  1
  H  600  1  0.46546200  0.44136900  0.58064700  1
  H  614  1  0.04764300  0.93511800  0.90800100  1
  H  615  1  0.02383500  0.96026900  0.92976100  1
  H  616  1  0.11182600  0.94898500  0.94552800  1
  H  617  1  0.08805900  0.97394200  0.96734400  1
  H  618  1  0.07127400  0.00599200  0.93100200  1
  H  619  1  0.02531100  0.94276400  0.97741500  1
  H  620  1  0.99225400  0.94256100  0.00729300  1
  H  648  1  0.52328300  0.52584900  0.00892000  1
  H  649  1  0.49099700  0.52607800  0.98321300  1
  H  650  1  0.49218800  0.60954600  0.98051600  1
  H  651  1  0.42930300  0.58132100  0.97242400  1
  H  652  1  0.40584600  0.60583700  0.95007900  1
  H  653  1  0.49192600  0.58935100  0.93132000  1
  H  654  1  0.46844100  0.61416800  0.90894700  1
  H  655  1  0.44504800  0.54712100  0.93429400  1
  H  656  1  0.44473900  0.50588700  0.93417800  1
  H  657  1  0.49156900  0.46239200  0.93176100  1
  H  658  1  0.42817900  0.47176200  0.97172400  1
  H  708  1  0.22290400  0.86105800  0.65193300  1
  H  709  1  0.24669700  0.83929200  0.67708000  1
  H  710  1  0.15839500  0.82429900  0.66676500  1
  H  711  1  0.18213100  0.80251100  0.69175300  1
  H  712  1  0.20023400  0.83964400  0.72302500  1
  H  713  1  0.20027100  0.83974300  0.76422400  1
  H  714  1  0.24603500  0.79040600  0.74374300  1
  H  715  1  0.27527800  0.76195500  0.74395200  1
  H  716  1  0.24386400  0.79068500  0.66042000  1
  H  717  1  0.27678100  0.76063600  0.66058500  1
  H  718  1  0.33961600  0.75604100  0.68664100  1
  H  719  1  0.36318500  0.73397100  0.66192800  1
  H  720  1  0.27981000  0.71127200  0.68326700  1
  H  721  1  0.30337900  0.68916600  0.65828900  1
  H  722  1  0.33029700  0.72049200  0.72343200  1
  H  723  1  0.33049200  0.72073000  0.76462700  1
  H  724  1  0.24325600  0.79088900  0.82699900  1
  H  725  1  0.27526100  0.76016600  0.82722000  1
  H  726  1  0.28871100  0.70531500  0.79387900  1
  H  727  1  0.31100500  0.68389300  0.82039300  1
  H  728  1  0.32879400  0.76135600  0.81350200  1
  H  729  1  0.35057400  0.73992700  0.84039600  1
  H  730  1  0.24269700  0.84649200  0.80107900  1
  H  731  1  0.21863100  0.86846900  0.82581300  1
  H  732  1  0.16398000  0.81885000  0.82907700  1
  H  733  1  0.18783200  0.79709800  0.80426800  1
  H  773  1  0.58404400  0.46928500  0.46987300  1
  H  774  1  0.52211300  0.52597300  0.47803000  1
  H  775  1  0.49444500  0.52645100  0.50762000  1
  H  776  1  0.42962800  0.46932600  0.51341900  1
  H  777  1  0.48917700  0.46617100  0.55847800  1
  H  778  1  0.43941900  0.50649300  0.54931600  1
  H  779  1  0.43973700  0.54771300  0.54904100  1
  H  780  1  0.52686600  0.60927000  0.47817000  1
  H  781  1  0.49496800  0.60981600  0.50893400  1
  H  782  1  0.48204100  0.57677500  0.56408500  1
  H  783  1  0.45985600  0.60331000  0.58558100  1
  H  784  1  0.44134200  0.59621800  0.50831300  1
  H  785  1  0.41965600  0.62312900  0.52981500  1
  H  786  1  0.60580100  0.61175200  0.45126800  1
  H  787  1  0.58184300  0.58691000  0.47290500  1
  H  807  1  0.07122400  0.00608100  0.55658600  1
  H  808  1  0.02698700  0.94282900  0.50935100  1
  H  809  1  0.99508500  0.94230700  0.47861600  1
  H  810  1  0.94165300  0.95564900  0.47955700  1
  H  811  1  0.91987500  0.92877800  0.45814600  1
  H  812  1  0.02817500  0.96958000  0.56499900  1
  H  813  1  0.05237700  0.94483100  0.58683900  1
  H  814  1  0.10591000  0.94041400  0.53636900  1
  H  815  1  0.08191600  0.96525000  0.51473600  1
  H  823  1  0.16408300  0.92015200  0.88919200  1
  H  826  1  0.07468700  0.85174800  0.84435000  1
  H  827  1  0.09856700  0.86812500  0.83296800  1
  H  828  1  0.07585400  0.87985700  0.85083900  1
  H  830  1  0.14288400  0.84653200  0.84722800  1
  H  832  1  0.12957500  0.93565500  0.91174100  1
  H  839  1  0.35505200  0.65262700  0.90979000  1
  H  842  1  0.44116400  0.68976400  0.83415800  1
  H  843  1  0.44103700  0.68623200  0.86279100  1
  H  844  1  0.41772400  0.70266200  0.84989600  1
  H  846  1  0.36916800  0.68167900  0.83003800  1
  H  848  1  0.38978900  0.63202900  0.92662200  1
  H  855  1  0.10637500  0.88049100  0.63766000  1
  H  858  1  0.19576100  0.92548500  0.56929100  1
  H  859  1  0.17190900  0.93683100  0.58573800  1
  H  860  1  0.19461700  0.91887600  0.59735900  1
  H  862  1  0.12747400  0.92257700  0.56408800  1
  H  864  1  0.14087600  0.85796400  0.65313100  1
  H  871  1  0.41524200  0.69245300  0.61697500  1
  H  874  1  0.32932300  0.61643600  0.58036400  1
  H  875  1  0.32926300  0.64507800  0.58394600  1
  H  876  1  0.35249800  0.63233100  0.56732100  1
  H  878  1  0.40124400  0.61269000  0.58766300  1
  H  880  1  0.38055300  0.70907100  0.63784300  1
  H  892  1  0.16932500  0.04633200  0.05365300  1
  H  893  1  0.21611300  0.08964900  0.05605600  1
  H  894  1  0.19276800  0.11470000  0.07831800  1
  H  895  1  0.15284300  0.08048500  0.01595100  1
  H  896  1  0.12957100  0.10546700  0.03817100  1
  H  946  1  0.01933050  0.19006400  0.33575000  1
  H  947  1  0.99600300  0.21174200  0.31021000  1
  H  948  1  0.08406550  0.22687100  0.32178000  1
  H  949  1  0.06078550  0.24856100  0.29639500  1
  H  950  1  0.04313850  0.21171300  0.26459900  1
  H  951  1  0.04320450  0.21169700  0.22338300  1
  H  952  1  0.99721300  0.26085600  0.24389100  1
  H  953  1  0.96731800  0.28874300  0.24371300  1
  H  954  1  0.99866600  0.26000400  0.32723300  1
  H  955  1  0.96560000  0.28988000  0.32710700  1
  H  956  1  0.90175100  0.29686600  0.29873700  1
  H  957  1  0.87852500  0.31905500  0.32378500  1
  H  958  1  0.96468300  0.33755300  0.30715800  1
  H  959  1  0.94146200  0.35966000  0.33240300  1
  H  960  1  0.91327800  0.33121000  0.26415900  1
  H  961  1  0.91302500  0.33087900  0.22303000  1
  H  962  1  0.99970200  0.26019900  0.16061200  1
  H  963  1  0.96750700  0.29076300  0.16040400  1
  H  964  1  0.95388000  0.34576000  0.19349300  1
  H  965  1  0.91405600  0.28936100  0.17450600  1
  H  966  1  0.89148900  0.31056500  0.14796500  1
  H  967  1  0.00049854  0.20485000  0.18656000  1
  H  968  1  0.02417150  0.18306300  0.16136900  1
  H  969  1  0.07876750  0.23270500  0.15781100  1
  H  970  1  0.05531250  0.25427200  0.18309000  1
  H  976  1  0.10163900  0.19423200  0.33701200  1
  H  978  1  0.85988100  0.35281500  0.33648400  1
  H  985  1  0.07686550  0.13336000  0.09497300  1
  H  988  1  0.16804000  0.19717700  0.14370500  1
  H  989  1  0.14343700  0.18096800  0.15411200  1
  H  990  1  0.16597900  0.16943300  0.13595000  1
  H  992  1  0.09998950  0.20460300  0.14013000  1
  H  994  1  0.11112800  0.11801700  0.07198100  1
  H  995  1  0.82589100  0.35012600  0.14299100  1
  H  996  1  0.93074500  0.36698200  0.16738900  1
  H  1002  1  0.80357600  0.36375400  0.15934200  1
  H  1003  1  0.80168600  0.36596700  0.13062600  1
  H  1005  1  0.87709200  0.37291800  0.15896200  1
  H  1008  1  0.13580600  0.17223800  0.35376700  1
  H  1012  1  0.82559000  0.37545000  0.35242400  1
  H  1016  1  0.88410600  0.39716300  0.07756300  1
  H  1021  1  0.04597750  0.13138700  0.38866000  1
  H  1026  1  0.84839800  0.41739500  0.06187500  1
  H  1027  1  0.91498500  0.41830600  0.38559800  1
  H  1028  1  0.18982900  0.11057100  0.40697000  1
  H  1032  1  0.04332550  0.12377600  0.41639600  1
  H  1033  1  0.06832350  0.11333500  0.40065900  1
  H  1040  1  0.82844900  0.43851600  0.03588400  1
  H  1042  1  0.89248400  0.43632200  0.39743000  1
  H  1043  1  0.77108400  0.43820100  0.40472600  1
  H  1044  1  0.91783300  0.42652400  0.41313900  1
  H  1047  1  0.21353300  0.08574400  0.42914100  1
  H  1048  1  0.11110000  0.12743800  0.42486000  1
  H  1049  1  0.85024900  0.42217300  0.42221300  1
  H  1053  1  0.74676500  0.44236400  0.01139000  1
  H  1054  1  0.77597000  0.44431500  0.08704100  1
  H  1057  1  0.16360100  0.04572900  0.43866200  1
  H  1067  1  0.15377200  0.97093900  0.01547800  1
  H  1068  1  0.13029500  0.94644300  0.03781000  1
  H  1069  1  0.21641800  0.96267700  0.05648200  1
  H  1070  1  0.19291200  0.93788200  0.07884600  1
  H  1071  1  0.16958300  0.00509400  0.05356700  1
  H  1089  1  0.77180400  0.61708100  0.07975300  1
  H  1090  1  0.74802900  0.59194400  0.05800500  1
  H  1091  1  0.83611200  0.60289300  0.04245000  1
  H  1092  1  0.81237800  0.57795300  0.02064300  1
  H  1093  1  0.79543500  0.54597500  0.05685900  1
  H  1094  1  0.79504200  0.50476700  0.05677400  1
  H  1095  1  0.74961300  0.60931000  0.01039500  1
  H  1096  1  0.75198400  0.46934300  0.06532100  1
  H  1097  1  0.80464400  0.46352300  0.01436500  1
  H  1147  1  0.94721400  0.69119200  0.33575500  1
  H  1148  1  0.97098700  0.71298200  0.31062600  1
  H  1149  1  0.88263300  0.72790900  0.32090600  1
  H  1150  1  0.90634800  0.74971900  0.29593500  1
  H  1151  1  0.92455200  0.71259200  0.26469400  1
  H  1152  1  0.92458600  0.71247300  0.22349600  1
  H  1153  1  0.97024800  0.76183400  0.24393000  1
  H  1154  1  0.99932800  0.79042400  0.24372500  1
  H  1155  1  0.96802300  0.76161700  0.32725500  1
  H  1156  1  0.00089853  0.79166000  0.32708200  1
  H  1157  1  0.06380050  0.79616600  0.30105100  1
  H  1158  1  0.08736150  0.81823100  0.32572900  1
  H  1159  1  0.00400253  0.84101500  0.30439000  1
  H  1160  1  0.02756250  0.86311700  0.32933900  1
  H  1161  1  0.05459450  0.83157100  0.26419600  1
  H  1162  1  0.05478850  0.83130400  0.22300100  1
  H  1163  1  0.96740400  0.76140300  0.16069000  1
  H  1164  1  0.99938600  0.79210400  0.16046300  1
  H  1165  1  0.01291850  0.84689900  0.19385200  1
  H  1166  1  0.03523050  0.86833100  0.16736500  1
  H  1167  1  0.05296550  0.79082500  0.17410400  1
  H  1168  1  0.07477350  0.81226800  0.14724500  1
  H  1169  1  0.96697600  0.70571200  0.18658900  1
  H  1170  1  0.94291700  0.68369900  0.16192700  1
  H  1171  1  0.88815500  0.73328800  0.15871500  1
  H  1172  1  0.91200800  0.75507800  0.18345000  1
  H  1183  1  0.88828400  0.63188400  0.09866200  1
  H  1186  1  0.79892000  0.70047600  0.14348000  1
  H  1187  1  0.82279400  0.68407800  0.15486500  1
  H  1188  1  0.80007800  0.67235900  0.13702400  1
  H  1190  1  0.86712000  0.70560800  0.14053200  1
  H  1192  1  0.85379200  0.61639600  0.07615400  1
  H  1199  1  0.07947650  0.89963900  0.07801900  1
  H  1202  1  0.16555100  0.86220700  0.15353700  1
  H  1203  1  0.16545000  0.86582700  0.12491500  1
  H  1204  1  0.14214100  0.84936900  0.13775700  1
  H  1206  1  0.09365250  0.87020600  0.15766800  1
  H  1208  1  0.11419300  0.92028500  0.06126200  1
  H  1209  1  0.83071300  0.67166200  0.34996700  1
  H  1211  1  0.86517500  0.69424100  0.33454300  1
  H  1212  1  0.10463700  0.84303000  0.34994500  1
  H  1219  1  0.13940300  0.85956100  0.37071200  1
  H  1224  1  0.91898100  0.63331100  0.39030000  1
  H  1229  1  0.12629100  0.93959100  0.39916500  1
  H  1231  1  0.77683800  0.60714800  0.40071800  1
  H  1233  1  0.18349000  0.94914200  0.40204400  1
  H  1237  1  0.89630200  0.61533100  0.40189400  1
  H  1240  1  0.05392650  0.93612800  0.40720600  1
  H  1241  1  0.05372450  0.90747400  0.40371900  1
  H  1246  1  0.74756900  0.46356800  0.42645800  1
  H  1247  1  0.79499700  0.50465600  0.43110000  1
  H  1248  1  0.79570200  0.54591100  0.43109200  1
  H  1249  1  0.75267000  0.58239200  0.42256100  1
  H  1253  1  0.20581000  0.97561300  0.42345400  1
  H  1254  1  0.92009600  0.62668400  0.41836300  1
  H  1255  1  0.85179200  0.62954900  0.42353300  1
  H  1256  1  0.07705850  0.92016300  0.42024500  1
  H  1260  1  0.16385700  0.00451200  0.43892100  1
  H  1277  1  0.29531600  0.04720300  0.93104800  1
  H  1278  1  0.24783100  0.02624100  0.97887500  1
  H  1279  1  0.21550700  0.02602100  0.00456800  1
  H  1280  1  0.24693100  0.10971200  0.97633900  1
  H  1281  1  0.21435500  0.10949100  0.00665600  1
  H  1282  1  0.25229400  0.08263800  0.92240300  1
  H  1283  1  0.27627600  0.10763800  0.90067000  1
  H  1284  1  0.32861100  0.11355400  0.95188100  1
  H  1285  1  0.30481100  0.08857200  0.97341300  1
  H  1335  1  0.49592200  0.34037000  0.67748200  1
  H  1336  1  0.58399800  0.32519500  0.66584500  1
  H  1337  1  0.56073300  0.30349500  0.69122200  1
  H  1338  1  0.54311800  0.34031800  0.72303900  1
  H  1339  1  0.54319300  0.34035200  0.76425200  1
  H  1340  1  0.49710800  0.29130600  0.74379700  1
  H  1341  1  0.46725200  0.26343600  0.74397300  1
  H  1342  1  0.49857600  0.29212800  0.66044000  1
  H  1343  1  0.46555400  0.26225700  0.66057800  1
  H  1344  1  0.40167600  0.25510300  0.68910100  1
  H  1345  1  0.37846800  0.23289600  0.66410000  1
  H  1346  1  0.46478200  0.21460600  0.68038200  1
  H  1347  1  0.44157900  0.19248300  0.65518400  1
  H  1348  1  0.41346100  0.22078500  0.72358000  1
  H  1349  1  0.41322300  0.22112700  0.76470800  1
  H  1350  1  0.49959300  0.29199000  0.82707700  1
  H  1351  1  0.46745600  0.26142000  0.82729600  1
  H  1352  1  0.45407800  0.20636500  0.79426700  1
  H  1353  1  0.43096900  0.18513300  0.82037200  1
  H  1354  1  0.41402700  0.26272300  0.81318100  1
  H  1355  1  0.39148800  0.24150900  0.83972400  1
  H  1356  1  0.50045100  0.34734800  0.80102700  1
  H  1357  1  0.57863300  0.31944400  0.82994700  1
  H  1358  1  0.55523000  0.29785000  0.80469200  1
  H  1387  1  0.27105000  0.11388200  0.58299500  1
  H  1388  1  0.24755700  0.08857000  0.56123400  1
  H  1389  1  0.33193700  0.10785100  0.53952700  1
  H  1390  1  0.30852400  0.08270100  0.51790500  1
  H  1391  1  0.29494400  0.04733500  0.55661400  1
  H  1392  1  0.24656000  0.02613100  0.50960200  1
  H  1393  1  0.21898900  0.02565100  0.47991700  1
  H  1394  1  0.24779900  0.10956900  0.50991200  1
  H  1395  1  0.21537800  0.10911300  0.47947600  1
  H  1396  1  0.15417400  0.08305800  0.47446000  1
  H  1397  1  0.13052300  0.10774200  0.45238700  1
  H  1399  1  0.60154700  0.35786100  0.65066300  1
  H  1406  1  0.32564100  0.17659900  0.63537300  1
  H  1409  1  0.41782100  0.12539500  0.57455100  1
  H  1410  1  0.39247900  0.11563000  0.59028400  1
  H  1411  1  0.41499200  0.13361100  0.60209600  1
  H  1413  1  0.35024200  0.12984400  0.56554600  1
  H  1415  1  0.35992100  0.19920100  0.65126700  1
  H  1416  1  0.66788200  0.35493300  0.84394600  1
  H  1418  1  0.59983400  0.34756700  0.84759300  1
  H  1425  1  0.38430700  0.15481700  0.91016900  1
  H  1428  1  0.30381500  0.18838600  0.82844200  1
  H  1429  1  0.30192000  0.18616900  0.85715700  1
  H  1430  1  0.32613600  0.20197100  0.84478300  1
  H  1432  1  0.37738100  0.17905900  0.82879200  1
  H  1434  1  0.34859000  0.13462600  0.92586700  1
  H  1435  1  0.51923500  0.36205500  0.65194600  1
  H  1436  1  0.52407100  0.36915900  0.82619400  1
  H  1440  1  0.63570800  0.37986500  0.63394700  1
  H  1446  1  0.64327700  0.37116800  0.83354800  1
  H  1447  1  0.66582000  0.38268300  0.85169200  1
  H  1457  1  0.54589200  0.42077900  0.59903700  1
  H  1459  1  0.61106200  0.42471100  0.56286200  1
  H  1460  1  0.57672000  0.41887800  0.89272100  1
  H  1463  1  0.69265200  0.43738900  0.90947300  1
  H  1467  1  0.54327400  0.42841000  0.57130600  1
  H  1468  1  0.56823800  0.43883000  0.58706300  1
  H  1469  1  0.61095900  0.43417200  0.91571200  1
  H  1472  1  0.71420500  0.44261900  0.98108100  1
  H  1473  1  0.62933300  0.44682900  0.94947700  1
  H  1476  1  0.83187100  0.44408400  0.44827800  1
  H  1477  1  0.74769600  0.44251700  0.47773100  1
  H  1478  1  0.71526900  0.44300100  0.50818100  1
  H  1479  1  0.63036000  0.44467300  0.53549000  1
  H  1480  1  0.68985800  0.44136900  0.58064700  1
  H  1494  1  0.27203900  0.93511800  0.90800100  1
  H  1495  1  0.24823100  0.96026900  0.92976100  1
  H  1496  1  0.33622200  0.94898500  0.94552800  1
  H  1497  1  0.31245500  0.97394200  0.96734400  1
  H  1498  1  0.29567000  0.00599200  0.93100200  1
  H  1499  1  0.24970700  0.94276400  0.97741500  1
  H  1500  1  0.21665000  0.94256100  0.00729300  1
  H  1528  1  0.74767900  0.52584900  0.00892000  1
  H  1529  1  0.71539300  0.52607800  0.98321300  1
  H  1530  1  0.71658400  0.60954600  0.98051600  1
  H  1531  1  0.65369900  0.58132100  0.97242400  1
  H  1532  1  0.63024200  0.60583700  0.95007900  1
  H  1533  1  0.71632200  0.58935100  0.93132000  1
  H  1534  1  0.69283700  0.61416800  0.90894700  1
  H  1535  1  0.66944400  0.54712100  0.93429400  1
  H  1536  1  0.66913500  0.50588700  0.93417800  1
  H  1537  1  0.71596500  0.46239200  0.93176100  1
  H  1538  1  0.65257500  0.47176200  0.97172400  1
  H  1588  1  0.44730000  0.86105800  0.65193300  1
  H  1589  1  0.47109300  0.83929200  0.67708000  1
  H  1590  1  0.38279100  0.82429900  0.66676500  1
  H  1591  1  0.40652700  0.80251100  0.69175300  1
  H  1592  1  0.42463000  0.83964400  0.72302500  1
  H  1593  1  0.42466700  0.83974300  0.76422400  1
  H  1594  1  0.47043100  0.79040600  0.74374300  1
  H  1595  1  0.49967400  0.76195500  0.74395200  1
  H  1596  1  0.46826000  0.79068500  0.66042000  1
  H  1597  1  0.50117700  0.76063600  0.66058500  1
  H  1598  1  0.56401200  0.75604100  0.68664100  1
  H  1599  1  0.58758100  0.73397100  0.66192800  1
  H  1600  1  0.50420600  0.71127200  0.68326700  1
  H  1601  1  0.52777500  0.68916600  0.65828900  1
  H  1602  1  0.55469300  0.72049200  0.72343200  1
  H  1603  1  0.55488800  0.72073000  0.76462700  1
  H  1604  1  0.46765200  0.79088900  0.82699900  1
  H  1605  1  0.49965700  0.76016600  0.82722000  1
  H  1606  1  0.51310700  0.70531500  0.79387900  1
  H  1607  1  0.53540100  0.68389300  0.82039300  1
  H  1608  1  0.55319000  0.76135600  0.81350200  1
  H  1609  1  0.57497000  0.73992700  0.84039600  1
  H  1610  1  0.46709300  0.84649200  0.80107900  1
  H  1611  1  0.44302700  0.86846900  0.82581300  1
  H  1612  1  0.38837600  0.81885000  0.82907700  1
  H  1613  1  0.41222800  0.79709800  0.80426800  1
  H  1653  1  0.80844000  0.46928500  0.46987300  1
  H  1654  1  0.74650900  0.52597300  0.47803000  1
  H  1655  1  0.71884100  0.52645100  0.50762000  1
  H  1656  1  0.65402400  0.46932600  0.51341900  1
  H  1657  1  0.71357300  0.46617100  0.55847800  1
  H  1658  1  0.66381500  0.50649300  0.54931600  1
  H  1659  1  0.66413300  0.54771300  0.54904100  1
  H  1660  1  0.75126200  0.60927000  0.47817000  1
  H  1661  1  0.71936400  0.60981600  0.50893400  1
  H  1662  1  0.70643700  0.57677500  0.56408500  1
  H  1663  1  0.68425200  0.60331000  0.58558100  1
  H  1664  1  0.66573800  0.59621800  0.50831300  1
  H  1665  1  0.64405200  0.62312900  0.52981500  1
  H  1666  1  0.83019700  0.61175200  0.45126800  1
  H  1667  1  0.80623900  0.58691000  0.47290500  1
  H  1687  1  0.29562000  0.00608100  0.55658600  1
  H  1688  1  0.25138300  0.94282900  0.50935100  1
  H  1689  1  0.21948100  0.94230700  0.47861600  1
  H  1690  1  0.16604900  0.95564900  0.47955700  1
  H  1691  1  0.14427100  0.92877800  0.45814600  1
  H  1692  1  0.25257100  0.96958000  0.56499900  1
  H  1693  1  0.27677300  0.94483100  0.58683900  1
  H  1694  1  0.33030600  0.94041400  0.53636900  1
  H  1695  1  0.30631200  0.96525000  0.51473600  1
  H  1703  1  0.38847900  0.92015200  0.88919200  1
  H  1706  1  0.29908300  0.85174800  0.84435000  1
  H  1707  1  0.32296300  0.86812500  0.83296800  1
  H  1708  1  0.30025000  0.87985700  0.85083900  1
  H  1710  1  0.36728000  0.84653200  0.84722800  1
  H  1712  1  0.35397100  0.93565500  0.91174100  1
  H  1719  1  0.57944800  0.65262700  0.90979000  1
  H  1722  1  0.66556000  0.68976400  0.83415800  1
  H  1723  1  0.66543300  0.68623200  0.86279100  1
  H  1724  1  0.64212000  0.70266200  0.84989600  1
  H  1726  1  0.59356400  0.68167900  0.83003800  1
  H  1728  1  0.61418500  0.63202900  0.92662200  1
  H  1735  1  0.33077100  0.88049100  0.63766000  1
  H  1738  1  0.42015700  0.92548500  0.56929100  1
  H  1739  1  0.39630500  0.93683100  0.58573800  1
  H  1740  1  0.41901300  0.91887600  0.59735900  1
  H  1742  1  0.35187000  0.92257700  0.56408800  1
  H  1744  1  0.36527200  0.85796400  0.65313100  1
  H  1751  1  0.63963800  0.69245300  0.61697500  1
  H  1754  1  0.55371900  0.61643600  0.58036400  1
  H  1755  1  0.55365900  0.64507800  0.58394600  1
  H  1756  1  0.57689400  0.63233100  0.56732100  1
  H  1758  1  0.62564000  0.61269000  0.58766300  1
  H  1760  1  0.60494900  0.70907100  0.63784300  1
  C  2  1  0.97080900  0.04435800  0.02629700  1
  C  3  1  0.95489900  0.03704500  0.04286400  1
  C  4  1  0.95505600  0.01451300  0.04282900  1
  C  5  1  0.97560400  0.06674300  0.02144600  1
  C  6  1  0.96234400  0.08286100  0.03379400  1
  C  7  1  0.97356700  0.09307900  0.05200500  1
  C  8  1  0.95981700  0.10771600  0.06511000  1
  C  9  1  0.93442900  0.11224800  0.06064000  1
  C  10  1  0.92337200  0.10228500  0.04215600  1
  C  11  1  0.93711400  0.08775800  0.02894600  1
  C  18  1  0.80864400  0.22234200  0.25523800  1
  C  19  1  0.80862300  0.22228500  0.23272100  1
  C  20  1  0.79266500  0.23887300  0.22550400  1
  C  22  1  0.79288200  0.23909700  0.26241400  1
  C  23  1  0.78831700  0.24435300  0.28473300  1
  C  24  1  0.77120900  0.26065000  0.29186200  1
  C  26  1  0.74222100  0.28722100  0.29173700  1
  C  27  1  0.74839700  0.28270100  0.31342500  1
  C  28  1  0.76634100  0.26645000  0.31349600  1
  C  29  1  0.72433300  0.30279900  0.28446600  1
  C  30  1  0.71870000  0.30706500  0.26211600  1
  C  32  1  0.71890000  0.30718000  0.22516500  1
  C  33  1  0.70040500  0.32163100  0.23235900  1
  C  34  1  0.70049600  0.32176800  0.25486800  1
  C  35  1  0.72477000  0.30308200  0.20282100  1
  C  36  1  0.74262300  0.28736300  0.19573400  1
  C  38  1  0.77133200  0.26056200  0.19591600  1
  C  39  1  0.76704800  0.26655700  0.17424400  1
  C  40  1  0.74954400  0.28316500  0.17414700  1
  C  41  1  0.78802900  0.24401900  0.20318600  1
  C  42  1  0.80116800  0.23170000  0.18700400  1
  C  43  1  0.82403200  0.23939900  0.17840300  1
  C  44  1  0.83790700  0.22658500  0.16362500  1
  C  45  1  0.82945500  0.20562000  0.15718400  1
  C  46  1  0.80640700  0.19815300  0.16562300  1
  C  47  1  0.79244100  0.21095700  0.18035900  1
  C  48  1  0.71179800  0.31551200  0.18650200  1
  C  49  1  0.71636700  0.33814600  0.18401500  1
  C  50  1  0.70271000  0.35064000  0.16881300  1
  C  51  1  0.68429900  0.34077700  0.15555000  1
  C  52  1  0.68018700  0.31809800  0.15752600  1
  C  53  1  0.69347600  0.30567600  0.17305400  1
  C  54  1  0.71105600  0.31504600  0.30065900  1
  C  55  1  0.68598000  0.30995000  0.30589700  1
  C  56  1  0.67225800  0.32314100  0.32045600  1
  C  57  1  0.68325500  0.34174300  0.33025800  1
  C  58  1  0.70855800  0.34636100  0.32553900  1
  C  59  1  0.72222700  0.33333333  0.31076300  1
  C  60  1  0.80174500  0.23230500  0.30099100  1
  C  61  1  0.79010300  0.21521300  0.31271400  1
  C  62  1  0.82741500  0.23637000  0.30472100  1
  C  63  1  0.84114900  0.22346400  0.31951700  1
  C  64  1  0.82962900  0.20610300  0.33101200  1
  C  65  1  0.80383800  0.20245100  0.32765800  1
  C  95  1  0.86481000  0.18810000  0.34740700  1
  C  97  1  0.64792000  0.35964000  0.34643100  1
  C  99  1  0.87324700  0.17644700  0.12193300  1
  C  101  1  0.86527400  0.14458600  0.10020100  1
  C  102  1  0.89044400  0.14389900  0.09317000  1
  C  104  1  0.89861000  0.17559900  0.11518600  1
  C  107  1  0.93066600  0.18404400  0.13975400  1
  C  111  1  0.86418500  0.19257000  0.13582900  1
  C  113  1  0.89904900  0.12819000  0.07863700  1
  C  117  1  0.64506900  0.37892400  0.12662500  1
  C  119  1  0.62032500  0.38711600  0.12790600  1
  C  121  1  0.59019600  0.36495200  0.14442200  1
  C  124  1  0.65656100  0.36815400  0.14378700  1
  C  126  1  0.89836300  0.16709000  0.36482500  1
  C  127  1  0.87315200  0.17393200  0.36355400  1
  C  129  1  0.61424400  0.38103400  0.36325100  1
  C  130  1  0.63950400  0.37430400  0.36209200  1
  C  133  1  0.64866500  0.39459600  0.09094100  1
  C  134  1  0.62418900  0.40326300  0.09227300  1
  C  137  1  0.88975700  0.14574500  0.39682500  1
  C  140  1  0.86435900  0.15229400  0.39539500  1
  C  142  1  0.62282700  0.40342200  0.39452100  1
  C  144  1  0.64827400  0.39699000  0.39317600  1
  C  145  1  0.61411000  0.41575800  0.07549800  1
  C  151  1  0.83218500  0.12769000  0.40345700  1
  C  154  1  0.89851400  0.13205000  0.41324400  1
  C  157  1  0.68010100  0.42217700  0.40041600  1
  C  158  1  0.61407800  0.41750400  0.41060600  1
  C  159  1  0.58013000  0.43882700  0.06366200  1
  C  165  1  0.93344900  0.11159800  0.42740400  1
  C  166  1  0.95782000  0.10510300  0.42129700  1
  C  170  1  0.57937100  0.43856800  0.42429600  1
  C  171  1  0.58785500  0.44459400  0.04228800  1
  C  172  1  0.55762700  0.44795900  0.07161100  1
  C  175  1  0.55466700  0.44442600  0.41857400  1
  C  176  1  0.97179600  0.09057400  0.43432800  1
  C  178  1  0.58967500  0.44777500  0.44351700  1
  C  179  1  0.97621700  0.98508600  0.02135500  1
  C  180  1  0.97105800  0.00740800  0.02623200  1
  C  181  1  0.96309000  0.96879700  0.03359700  1
  C  182  1  0.93799100  0.96368700  0.02852400  1
  C  183  1  0.92416500  0.94925000  0.04175400  1
  C  184  1  0.93499700  0.93942600  0.06045100  1
  C  185  1  0.96016900  0.94446000  0.06532200  1
  C  186  1  0.97404400  0.95895300  0.05214900  1
  C  193  1  0.56064000  0.53674800  0.04635300  1
  C  194  1  0.56039100  0.51421800  0.04634100  1
  C  195  1  0.54382500  0.50717500  0.03016900  1
  C  197  1  0.54446800  0.54414000  0.03001100  1
  C  198  1  0.53983800  0.56655600  0.02508900  1
  C  199  1  0.53846600  0.48487300  0.02539800  1
  C  200  1  0.55146200  0.46853100  0.03766600  1
  C  201  1  0.57377800  0.45925900  0.02950400  1
  C  202  1  0.54346000  0.46260200  0.05884500  1
  C  203  1  0.55350000  0.58266500  0.03715300  1
  C  204  1  0.54212500  0.59433200  0.05442400  1
  C  205  1  0.57917900  0.58624300  0.03295400  1
  C  206  1  0.59319000  0.60075600  0.04593800  1
  C  207  1  0.58194200  0.61215200  0.06349700  1
  C  208  1  0.55612800  0.60902500  0.06724400  1
  C  219  1  0.71021400  0.72323700  0.25532700  1
  C  220  1  0.71029500  0.72312300  0.23281200  1
  C  221  1  0.72614500  0.73976200  0.22556900  1
  C  223  1  0.72582500  0.74008500  0.26248300  1
  C  224  1  0.73019500  0.74546900  0.28479900  1
  C  225  1  0.74716300  0.76185900  0.29191500  1
  C  227  1  0.77600700  0.78851300  0.29175400  1
  C  228  1  0.76956300  0.78424500  0.31343200  1
  C  229  1  0.75173000  0.76791400  0.31352600  1
  C  230  1  0.79390700  0.80404500  0.28446400  1
  C  231  1  0.79975200  0.80809700  0.26211800  1
  C  233  1  0.79961200  0.80816800  0.22517700  1
  C  234  1  0.81842900  0.82227600  0.23235700  1
  C  235  1  0.81836000  0.82239100  0.25487600  1
  C  236  1  0.79361900  0.80420500  0.20283800  1
  C  237  1  0.77577000  0.78849800  0.19576600  1
  C  239  1  0.74725300  0.76156400  0.19596300  1
  C  240  1  0.75135000  0.76769500  0.17430300  1
  C  241  1  0.76871100  0.78440000  0.17420000  1
  C  242  1  0.73071300  0.74491900  0.20323800  1
  C  243  1  0.71752600  0.73259900  0.18709300  1
  C  244  1  0.69449600  0.74020400  0.17873300  1
  C  245  1  0.68038500  0.72725200  0.16427000  1
  C  246  1  0.68874900  0.70622400  0.15789700  1
  C  247  1  0.71196500  0.69885100  0.16608300  1
  C  248  1  0.72616200  0.71179100  0.18051400  1
  C  249  1  0.80640200  0.81679300  0.18652300  1
  C  250  1  0.80157500  0.83941000  0.18418700  1
  C  251  1  0.81472100  0.85202400  0.16874500  1
  C  252  1  0.83294000  0.84231600  0.15516500  1
  C  253  1  0.83746600  0.81968500  0.15709800  1
  C  254  1  0.82460000  0.80712900  0.17279100  1
  C  255  1  0.80713100  0.81632500  0.30063500  1
  C  256  1  0.83140500  0.81003900  0.30724100  1
  C  257  1  0.84529100  0.82312700  0.32175400  1
  C  258  1  0.83531100  0.84285200  0.33019100  1
  C  259  1  0.81090100  0.84888500  0.32373000  1
  C  260  1  0.79700000  0.83588500  0.30912400  1
  C  261  1  0.71658000  0.73354200  0.30103300  1
  C  262  1  0.72804800  0.71645100  0.31290200  1
  C  263  1  0.69082500  0.73756400  0.30440700  1
  C  264  1  0.67682800  0.72457500  0.31893500  1
  C  265  1  0.68816600  0.70717200  0.33052000  1
  C  266  1  0.71405200  0.70361700  0.32759900  1
  C  297  1  0.64437100  0.67671600  0.12346900  1
  C  299  1  0.65144000  0.64370900  0.10323300  1
  C  300  1  0.62638400  0.64348500  0.09587800  1
  C  302  1  0.61910000  0.67633600  0.11642800  1
  C  305  1  0.58707000  0.68681400  0.14026500  1
  C  309  1  0.65381100  0.69314900  0.13679800  1
  C  311  1  0.61742500  0.62743000  0.08189400  1
  C  313  1  0.87291400  0.87922600  0.12542500  1
  C  315  1  0.86703200  0.89640000  0.09063000  1
  C  316  1  0.89175100  0.90458900  0.09084700  1
  C  318  1  0.89787300  0.88700900  0.12556100  1
  C  321  1  0.92912600  0.86411700  0.13930800  1
  C  325  1  0.86256000  0.86769500  0.14270700  1
  C  327  1  0.90086500  0.91754000  0.07398800  1
  C  330  1  0.65272100  0.68856400  0.34562200  1
  C  334  1  0.61875400  0.66706600  0.36177400  1
  C  335  1  0.64378000  0.67449500  0.36161300  1
  C  336  1  0.90317600  0.87230900  0.37381100  1
  C  337  1  0.87854300  0.87274900  0.36542900  1
  C  340  1  0.86935000  0.85592800  0.35248300  1
  C  341  1  0.62584400  0.64666600  0.39466300  1
  C  343  1  0.65108100  0.65378600  0.39434900  1
  C  345  1  0.89755100  0.90725400  0.39076000  1
  C  347  1  0.87266600  0.90761000  0.38280600  1
  C  350  1  0.55869900  0.60322100  0.41601400  1
  C  356  1  0.68317500  0.62995300  0.40471800  1
  C  358  1  0.61640600  0.63322500  0.41100500  1
  C  359  1  0.84140900  0.92176600  0.40543300  1
  C  362  1  0.90803400  0.92452700  0.40218600  1
  C  363  1  0.58153700  0.61184100  0.42373800  1
  C  364  1  0.54444000  0.58873800  0.42884900  1
  C  365  1  0.54079200  0.45925400  0.43136300  1
  C  370  1  0.96844900  0.96588100  0.43096300  1
  C  371  1  0.95528800  0.95045400  0.41835800  1
  C  372  1  0.93715300  0.93680600  0.42808200  1
  C  377  1  0.56002800  0.51416600  0.44124000  1
  C  378  1  0.56035500  0.53669800  0.44119200  1
  C  379  1  0.58947800  0.60583200  0.44497800  1
  C  381  1  0.06085200  0.01525000  0.94148100  1
  C  382  1  0.06061400  0.03778000  0.94146300  1
  C  383  1  0.04403400  0.04486800  0.95762200  1
  C  385  1  0.99275500  0.07410100  0.00531300  1
  C  387  1  0.02149200  0.07430000  0.97857700  1
  C  388  1  0.01553200  0.09595300  0.98352600  1
  C  389  1  0.99782100  0.09583100  0.99996400  1
  C  390  1  0.03869500  0.06718400  0.96237500  1
  C  391  1  0.05169500  0.08350400  0.95008900  1
  C  392  1  0.07397600  0.09279900  0.95825500  1
  C  393  1  0.08804100  0.10746400  0.94547200  1
  C  394  1  0.08036000  0.11319000  0.92407700  1
  C  395  1  0.05789500  0.10403400  0.91611900  1
  C  396  1  0.04374400  0.08938900  0.92888400  1
  C  407  1  0.30863200  0.32969700  0.73241000  1
  C  408  1  0.30861700  0.32976400  0.75492800  1
  C  409  1  0.29264400  0.31321500  0.76216800  1
  C  411  1  0.29285100  0.31297400  0.72524900  1
  C  412  1  0.28826400  0.30773000  0.70293300  1
  C  413  1  0.27116700  0.29144000  0.69581500  1
  C  415  1  0.24222200  0.26486000  0.69594900  1
  C  416  1  0.24836100  0.26941400  0.67425900  1
  C  417  1  0.26628300  0.28566300  0.67418300  1
  C  418  1  0.22434900  0.24928200  0.70322100  1
  C  419  1  0.21875800  0.24500900  0.72558300  1
  C  421  1  0.21898600  0.24489500  0.76254200  1
  C  422  1  0.20056100  0.23039500  0.75536600  1
  C  423  1  0.20064000  0.23025500  0.73285600  1
  C  424  1  0.22482800  0.24902700  0.78488600  1
  C  425  1  0.24263500  0.26476500  0.79196100  1
  C  427  1  0.27130200  0.29157800  0.79177100  1
  C  428  1  0.26698800  0.28560400  0.81344300  1
  C  429  1  0.24950900  0.26899700  0.81354900  1
  C  430  1  0.28799100  0.30811200  0.78449800  1
  C  431  1  0.30110400  0.32045400  0.80067300  1
  C  432  1  0.32394500  0.31274700  0.80932800  1
  C  433  1  0.33779200  0.32558000  0.82409100  1
  C  434  1  0.32934200  0.34657600  0.83047700  1
  C  435  1  0.30631900  0.35405200  0.82198100  1
  C  436  1  0.29238200  0.34123400  0.80725200  1
  C  437  1  0.21187600  0.23659500  0.80121400  1
  C  438  1  0.21651900  0.21396900  0.80373000  1
  C  439  1  0.20287400  0.20146600  0.81892700  1
  C  440  1  0.18439600  0.21130900  0.83216600  1
  C  441  1  0.18021700  0.23398300  0.83016900  1
  C  442  1  0.19349800  0.24641400  0.81464700  1
  C  443  1  0.21107600  0.23703000  0.68703300  1
  C  444  1  0.18594500  0.24205200  0.68189500  1
  C  445  1  0.17223600  0.22885100  0.66735400  1
  C  446  1  0.18328200  0.21029300  0.65747600  1
  C  447  1  0.20862800  0.20574500  0.66210300  1
  C  448  1  0.22228600  0.21875600  0.67686100  1
  C  449  1  0.30168000  0.31977700  0.68666500  1
  C  450  1  0.29002400  0.33688600  0.67496200  1
  C  451  1  0.32734900  0.31569000  0.68290200  1
  C  452  1  0.34107800  0.32861000  0.66812000  1
  C  453  1  0.32954900  0.34599700  0.65665300  1
  C  454  1  0.30375300  0.34966000  0.66002700  1
  C  483  1  0.05995700  0.03785200  0.54648400  1
  C  484  1  0.06028200  0.01531900  0.54649900  1
  C  486  1  0.04327700  0.04486200  0.53037400  1
  C  487  1  0.03815400  0.06713900  0.52531100  1
  C  488  1  0.02108800  0.07414600  0.50897100  1
  C  490  1  0.99261800  0.07373500  0.48207600  1
  C  491  1  0.99831800  0.09550700  0.48671500  1
  C  492  1  0.01586600  0.09575900  0.50326800  1
  C  493  1  0.97511200  0.06624400  0.46633000  1
  C  494  1  0.96968100  0.04384900  0.46212100  1
  C  496  1  0.95138600  0.01395200  0.44788800  1
  C  497  1  0.95122300  0.03648200  0.44776000  1
  C  498  1  0.96178500  0.08229400  0.45400400  1
  C  499  1  0.93760600  0.08902600  0.46042500  1
  C  500  1  0.92364300  0.10346500  0.44730500  1
  C  501  1  0.05130700  0.08351300  0.53734600  1
  C  502  1  0.04079800  0.09283900  0.55635100  1
  C  503  1  0.07591000  0.08944400  0.53141200  1
  C  504  1  0.08971900  0.10420900  0.54426100  1
  C  505  1  0.07939000  0.11344800  0.56347100  1
  C  506  1  0.05466000  0.10764400  0.56915500  1
  C  520  1  0.12283500  0.14858400  0.59325300  1
  C  522  1  0.11428800  0.17099600  0.62453100  1
  C  523  1  0.13954700  0.17770400  0.62566100  1
  C  525  1  0.14828300  0.15499200  0.59456800  1
  C  528  1  0.18009800  0.12975900  0.58728800  1
  C  532  1  0.11407500  0.13450400  0.57717000  1
  C  534  1  0.14796900  0.19237200  0.64131400  1
  C  537  1  0.36402800  0.35962900  0.85186000  1
  C  539  1  0.14528400  0.17311300  0.86112800  1
  C  541  1  0.14887100  0.15740600  0.89679600  1
  C  542  1  0.12439800  0.14876100  0.89546700  1
  C  544  1  0.12054400  0.16494400  0.85985000  1
  C  547  1  0.09043300  0.18716600  0.84335400  1
  C  551  1  0.15678100  0.18387300  0.84396100  1
  C  553  1  0.11431600  0.13626100  0.91224000  1
  C  557  1  0.39827800  0.38502600  0.62288600  1
  C  558  1  0.37307300  0.37818800  0.62414000  1
  C  561  1  0.36472400  0.36400500  0.64026900  1
  C  562  1  0.37309000  0.37575700  0.86574900  1
  C  563  1  0.39845400  0.37657600  0.87248700  1
  C  565  1  0.43050900  0.36808400  0.84790000  1
  C  568  1  0.38970100  0.40640200  0.59089700  1
  C  570  1  0.36430700  0.39985800  0.59231000  1
  C  573  1  0.36512900  0.40763600  0.88748700  1
  C  574  1  0.39029700  0.40829500  0.89451100  1
  C  576  1  0.33211700  0.42448100  0.58424900  1
  C  578  1  0.39846300  0.42010500  0.57448800  1
  C  581  1  0.39889700  0.42399900  0.90905000  1
  C  582  1  0.43424900  0.43994000  0.92707000  1
  C  585  1  0.43338500  0.44056600  0.56033700  1
  C  590  1  0.45966700  0.44439800  0.92266300  1
  C  591  1  0.42315400  0.44995500  0.94552600  1
  C  594  1  0.42352800  0.44883100  0.54051100  1
  C  595  1  0.45780700  0.44693300  0.56637700  1
  C  601  1  0.04463900  0.00790400  0.95781600  1
  C  602  1  0.03998400  0.98550800  0.96276800  1
  C  603  1  0.02265300  0.97816700  0.97878400  1
  C  605  1  0.99363000  0.97797900  0.00531400  1
  C  606  1  0.99950200  0.95632500  0.00030300  1
  C  607  1  0.01748600  0.95644300  0.98409500  1
  C  608  1  0.05364200  0.96937800  0.95071900  1
  C  609  1  0.04230500  0.95780600  0.93338300  1
  C  610  1  0.07928900  0.96570900  0.95498900  1
  C  611  1  0.09331800  0.95119000  0.94200300  1
  C  612  1  0.08210800  0.93988300  0.92438600  1
  C  613  1  0.05631800  0.94309100  0.92057500  1
  C  622  1  0.52251500  0.57391300  0.00907400  1
  C  624  1  0.49351000  0.57412800  0.98253900  1
  C  625  1  0.49939500  0.59577700  0.98753600  1
  C  626  1  0.51737100  0.59564000  0.00374100  1
  C  627  1  0.47610800  0.56704400  0.96649700  1
  C  628  1  0.47089300  0.54473700  0.96162900  1
  C  630  1  0.47060500  0.50778300  0.96152800  1
  C  631  1  0.45471000  0.51514400  0.94497400  1
  C  632  1  0.45486500  0.53767600  0.94504900  1
  C  633  1  0.47539900  0.48538200  0.96633200  1
  C  634  1  0.49254700  0.47800500  0.98246300  1
  C  636  1  0.52126000  0.47778000  0.00920500  1
  C  637  1  0.51531700  0.45613300  0.00424500  1
  C  638  1  0.49763500  0.45627200  0.98779400  1
  C  639  1  0.46214100  0.46928600  0.95396500  1
  C  640  1  0.47340200  0.45901200  0.93578500  1
  C  641  1  0.43688200  0.46445600  0.95875400  1
  C  642  1  0.46300500  0.58335800  0.95426200  1
  C  643  1  0.43792100  0.58853900  0.95936100  1
  C  644  1  0.42411000  0.60299100  0.94612600  1
  C  645  1  0.43494800  0.61276200  0.92740600  1
  C  646  1  0.46010300  0.60764800  0.92250300  1
  C  647  1  0.47396500  0.59314700  0.93568400  1
  C  660  1  0.21031100  0.82899300  0.73238300  1
  C  661  1  0.21039500  0.82909900  0.75489600  1
  C  662  1  0.22627100  0.81245300  0.76211900  1
  C  664  1  0.22595700  0.81215600  0.72521000  1
  C  665  1  0.23034600  0.80678600  0.70289100  1
  C  666  1  0.24734600  0.79040500  0.69576200  1
  C  668  1  0.27621600  0.76374600  0.69591800  1
  C  669  1  0.26981200  0.76804400  0.67423700  1
  C  670  1  0.25195500  0.78437600  0.67414800  1
  C  671  1  0.29411400  0.74819600  0.70320900  1
  C  672  1  0.29992200  0.74407400  0.72554200  1
  C  674  1  0.29977400  0.74397400  0.76248400  1
  C  675  1  0.31852600  0.72977800  0.75528400  1
  C  676  1  0.31846100  0.72968300  0.73276400  1
  C  677  1  0.29382900  0.74798600  0.78482800  1
  C  678  1  0.27598100  0.76371200  0.79190800  1
  C  680  1  0.24744300  0.79065800  0.79171600  1
  C  681  1  0.25155300  0.78454300  0.81337800  1
  C  682  1  0.26894800  0.76784600  0.81348200  1
  C  683  1  0.23088100  0.80729800  0.78444000  1
  C  684  1  0.21767900  0.81960900  0.80059000  1
  C  685  1  0.19469000  0.81197100  0.80898600  1
  C  686  1  0.18057300  0.82490400  0.82348200  1
  C  687  1  0.18891100  0.84592600  0.82985800  1
  C  688  1  0.21209100  0.85332600  0.82163700  1
  C  689  1  0.22629900  0.84040500  0.80717900  1
  C  690  1  0.30662000  0.73540100  0.80113800  1
  C  691  1  0.30177100  0.71279800  0.80352100  1
  C  692  1  0.31491000  0.70018800  0.81897600  1
  C  693  1  0.33312700  0.70989300  0.83253100  1
  C  694  1  0.33766500  0.73251300  0.83055900  1
  C  695  1  0.32482000  0.74506200  0.81484300  1
  C  696  1  0.30734400  0.73591900  0.68703000  1
  C  697  1  0.33161800  0.74218500  0.68043300  1
  C  698  1  0.34550600  0.72909700  0.66590200  1
  C  699  1  0.33551500  0.70940100  0.65744600  1
  C  700  1  0.31110400  0.70338600  0.66390500  1
  C  701  1  0.29720100  0.71638900  0.67852300  1
  C  702  1  0.21672000  0.81871800  0.68666800  1
  C  703  1  0.22816700  0.83581100  0.67479700  1
  C  704  1  0.19098100  0.81467700  0.68328700  1
  C  705  1  0.17697300  0.82765100  0.66874800  1
  C  706  1  0.18828100  0.84506200  0.65717200  1
  C  707  1  0.21415200  0.84864400  0.66011000  1
  C  738  1  0.54375000  0.54412500  0.45718700  1
  C  740  1  0.54329800  0.50720100  0.45733100  1
  C  741  1  0.53812300  0.48494000  0.46239900  1
  C  742  1  0.52104300  0.47794700  0.47873500  1
  C  744  1  0.49258000  0.47837900  0.50564900  1
  C  745  1  0.49823300  0.45660100  0.50096400  1
  C  746  1  0.51578900  0.45633600  0.48440600  1
  C  747  1  0.47508300  0.48588800  0.52141500  1
  C  748  1  0.46970900  0.50829500  0.52565100  1
  C  750  1  0.47030500  0.54524500  0.52569800  1
  C  751  1  0.45157600  0.53823900  0.53999800  1
  C  752  1  0.45137000  0.51570800  0.54012700  1
  C  753  1  0.47642000  0.56753800  0.52155500  1
  C  754  1  0.49420200  0.57445300  0.50572000  1
  C  756  1  0.52264800  0.57397100  0.47872500  1
  C  757  1  0.51856900  0.59570800  0.48464300  1
  C  758  1  0.50124000  0.59599100  0.50137300  1
  C  759  1  0.53926600  0.56651300  0.46221300  1
  C  760  1  0.55264200  0.58254500  0.44989000  1
  C  761  1  0.57530200  0.59131700  0.45783200  1
  C  762  1  0.46383200  0.58397200  0.53412600  1
  C  763  1  0.46890100  0.58640900  0.55666900  1
  C  764  1  0.45582800  0.60187200  0.56932000  1
  C  765  1  0.43744800  0.61535900  0.55971500  1
  C  766  1  0.43270600  0.61334800  0.53714600  1
  C  767  1  0.44549500  0.59762900  0.52455600  1
  C  768  1  0.46173400  0.46985800  0.53374000  1
  C  769  1  0.43749100  0.46327200  0.52740200  1
  C  770  1  0.47178500  0.46145900  0.55335000  1
  C  771  1  0.55127900  0.46854800  0.45037700  1
  C  772  1  0.57584600  0.46255000  0.45636400  1
  C  789  1  0.04370700  0.00793500  0.53048000  1
  C  790  1  0.97022400  0.00689800  0.46205400  1
  C  791  1  0.97635000  0.98458400  0.46612400  1
  C  792  1  0.99417800  0.97765900  0.48191900  1
  C  794  1  0.02263700  0.97812500  0.50889100  1
  C  795  1  0.01862400  0.95639400  0.50293100  1
  C  796  1  0.00129700  0.95612400  0.48621100  1
  C  797  1  0.03924200  0.98556100  0.52540700  1
  C  798  1  0.05262000  0.96950700  0.53770700  1
  C  799  1  0.07534100  0.96079400  0.52978500  1
  C  800  1  0.08953500  0.94628000  0.54263700  1
  C  801  1  0.08155200  0.94022300  0.56385300  1
  C  802  1  0.05865500  0.94878400  0.57155400  1
  C  803  1  0.04437200  0.96325700  0.55871600  1
  C  804  1  0.96369900  0.96816400  0.45358100  1
  C  805  1  0.93275300  0.93865000  0.45072100  1
  C  806  1  0.94559400  0.95435900  0.46326100  1
  C  817  1  0.14453900  0.87538500  0.86434700  1
  C  819  1  0.15163300  0.90835200  0.88461600  1
  C  820  1  0.12657800  0.90859500  0.89198300  1
  C  822  1  0.11927100  0.87578600  0.87140300  1
  C  825  1  0.08723700  0.86538800  0.84757400  1
  C  829  1  0.15396800  0.85896900  0.85098700  1
  C  831  1  0.11761900  0.92463800  0.90598400  1
  C  833  1  0.37292300  0.67287800  0.86232700  1
  C  835  1  0.36701200  0.65581700  0.89716900  1
  C  836  1  0.39173300  0.64759700  0.89696800  1
  C  838  1  0.39788400  0.66506600  0.86220600  1
  C  841  1  0.42912100  0.68790200  0.84839200  1
  C  845  1  0.36258100  0.68435900  0.84501200  1
  C  847  1  0.40084000  0.63469100  0.91386300  1
  C  849  1  0.12591700  0.90546700  0.59295900  1
  C  851  1  0.11882100  0.88508700  0.62585800  1
  C  852  1  0.14386500  0.87767900  0.62604100  1
  C  854  1  0.15117300  0.89836700  0.59329400  1
  C  857  1  0.18322100  0.92221600  0.58293100  1
  C  861  1  0.11647200  0.91888900  0.57660600  1
  C  863  1  0.15281500  0.86363100  0.64204600  1
  C  865  1  0.39753400  0.64491600  0.59677700  1
  C  867  1  0.40335100  0.67976900  0.61385200  1
  C  868  1  0.37871800  0.67942300  0.62224100  1
  C  870  1  0.37265200  0.64465600  0.60475700  1
  C  873  1  0.34127200  0.63073300  0.58215500  1
  C  877  1  0.40788600  0.62768400  0.58517300  1
  C  879  1  0.36959500  0.69624700  0.63522600  1
  C  882  1  0.19520500  0.04435800  0.02629700  1
  C  883  1  0.17929500  0.03704500  0.04286400  1
  C  884  1  0.17945200  0.01451300  0.04282900  1
  C  885  1  0.20000000  0.06674300  0.02144600  1
  C  886  1  0.18674000  0.08286100  0.03379400  1
  C  887  1  0.19796300  0.09307900  0.05200500  1
  C  888  1  0.18421300  0.10771600  0.06511000  1
  C  889  1  0.15882500  0.11224800  0.06064000  1
  C  890  1  0.14776800  0.10228500  0.04215600  1
  C  891  1  0.16151000  0.08775800  0.02894600  1
  C  898  1  0.03303950  0.22234200  0.25523800  1
  C  899  1  0.03301850  0.22228500  0.23272100  1
  C  900  1  0.01706050  0.23887300  0.22550400  1
  C  902  1  0.01727750  0.23909700  0.26241400  1
  C  903  1  0.01271250  0.24435300  0.28473300  1
  C  904  1  0.99560500  0.26065000  0.29186200  1
  C  906  1  0.96661700  0.28722100  0.29173700  1
  C  907  1  0.97279300  0.28270100  0.31342500  1
  C  908  1  0.99073700  0.26645000  0.31349600  1
  C  909  1  0.94872900  0.30279900  0.28446600  1
  C  910  1  0.94309600  0.30706500  0.26211600  1
  C  912  1  0.94329600  0.30718000  0.22516500  1
  C  913  1  0.92480100  0.32163100  0.23235900  1
  C  914  1  0.92489200  0.32176800  0.25486800  1
  C  915  1  0.94916600  0.30308200  0.20282100  1
  C  916  1  0.96701900  0.28736300  0.19573400  1
  C  918  1  0.99572800  0.26056200  0.19591600  1
  C  919  1  0.99144400  0.26655700  0.17424400  1
  C  920  1  0.97394000  0.28316500  0.17414700  1
  C  921  1  0.01242450  0.24401900  0.20318600  1
  C  922  1  0.02556350  0.23170000  0.18700400  1
  C  923  1  0.04842750  0.23939900  0.17840300  1
  C  924  1  0.06230250  0.22658500  0.16362500  1
  C  925  1  0.05385050  0.20562000  0.15718400  1
  C  926  1  0.03080250  0.19815300  0.16562300  1
  C  927  1  0.01683650  0.21095700  0.18035900  1
  C  928  1  0.93619400  0.31551200  0.18650200  1
  C  929  1  0.94076300  0.33814600  0.18401500  1
  C  930  1  0.92710600  0.35064000  0.16881300  1
  C  931  1  0.90869500  0.34077700  0.15555000  1
  C  932  1  0.90458300  0.31809800  0.15752600  1
  C  933  1  0.91787200  0.30567600  0.17305400  1
  C  934  1  0.93545200  0.31504600  0.30065900  1
  C  935  1  0.91037600  0.30995000  0.30589700  1
  C  936  1  0.89665400  0.32314100  0.32045600  1
  C  937  1  0.90765100  0.34174300  0.33025800  1
  C  938  1  0.93295400  0.34636100  0.32553900  1
  C  939  1  0.94662300  0.33333333  0.31076300  1
  C  940  1  0.02614050  0.23230500  0.30099100  1
  C  941  1  0.01449850  0.21521300  0.31271400  1
  C  942  1  0.05181050  0.23637000  0.30472100  1
  C  943  1  0.06554450  0.22346400  0.31951700  1
  C  944  1  0.05402450  0.20610300  0.33101200  1
  C  945  1  0.02823350  0.20245100  0.32765800  1
  C  975  1  0.08920550  0.18810000  0.34740700  1
  C  977  1  0.87231600  0.35964000  0.34643100  1
  C  979  1  0.09764250  0.17644700  0.12193300  1
  C  981  1  0.08966950  0.14458600  0.10020100  1
  C  982  1  0.11484000  0.14389900  0.09317000  1
  C  984  1  0.12300600  0.17559900  0.11518600  1
  C  987  1  0.15506200  0.18404400  0.13975400  1
  C  991  1  0.08858050  0.19257000  0.13582900  1
  C  993  1  0.12344500  0.12819000  0.07863700  1
  C  997  1  0.86946500  0.37892400  0.12662500  1
  C  999  1  0.84472100  0.38711600  0.12790600  1
  C  1001  1  0.81459200  0.36495200  0.14442200  1
  C  1004  1  0.88095700  0.36815400  0.14378700  1
  C  1006  1  0.12275900  0.16709000  0.36482500  1
  C  1007  1  0.09754750  0.17393200  0.36355400  1
  C  1009  1  0.83864000  0.38103400  0.36325100  1
  C  1010  1  0.86390000  0.37430400  0.36209200  1
  C  1013  1  0.87306100  0.39459600  0.09094100  1
  C  1014  1  0.84858500  0.40326300  0.09227300  1
  C  1017  1  0.11415300  0.14574500  0.39682500  1
  C  1020  1  0.08875450  0.15229400  0.39539500  1
  C  1022  1  0.84722300  0.40342200  0.39452100  1
  C  1024  1  0.87267000  0.39699000  0.39317600  1
  C  1025  1  0.83850600  0.41575800  0.07549800  1
  C  1031  1  0.05658050  0.12769000  0.40345700  1
  C  1034  1  0.12291000  0.13205000  0.41324400  1
  C  1037  1  0.90449700  0.42217700  0.40041600  1
  C  1038  1  0.83847400  0.41750400  0.41060600  1
  C  1039  1  0.80452600  0.43882700  0.06366200  1
  C  1045  1  0.15784500  0.11159800  0.42740400  1
  C  1046  1  0.18221600  0.10510300  0.42129700  1
  C  1050  1  0.80376700  0.43856800  0.42429600  1
  C  1051  1  0.81225100  0.44459400  0.04228800  1
  C  1052  1  0.78202300  0.44795900  0.07161100  1
  C  1055  1  0.77906300  0.44442600  0.41857400  1
  C  1056  1  0.19619200  0.09057400  0.43432800  1
  C  1058  1  0.81407100  0.44777500  0.44351700  1
  C  1059  1  0.20061300  0.98508600  0.02135500  1
  C  1060  1  0.19545400  0.00740800  0.02623200  1
  C  1061  1  0.18748600  0.96879700  0.03359700  1
  C  1062  1  0.16238700  0.96368700  0.02852400  1
  C  1063  1  0.14856100  0.94925000  0.04175400  1
  C  1064  1  0.15939300  0.93942600  0.06045100  1
  C  1065  1  0.18456500  0.94446000  0.06532200  1
  C  1066  1  0.19844000  0.95895300  0.05214900  1
  C  1073  1  0.78503600  0.53674800  0.04635300  1
  C  1074  1  0.78478700  0.51421800  0.04634100  1
  C  1075  1  0.76822100  0.50717500  0.03016900  1
  C  1077  1  0.76886400  0.54414000  0.03001100  1
  C  1078  1  0.76423400  0.56655600  0.02508900  1
  C  1079  1  0.76286200  0.48487300  0.02539800  1
  C  1080  1  0.77585800  0.46853100  0.03766600  1
  C  1081  1  0.79817400  0.45925900  0.02950400  1
  C  1082  1  0.76785600  0.46260200  0.05884500  1
  C  1083  1  0.77789600  0.58266500  0.03715300  1
  C  1084  1  0.76652100  0.59433200  0.05442400  1
  C  1085  1  0.80357500  0.58624300  0.03295400  1
  C  1086  1  0.81758600  0.60075600  0.04593800  1
  C  1087  1  0.80633800  0.61215200  0.06349700  1
  C  1088  1  0.78052400  0.60902500  0.06724400  1
  C  1099  1  0.93461000  0.72323700  0.25532700  1
  C  1100  1  0.93469100  0.72312300  0.23281200  1
  C  1101  1  0.95054100  0.73976200  0.22556900  1
  C  1103  1  0.95022100  0.74008500  0.26248300  1
  C  1104  1  0.95459100  0.74546900  0.28479900  1
  C  1105  1  0.97155900  0.76185900  0.29191500  1
  C  1107  1  0.00040254  0.78851300  0.29175400  1
  C  1108  1  0.99395900  0.78424500  0.31343200  1
  C  1109  1  0.97612600  0.76791400  0.31352600  1
  C  1110  1  0.01830250  0.80404500  0.28446400  1
  C  1111  1  0.02414750  0.80809700  0.26211800  1
  C  1113  1  0.02400750  0.80816800  0.22517700  1
  C  1114  1  0.04282450  0.82227600  0.23235700  1
  C  1115  1  0.04275550  0.82239100  0.25487600  1
  C  1116  1  0.01801450  0.80420500  0.20283800  1
  C  1117  1  0.00016553  0.78849800  0.19576600  1
  C  1119  1  0.97164900  0.76156400  0.19596300  1
  C  1120  1  0.97574600  0.76769500  0.17430300  1
  C  1121  1  0.99310700  0.78440000  0.17420000  1
  C  1122  1  0.95510900  0.74491900  0.20323800  1
  C  1123  1  0.94192200  0.73259900  0.18709300  1
  C  1124  1  0.91889200  0.74020400  0.17873300  1
  C  1125  1  0.90478100  0.72725200  0.16427000  1
  C  1126  1  0.91314500  0.70622400  0.15789700  1
  C  1127  1  0.93636100  0.69885100  0.16608300  1
  C  1128  1  0.95055800  0.71179100  0.18051400  1
  C  1129  1  0.03079750  0.81679300  0.18652300  1
  C  1130  1  0.02597050  0.83941000  0.18418700  1
  C  1131  1  0.03911650  0.85202400  0.16874500  1
  C  1132  1  0.05733550  0.84231600  0.15516500  1
  C  1133  1  0.06186150  0.81968500  0.15709800  1
  C  1134  1  0.04899550  0.80712900  0.17279100  1
  C  1135  1  0.03152650  0.81632500  0.30063500  1
  C  1136  1  0.05580050  0.81003900  0.30724100  1
  C  1137  1  0.06968650  0.82312700  0.32175400  1
  C  1138  1  0.05970650  0.84285200  0.33019100  1
  C  1139  1  0.03529650  0.84888500  0.32373000  1
  C  1140  1  0.02139550  0.83588500  0.30912400  1
  C  1141  1  0.94097600  0.73354200  0.30103300  1
  C  1142  1  0.95244400  0.71645100  0.31290200  1
  C  1143  1  0.91522100  0.73756400  0.30440700  1
  C  1144  1  0.90122400  0.72457500  0.31893500  1
  C  1145  1  0.91256200  0.70717200  0.33052000  1
  C  1146  1  0.93844800  0.70361700  0.32759900  1
  C  1177  1  0.86876700  0.67671600  0.12346900  1
  C  1179  1  0.87583600  0.64370900  0.10323300  1
  C  1180  1  0.85078000  0.64348500  0.09587800  1
  C  1182  1  0.84349600  0.67633600  0.11642800  1
  C  1185  1  0.81146600  0.68681400  0.14026500  1
  C  1189  1  0.87820700  0.69314900  0.13679800  1
  C  1191  1  0.84182100  0.62743000  0.08189400  1
  C  1193  1  0.09730950  0.87922600  0.12542500  1
  C  1195  1  0.09142750  0.89640000  0.09063000  1
  C  1196  1  0.11614700  0.90458900  0.09084700  1
  C  1198  1  0.12226900  0.88700900  0.12556100  1
  C  1201  1  0.15352200  0.86411700  0.13930800  1
  C  1205  1  0.08695550  0.86769500  0.14270700  1
  C  1207  1  0.12526100  0.91754000  0.07398800  1
  C  1210  1  0.87711700  0.68856400  0.34562200  1
  C  1214  1  0.84315000  0.66706600  0.36177400  1
  C  1215  1  0.86817600  0.67449500  0.36161300  1
  C  1216  1  0.12757200  0.87230900  0.37381100  1
  C  1217  1  0.10293900  0.87274900  0.36542900  1
  C  1220  1  0.09374550  0.85592800  0.35248300  1
  C  1221  1  0.85024000  0.64666600  0.39466300  1
  C  1223  1  0.87547700  0.65378600  0.39434900  1
  C  1225  1  0.12194700  0.90725400  0.39076000  1
  C  1227  1  0.09706150  0.90761000  0.38280600  1
  C  1230  1  0.78309500  0.60322100  0.41601400  1
  C  1236  1  0.90757100  0.62995300  0.40471800  1
  C  1238  1  0.84080200  0.63322500  0.41100500  1
  C  1239  1  0.06580450  0.92176600  0.40543300  1
  C  1242  1  0.13243000  0.92452700  0.40218600  1
  C  1243  1  0.80593300  0.61184100  0.42373800  1
  C  1244  1  0.76883600  0.58873800  0.42884900  1
  C  1245  1  0.76518800  0.45925400  0.43136300  1
  C  1250  1  0.19284500  0.96588100  0.43096300  1
  C  1251  1  0.17968400  0.95045400  0.41835800  1
  C  1252  1  0.16154900  0.93680600  0.42808200  1
  C  1257  1  0.78442400  0.51416600  0.44124000  1
  C  1258  1  0.78475100  0.53669800  0.44119200  1
  C  1259  1  0.81387400  0.60583200  0.44497800  1
  C  1261  1  0.28524800  0.01525000  0.94148100  1
  C  1262  1  0.28501000  0.03778000  0.94146300  1
  C  1263  1  0.26843000  0.04486800  0.95762200  1
  C  1265  1  0.21715100  0.07410100  0.00531300  1
  C  1267  1  0.24588800  0.07430000  0.97857700  1
  C  1268  1  0.23992800  0.09595300  0.98352600  1
  C  1269  1  0.22221700  0.09583100  0.99996400  1
  C  1270  1  0.26309100  0.06718400  0.96237500  1
  C  1271  1  0.27609100  0.08350400  0.95008900  1
  C  1272  1  0.29837200  0.09279900  0.95825500  1
  C  1273  1  0.31243700  0.10746400  0.94547200  1
  C  1274  1  0.30475600  0.11319000  0.92407700  1
  C  1275  1  0.28229100  0.10403400  0.91611900  1
  C  1276  1  0.26814000  0.08938900  0.92888400  1
  C  1287  1  0.53302800  0.32969700  0.73241000  1
  C  1288  1  0.53301300  0.32976400  0.75492800  1
  C  1289  1  0.51704000  0.31321500  0.76216800  1
  C  1291  1  0.51724700  0.31297400  0.72524900  1
  C  1292  1  0.51266000  0.30773000  0.70293300  1
  C  1293  1  0.49556300  0.29144000  0.69581500  1
  C  1295  1  0.46661800  0.26486000  0.69594900  1
  C  1296  1  0.47275700  0.26941400  0.67425900  1
  C  1297  1  0.49067900  0.28566300  0.67418300  1
  C  1298  1  0.44874500  0.24928200  0.70322100  1
  C  1299  1  0.44315400  0.24500900  0.72558300  1
  C  1301  1  0.44338200  0.24489500  0.76254200  1
  C  1302  1  0.42495700  0.23039500  0.75536600  1
  C  1303  1  0.42503600  0.23025500  0.73285600  1
  C  1304  1  0.44922400  0.24902700  0.78488600  1
  C  1305  1  0.46703100  0.26476500  0.79196100  1
  C  1307  1  0.49569800  0.29157800  0.79177100  1
  C  1308  1  0.49138400  0.28560400  0.81344300  1
  C  1309  1  0.47390500  0.26899700  0.81354900  1
  C  1310  1  0.51238700  0.30811200  0.78449800  1
  C  1311  1  0.52550000  0.32045400  0.80067300  1
  C  1312  1  0.54834100  0.31274700  0.80932800  1
  C  1313  1  0.56218800  0.32558000  0.82409100  1
  C  1314  1  0.55373800  0.34657600  0.83047700  1
  C  1315  1  0.53071500  0.35405200  0.82198100  1
  C  1316  1  0.51677800  0.34123400  0.80725200  1
  C  1317  1  0.43627200  0.23659500  0.80121400  1
  C  1318  1  0.44091500  0.21396900  0.80373000  1
  C  1319  1  0.42727000  0.20146600  0.81892700  1
  C  1320  1  0.40879200  0.21130900  0.83216600  1
  C  1321  1  0.40461300  0.23398300  0.83016900  1
  C  1322  1  0.41789400  0.24641400  0.81464700  1
  C  1323  1  0.43547200  0.23703000  0.68703300  1
  C  1324  1  0.41034100  0.24205200  0.68189500  1
  C  1325  1  0.39663200  0.22885100  0.66735400  1
  C  1326  1  0.40767800  0.21029300  0.65747600  1
  C  1327  1  0.43302400  0.20574500  0.66210300  1
  C  1328  1  0.44668200  0.21875600  0.67686100  1
  C  1329  1  0.52607600  0.31977700  0.68666500  1
  C  1330  1  0.51442000  0.33688600  0.67496200  1
  C  1331  1  0.55174500  0.31569000  0.68290200  1
  C  1332  1  0.56547400  0.32861000  0.66812000  1
  C  1333  1  0.55394500  0.34599700  0.65665300  1
  C  1334  1  0.52814900  0.34966000  0.66002700  1
  C  1363  1  0.28435300  0.03785200  0.54648400  1
  C  1364  1  0.28467800  0.01531900  0.54649900  1
  C  1366  1  0.26767300  0.04486200  0.53037400  1
  C  1367  1  0.26255000  0.06713900  0.52531100  1
  C  1368  1  0.24548400  0.07414600  0.50897100  1
  C  1370  1  0.21701400  0.07373500  0.48207600  1
  C  1371  1  0.22271400  0.09550700  0.48671500  1
  C  1372  1  0.24026200  0.09575900  0.50326800  1
  C  1373  1  0.19950800  0.06624400  0.46633000  1
  C  1374  1  0.19407700  0.04384900  0.46212100  1
  C  1376  1  0.17578200  0.01395200  0.44788800  1
  C  1377  1  0.17561900  0.03648200  0.44776000  1
  C  1378  1  0.18618100  0.08229400  0.45400400  1
  C  1379  1  0.16200200  0.08902600  0.46042500  1
  C  1380  1  0.14803900  0.10346500  0.44730500  1
  C  1381  1  0.27570300  0.08351300  0.53734600  1
  C  1382  1  0.26519400  0.09283900  0.55635100  1
  C  1383  1  0.30030600  0.08944400  0.53141200  1
  C  1384  1  0.31411500  0.10420900  0.54426100  1
  C  1385  1  0.30378600  0.11344800  0.56347100  1
  C  1386  1  0.27905600  0.10764400  0.56915500  1
  C  1400  1  0.34723100  0.14858400  0.59325300  1
  C  1402  1  0.33868400  0.17099600  0.62453100  1
  C  1403  1  0.36394300  0.17770400  0.62566100  1
  C  1405  1  0.37267900  0.15499200  0.59456800  1
  C  1408  1  0.40449400  0.12975900  0.58728800  1
  C  1412  1  0.33847100  0.13450400  0.57717000  1
  C  1414  1  0.37236500  0.19237200  0.64131400  1
  C  1417  1  0.58842400  0.35962900  0.85186000  1
  C  1419  1  0.36968000  0.17311300  0.86112800  1
  C  1421  1  0.37326700  0.15740600  0.89679600  1
  C  1422  1  0.34879400  0.14876100  0.89546700  1
  C  1424  1  0.34494000  0.16494400  0.85985000  1
  C  1427  1  0.31482900  0.18716600  0.84335400  1
  C  1431  1  0.38117700  0.18387300  0.84396100  1
  C  1433  1  0.33871200  0.13626100  0.91224000  1
  C  1437  1  0.62267400  0.38502600  0.62288600  1
  C  1438  1  0.59746900  0.37818800  0.62414000  1
  C  1441  1  0.58912000  0.36400500  0.64026900  1
  C  1442  1  0.59748600  0.37575700  0.86574900  1
  C  1443  1  0.62285000  0.37657600  0.87248700  1
  C  1445  1  0.65490500  0.36808400  0.84790000  1
  C  1448  1  0.61409700  0.40640200  0.59089700  1
  C  1450  1  0.58870300  0.39985800  0.59231000  1
  C  1453  1  0.58952500  0.40763600  0.88748700  1
  C  1454  1  0.61469300  0.40829500  0.89451100  1
  C  1456  1  0.55651300  0.42448100  0.58424900  1
  C  1458  1  0.62285900  0.42010500  0.57448800  1
  C  1461  1  0.62329300  0.42399900  0.90905000  1
  C  1462  1  0.65864500  0.43994000  0.92707000  1
  C  1465  1  0.65778100  0.44056600  0.56033700  1
  C  1470  1  0.68406300  0.44439800  0.92266300  1
  C  1471  1  0.64755000  0.44995500  0.94552600  1
  C  1474  1  0.64792400  0.44883100  0.54051100  1
  C  1475  1  0.68220300  0.44693300  0.56637700  1
  C  1481  1  0.26903500  0.00790400  0.95781600  1
  C  1482  1  0.26438000  0.98550800  0.96276800  1
  C  1483  1  0.24704900  0.97816700  0.97878400  1
  C  1485  1  0.21802600  0.97797900  0.00531400  1
  C  1486  1  0.22389800  0.95632500  0.00030300  1
  C  1487  1  0.24188200  0.95644300  0.98409500  1
  C  1488  1  0.27803800  0.96937800  0.95071900  1
  C  1489  1  0.26670100  0.95780600  0.93338300  1
  C  1490  1  0.30368500  0.96570900  0.95498900  1
  C  1491  1  0.31771400  0.95119000  0.94200300  1
  C  1492  1  0.30650400  0.93988300  0.92438600  1
  C  1493  1  0.28071400  0.94309100  0.92057500  1
  C  1502  1  0.74691100  0.57391300  0.00907400  1
  C  1504  1  0.71790600  0.57412800  0.98253900  1
  C  1505  1  0.72379100  0.59577700  0.98753600  1
  C  1506  1  0.74176700  0.59564000  0.00374100  1
  C  1507  1  0.70050400  0.56704400  0.96649700  1
  C  1508  1  0.69528900  0.54473700  0.96162900  1
  C  1510  1  0.69500100  0.50778300  0.96152800  1
  C  1511  1  0.67910600  0.51514400  0.94497400  1
  C  1512  1  0.67926100  0.53767600  0.94504900  1
  C  1513  1  0.69979500  0.48538200  0.96633200  1
  C  1514  1  0.71694300  0.47800500  0.98246300  1
  C  1516  1  0.74565600  0.47778000  0.00920500  1
  C  1517  1  0.73971300  0.45613300  0.00424500  1
  C  1518  1  0.72203100  0.45627200  0.98779400  1
  C  1519  1  0.68653700  0.46928600  0.95396500  1
  C  1520  1  0.69779800  0.45901200  0.93578500  1
  C  1521  1  0.66127800  0.46445600  0.95875400  1
  C  1522  1  0.68740100  0.58335800  0.95426200  1
  C  1523  1  0.66231700  0.58853900  0.95936100  1
  C  1524  1  0.64850600  0.60299100  0.94612600  1
  C  1525  1  0.65934400  0.61276200  0.92740600  1
  C  1526  1  0.68449900  0.60764800  0.92250300  1
  C  1527  1  0.69836100  0.59314700  0.93568400  1
  C  1540  1  0.43470700  0.82899300  0.73238300  1
  C  1541  1  0.43479100  0.82909900  0.75489600  1
  C  1542  1  0.45066700  0.81245300  0.76211900  1
  C  1544  1  0.45035300  0.81215600  0.72521000  1
  C  1545  1  0.45474200  0.80678600  0.70289100  1
  C  1546  1  0.47174200  0.79040500  0.69576200  1
  C  1548  1  0.50061200  0.76374600  0.69591800  1
  C  1549  1  0.49420800  0.76804400  0.67423700  1
  C  1550  1  0.47635100  0.78437600  0.67414800  1
  C  1551  1  0.51851000  0.74819600  0.70320900  1
  C  1552  1  0.52431800  0.74407400  0.72554200  1
  C  1554  1  0.52417000  0.74397400  0.76248400  1
  C  1555  1  0.54292200  0.72977800  0.75528400  1
  C  1556  1  0.54285700  0.72968300  0.73276400  1
  C  1557  1  0.51822500  0.74798600  0.78482800  1
  C  1558  1  0.50037700  0.76371200  0.79190800  1
  C  1560  1  0.47183900  0.79065800  0.79171600  1
  C  1561  1  0.47594900  0.78454300  0.81337800  1
  C  1562  1  0.49334400  0.76784600  0.81348200  1
  C  1563  1  0.45527700  0.80729800  0.78444000  1
  C  1564  1  0.44207500  0.81960900  0.80059000  1
  C  1565  1  0.41908600  0.81197100  0.80898600  1
  C  1566  1  0.40496900  0.82490400  0.82348200  1
  C  1567  1  0.41330700  0.84592600  0.82985800  1
  C  1568  1  0.43648700  0.85332600  0.82163700  1
  C  1569  1  0.45069500  0.84040500  0.80717900  1
  C  1570  1  0.53101600  0.73540100  0.80113800  1
  C  1571  1  0.52616700  0.71279800  0.80352100  1
  C  1572  1  0.53930600  0.70018800  0.81897600  1
  C  1573  1  0.55752300  0.70989300  0.83253100  1
  C  1574  1  0.56206100  0.73251300  0.83055900  1
  C  1575  1  0.54921600  0.74506200  0.81484300  1
  C  1576  1  0.53174000  0.73591900  0.68703000  1
  C  1577  1  0.55601400  0.74218500  0.68043300  1
  C  1578  1  0.56990200  0.72909700  0.66590200  1
  C  1579  1  0.55991100  0.70940100  0.65744600  1
  C  1580  1  0.53550000  0.70338600  0.66390500  1
  C  1581  1  0.52159700  0.71638900  0.67852300  1
  C  1582  1  0.44111600  0.81871800  0.68666800  1
  C  1583  1  0.45256300  0.83581100  0.67479700  1
  C  1584  1  0.41537700  0.81467700  0.68328700  1
  C  1585  1  0.40136900  0.82765100  0.66874800  1
  C  1586  1  0.41267700  0.84506200  0.65717200  1
  C  1587  1  0.43854800  0.84864400  0.66011000  1
  C  1618  1  0.76814600  0.54412500  0.45718700  1
  C  1620  1  0.76769400  0.50720100  0.45733100  1
  C  1621  1  0.76251900  0.48494000  0.46239900  1
  C  1622  1  0.74543900  0.47794700  0.47873500  1
  C  1624  1  0.71697600  0.47837900  0.50564900  1
  C  1625  1  0.72262900  0.45660100  0.50096400  1
  C  1626  1  0.74018500  0.45633600  0.48440600  1
  C  1627  1  0.69947900  0.48588800  0.52141500  1
  C  1628  1  0.69410500  0.50829500  0.52565100  1
  C  1630  1  0.69470100  0.54524500  0.52569800  1
  C  1631  1  0.67597200  0.53823900  0.53999800  1
  C  1632  1  0.67576600  0.51570800  0.54012700  1
  C  1633  1  0.70081600  0.56753800  0.52155500  1
  C  1634  1  0.71859800  0.57445300  0.50572000  1
  C  1636  1  0.74704400  0.57397100  0.47872500  1
  C  1637  1  0.74296500  0.59570800  0.48464300  1
  C  1638  1  0.72563600  0.59599100  0.50137300  1
  C  1639  1  0.76366200  0.56651300  0.46221300  1
  C  1640  1  0.77703800  0.58254500  0.44989000  1
  C  1641  1  0.79969800  0.59131700  0.45783200  1
  C  1642  1  0.68822800  0.58397200  0.53412600  1
  C  1643  1  0.69329700  0.58640900  0.55666900  1
  C  1644  1  0.68022400  0.60187200  0.56932000  1
  C  1645  1  0.66184400  0.61535900  0.55971500  1
  C  1646  1  0.65710200  0.61334800  0.53714600  1
  C  1647  1  0.66989100  0.59762900  0.52455600  1
  C  1648  1  0.68613000  0.46985800  0.53374000  1
  C  1649  1  0.66188700  0.46327200  0.52740200  1
  C  1650  1  0.69618100  0.46145900  0.55335000  1
  C  1651  1  0.77567500  0.46854800  0.45037700  1
  C  1652  1  0.80024200  0.46255000  0.45636400  1
  C  1669  1  0.26810300  0.00793500  0.53048000  1
  C  1670  1  0.19462000  0.00689800  0.46205400  1
  C  1671  1  0.20074600  0.98458400  0.46612400  1
  C  1672  1  0.21857400  0.97765900  0.48191900  1
  C  1674  1  0.24703300  0.97812500  0.50889100  1
  C  1675  1  0.24302000  0.95639400  0.50293100  1
  C  1676  1  0.22569300  0.95612400  0.48621100  1
  C  1677  1  0.26363800  0.98556100  0.52540700  1
  C  1678  1  0.27701600  0.96950700  0.53770700  1
  C  1679  1  0.29973700  0.96079400  0.52978500  1
  C  1680  1  0.31393100  0.94628000  0.54263700  1
  C  1681  1  0.30594800  0.94022300  0.56385300  1
  C  1682  1  0.28305100  0.94878400  0.57155400  1
  C  1683  1  0.26876800  0.96325700  0.55871600  1
  C  1684  1  0.18809500  0.96816400  0.45358100  1
  C  1685  1  0.15714900  0.93865000  0.45072100  1
  C  1686  1  0.16999000  0.95435900  0.46326100  1
  C  1697  1  0.36893500  0.87538500  0.86434700  1
  C  1699  1  0.37602900  0.90835200  0.88461600  1
  C  1700  1  0.35097400  0.90859500  0.89198300  1
  C  1702  1  0.34366700  0.87578600  0.87140300  1
  C  1705  1  0.31163300  0.86538800  0.84757400  1
  C  1709  1  0.37836400  0.85896900  0.85098700  1
  C  1711  1  0.34201500  0.92463800  0.90598400  1
  C  1713  1  0.59731900  0.67287800  0.86232700  1
  C  1715  1  0.59140800  0.65581700  0.89716900  1
  C  1716  1  0.61612900  0.64759700  0.89696800  1
  C  1718  1  0.62228000  0.66506600  0.86220600  1
  C  1721  1  0.65351700  0.68790200  0.84839200  1
  C  1725  1  0.58697700  0.68435900  0.84501200  1
  C  1727  1  0.62523600  0.63469100  0.91386300  1
  C  1729  1  0.35031300  0.90546700  0.59295900  1
  C  1731  1  0.34321700  0.88508700  0.62585800  1
  C  1732  1  0.36826100  0.87767900  0.62604100  1
  C  1734  1  0.37556900  0.89836700  0.59329400  1
  C  1737  1  0.40761700  0.92221600  0.58293100  1
  C  1741  1  0.34086800  0.91888900  0.57660600  1
  C  1743  1  0.37721100  0.86363100  0.64204600  1
  C  1745  1  0.62193000  0.64491600  0.59677700  1
  C  1747  1  0.62774700  0.67976900  0.61385200  1
  C  1748  1  0.60311400  0.67942300  0.62224100  1
  C  1750  1  0.59704800  0.64465600  0.60475700  1
  C  1753  1  0.56566800  0.63073300  0.58215500  1
  C  1757  1  0.63228200  0.62768400  0.58517300  1
  C  1759  1  0.59399100  0.69624700  0.63522600  1
  N  1  1  0.97996600  0.02594400  0.01686300  1
  N  17  1  0.92240700  0.12603700  0.07392300  1
  N  21  1  0.78371900  0.24838300  0.24394000  1
  N  25  1  0.75630200  0.27353800  0.27948700  1
  N  31  1  0.72911400  0.29878500  0.24366200  1
  N  37  1  0.75623600  0.27343700  0.20812200  1
  N  91  1  0.67179800  0.35218200  0.14059200  1
  N  92  1  0.67127800  0.35505100  0.34403800  1
  N  93  1  0.84155000  0.19312000  0.34515400  1
  N  94  1  0.84183200  0.19226300  0.14367300  1
  N  100  1  0.85778100  0.16064000  0.11405100  1
  N  103  1  0.90590800  0.15968000  0.10104900  1
  N  118  1  0.65810200  0.38309400  0.10801400  1
  N  131  1  0.65531400  0.38266700  0.37734600  1
  N  135  1  0.61115500  0.39901900  0.11090600  1
  N  138  1  0.90556000  0.15351400  0.38120900  1
  N  139  1  0.85734900  0.16615600  0.37913700  1
  N  143  1  0.60700700  0.39507300  0.37923200  1
  N  149  1  0.92113900  0.12482900  0.41373200  1
  N  156  1  0.59154100  0.42495500  0.41087900  1
  N  161  1  0.59298300  0.42576100  0.07716400  1
  N  192  1  0.92276200  0.92631500  0.07434200  1
  N  196  1  0.53488100  0.52574700  0.02087900  1
  N  218  1  0.59418700  0.62606800  0.07649200  1
  N  222  1  0.73497500  0.74935700  0.24399400  1
  N  226  1  0.76216800  0.77464400  0.27953100  1
  N  232  1  0.78921100  0.79994400  0.24367300  1
  N  238  1  0.76236400  0.77442400  0.20815100  1
  N  293  1  0.84461600  0.85396900  0.13991900  1
  N  294  1  0.84764400  0.85659000  0.34337200  1
  N  295  1  0.67592100  0.69410300  0.34436900  1
  N  296  1  0.67608200  0.69265900  0.14480300  1
  N  298  1  0.65933300  0.66011200  0.11648200  1
  N  301  1  0.61142000  0.66005500  0.10287900  1
  N  314  1  0.85866000  0.88435600  0.10775100  1
  N  317  1  0.90602000  0.89942400  0.10852600  1
  N  333  1  0.61088600  0.65370000  0.37809600  1
  N  338  1  0.86443400  0.89059900  0.37041400  1
  N  342  1  0.65874000  0.66744900  0.37814800  1
  N  346  1  0.91164700  0.88941000  0.38582200  1
  N  352  1  0.59423000  0.62504800  0.41031100  1
  N  354  1  0.92538000  0.92159600  0.41646100  1
  N  384  1  0.03505500  0.02632200  0.96692500  1
  N  386  1  0.00737100  0.06187100  0.99205300  1
  N  406  1  0.09320800  0.12625500  0.91057200  1
  N  410  1  0.28370400  0.30370300  0.74373900  1
  N  414  1  0.25629400  0.27853500  0.70819200  1
  N  420  1  0.22916000  0.25329600  0.74403100  1
  N  426  1  0.25625400  0.27867600  0.77957100  1
  N  479  1  0.17191500  0.19990200  0.84713600  1
  N  480  1  0.17131800  0.19697500  0.64370000  1
  N  481  1  0.34146700  0.35899000  0.64252100  1
  N  482  1  0.34169300  0.35994800  0.84398300  1
  N  485  1  0.03402000  0.02629100  0.52136700  1
  N  489  1  0.00668100  0.06160500  0.49585600  1
  N  495  1  0.98043400  0.02547500  0.47026400  1
  N  518  1  0.09154700  0.12705200  0.57689900  1
  N  521  1  0.10703400  0.15695900  0.60856300  1
  N  524  1  0.15534000  0.16931400  0.61038700  1
  N  540  1  0.15831100  0.16891300  0.87973000  1
  N  543  1  0.11137100  0.15303500  0.87684300  1
  N  559  1  0.35728700  0.38598400  0.60855200  1
  N  569  1  0.40548500  0.39861300  0.60651700  1
  N  572  1  0.35762900  0.39158800  0.87364100  1
  N  575  1  0.40575400  0.39249000  0.88662000  1
  N  584  1  0.42224700  0.42615500  0.91377600  1
  N  586  1  0.42107700  0.42733000  0.57400800  1
  N  604  1  0.00794500  0.99039700  0.99197800  1
  N  621  1  0.09437500  0.92599000  0.91137800  1
  N  623  1  0.50780400  0.56169800  0.99589000  1
  N  629  1  0.47976900  0.52617500  0.97098100  1
  N  635  1  0.50714000  0.49022100  0.99573500  1
  N  659  1  0.42271500  0.62585000  0.91349300  1
  N  663  1  0.23512600  0.80287400  0.74368600  1
  N  667  1  0.26234100  0.77760400  0.70814500  1
  N  673  1  0.28936800  0.75220800  0.74399800  1
  N  679  1  0.26254100  0.77777100  0.77952200  1
  N  734  1  0.34479000  0.69826000  0.84779900  1
  N  735  1  0.34784300  0.69565900  0.64426000  1
  N  736  1  0.17602800  0.85810800  0.64330300  1
  N  737  1  0.17624200  0.85946600  0.84298200  1
  N  739  1  0.53403900  0.52579400  0.46631500  1
  N  743  1  0.50665800  0.49049900  0.49188000  1
  N  749  1  0.48044600  0.52664200  0.51745200  1
  N  755  1  0.50759400  0.56191400  0.49176800  1
  N  788  1  0.42578500  0.63056800  0.57141700  1
  N  793  1  0.00753500  0.99018700  0.49588800  1
  N  816  1  0.09426800  0.92703600  0.57728500  1
  N  818  1  0.15951300  0.89195500  0.87134000  1
  N  821  1  0.11160300  0.89206000  0.88497600  1
  N  834  1  0.35865200  0.66781800  0.88001300  1
  N  837  1  0.40601800  0.65269300  0.87927700  1
  N  850  1  0.11094800  0.89843300  0.60952200  1
  N  853  1  0.15883800  0.88472200  0.60951100  1
  N  866  1  0.41171900  0.66267400  0.60176400  1
  N  869  1  0.36451600  0.66166400  0.61721500  1
  N  881  1  0.20436200  0.02594400  0.01686300  1
  N  897  1  0.14680300  0.12603700  0.07392300  1
  N  901  1  0.00811453  0.24838300  0.24394000  1
  N  905  1  0.98069800  0.27353800  0.27948700  1
  N  911  1  0.95351000  0.29878500  0.24366200  1
  N  917  1  0.98063200  0.27343700  0.20812200  1
  N  971  1  0.89619400  0.35218200  0.14059200  1
  N  972  1  0.89567400  0.35505100  0.34403800  1
  N  973  1  0.06594550  0.19312000  0.34515400  1
  N  974  1  0.06622750  0.19226300  0.14367300  1
  N  980  1  0.08217650  0.16064000  0.11405100  1
  N  983  1  0.13030400  0.15968000  0.10104900  1
  N  998  1  0.88249800  0.38309400  0.10801400  1
  N  1011  1  0.87971000  0.38266700  0.37734600  1
  N  1015  1  0.83555100  0.39901900  0.11090600  1
  N  1018  1  0.12995600  0.15351400  0.38120900  1
  N  1019  1  0.08174450  0.16615600  0.37913700  1
  N  1023  1  0.83140300  0.39507300  0.37923200  1
  N  1029  1  0.14553500  0.12482900  0.41373200  1
  N  1036  1  0.81593700  0.42495500  0.41087900  1
  N  1041  1  0.81737900  0.42576100  0.07716400  1
  N  1072  1  0.14715800  0.92631500  0.07434200  1
  N  1076  1  0.75927700  0.52574700  0.02087900  1
  N  1098  1  0.81858300  0.62606800  0.07649200  1
  N  1102  1  0.95937100  0.74935700  0.24399400  1
  N  1106  1  0.98656400  0.77464400  0.27953100  1
  N  1112  1  0.01360650  0.79994400  0.24367300  1
  N  1118  1  0.98676000  0.77442400  0.20815100  1
  N  1173  1  0.06901150  0.85396900  0.13991900  1
  N  1174  1  0.07203950  0.85659000  0.34337200  1
  N  1175  1  0.90031700  0.69410300  0.34436900  1
  N  1176  1  0.90047800  0.69265900  0.14480300  1
  N  1178  1  0.88372900  0.66011200  0.11648200  1
  N  1181  1  0.83581600  0.66005500  0.10287900  1
  N  1194  1  0.08305550  0.88435600  0.10775100  1
  N  1197  1  0.13041600  0.89942400  0.10852600  1
  N  1213  1  0.83528200  0.65370000  0.37809600  1
  N  1218  1  0.08882950  0.89059900  0.37041400  1
  N  1222  1  0.88313600  0.66744900  0.37814800  1
  N  1226  1  0.13604300  0.88941000  0.38582200  1
  N  1232  1  0.81862600  0.62504800  0.41031100  1
  N  1234  1  0.14977600  0.92159600  0.41646100  1
  N  1264  1  0.25945100  0.02632200  0.96692500  1
  N  1266  1  0.23176700  0.06187100  0.99205300  1
  N  1286  1  0.31760400  0.12625500  0.91057200  1
  N  1290  1  0.50810000  0.30370300  0.74373900  1
  N  1294  1  0.48069000  0.27853500  0.70819200  1
  N  1300  1  0.45355600  0.25329600  0.74403100  1
  N  1306  1  0.48065000  0.27867600  0.77957100  1
  N  1359  1  0.39631100  0.19990200  0.84713600  1
  N  1360  1  0.39571400  0.19697500  0.64370000  1
  N  1361  1  0.56586300  0.35899000  0.64252100  1
  N  1362  1  0.56608900  0.35994800  0.84398300  1
  N  1365  1  0.25841600  0.02629100  0.52136700  1
  N  1369  1  0.23107700  0.06160500  0.49585600  1
  N  1375  1  0.20483000  0.02547500  0.47026400  1
  N  1398  1  0.31594300  0.12705200  0.57689900  1
  N  1401  1  0.33143000  0.15695900  0.60856300  1
  N  1404  1  0.37973600  0.16931400  0.61038700  1
  N  1420  1  0.38270700  0.16891300  0.87973000  1
  N  1423  1  0.33576700  0.15303500  0.87684300  1
  N  1439  1  0.58168300  0.38598400  0.60855200  1
  N  1449  1  0.62988100  0.39861300  0.60651700  1
  N  1452  1  0.58202500  0.39158800  0.87364100  1
  N  1455  1  0.63015000  0.39249000  0.88662000  1
  N  1464  1  0.64664300  0.42615500  0.91377600  1
  N  1466  1  0.64547300  0.42733000  0.57400800  1
  N  1484  1  0.23234100  0.99039700  0.99197800  1
  N  1501  1  0.31877100  0.92599000  0.91137800  1
  N  1503  1  0.73220000  0.56169800  0.99589000  1
  N  1509  1  0.70416500  0.52617500  0.97098100  1
  N  1515  1  0.73153600  0.49022100  0.99573500  1
  N  1539  1  0.64711100  0.62585000  0.91349300  1
  N  1543  1  0.45952200  0.80287400  0.74368600  1
  N  1547  1  0.48673700  0.77760400  0.70814500  1
  N  1553  1  0.51376400  0.75220800  0.74399800  1
  N  1559  1  0.48693700  0.77777100  0.77952200  1
  N  1614  1  0.56918600  0.69826000  0.84779900  1
  N  1615  1  0.57223900  0.69565900  0.64426000  1
  N  1616  1  0.40042400  0.85810800  0.64330300  1
  N  1617  1  0.40063800  0.85946600  0.84298200  1
  N  1619  1  0.75843500  0.52579400  0.46631500  1
  N  1623  1  0.73105400  0.49049900  0.49188000  1
  N  1629  1  0.70484200  0.52664200  0.51745200  1
  N  1635  1  0.73199000  0.56191400  0.49176800  1
  N  1668  1  0.65018100  0.63056800  0.57141700  1
  N  1673  1  0.23193100  0.99018700  0.49588800  1
  N  1696  1  0.31866400  0.92703600  0.57728500  1
  N  1698  1  0.38390900  0.89195500  0.87134000  1
  N  1701  1  0.33599900  0.89206000  0.88497600  1
  N  1714  1  0.58304800  0.66781800  0.88001300  1
  N  1717  1  0.63041400  0.65269300  0.87927700  1
  N  1730  1  0.33534400  0.89843300  0.60952200  1
  N  1733  1  0.38323400  0.88472200  0.60951100  1
  N  1746  1  0.63611500  0.66267400  0.60176400  1
  N  1749  1  0.58891200  0.66166400  0.61721500  1
  O  106  1  0.91586600  0.19087200  0.12139100  1
  O  120  1  0.60559400  0.38414400  0.14591900  1
  O  150  1  0.84676300  0.14614300  0.41040000  1
  O  155  1  0.66591100  0.40369200  0.40789000  1
  O  304  1  0.60233400  0.69236300  0.12175700  1
  O  320  1  0.91386100  0.88318900  0.14256400  1
  O  348  1  0.85685100  0.92479800  0.38645000  1
  O  355  1  0.66783000  0.64840000  0.41035100  1
  O  527  1  0.16591000  0.14826700  0.57983300  1
  O  546  1  0.10581800  0.16794600  0.84184400  1
  O  564  1  0.41571000  0.36128200  0.86627600  1
  O  571  1  0.34672500  0.40602700  0.57730100  1
  O  824  1  0.10250000  0.85979100  0.86606400  1
  O  840  1  0.41388100  0.66882800  0.84519300  1
  O  856  1  0.16793300  0.90375200  0.57730100  1
  O  872  1  0.35674400  0.62756200  0.60108900  1
  O  986  1  0.14026200  0.19087200  0.12139100  1
  O  1000  1  0.82999000  0.38414400  0.14591900  1
  O  1030  1  0.07115850  0.14614300  0.41040000  1
  O  1035  1  0.89030700  0.40369200  0.40789000  1
  O  1184  1  0.82673000  0.69236300  0.12175700  1
  O  1200  1  0.13825700  0.88318900  0.14256400  1
  O  1228  1  0.08124650  0.92479800  0.38645000  1
  O  1235  1  0.89222600  0.64840000  0.41035100  1
  O  1407  1  0.39030600  0.14826700  0.57983300  1
  O  1426  1  0.33021400  0.16794600  0.84184400  1
  O  1444  1  0.64010600  0.36128200  0.86627600  1
  O  1451  1  0.57112100  0.40602700  0.57730100  1
  O  1704  1  0.32689600  0.85979100  0.86606400  1
  O  1720  1  0.63827700  0.66882800  0.84519300  1
  O  1736  1  0.39232900  0.90375200  0.57730100  1
  O  1752  1  0.58114000  0.62756200  0.60108900  1
