# generated using pymatgen
data_H36C53(NO)8
_symmetry_space_group_name_H-M   'P 1'
_cell_length_a   60.99278355
_cell_length_b   60.99278355
_cell_length_c   60.99278355
_cell_angle_alpha   109.47122063
_cell_angle_beta   109.47122063
_cell_angle_gamma   109.47122063
_symmetry_Int_Tables_number   1
_chemical_formula_structural   H36C53(NO)8
_chemical_formula_sum   'H432 C636 N96 O96'
_cell_volume   174668.04960019
_cell_formula_units_Z   12
loop_
 _symmetry_equiv_pos_site_id
 _symmetry_equiv_pos_as_xyz
  1  'x, y, z'
loop_
 _atom_site_type_symbol
 _atom_site_label
 _atom_site_symmetry_multiplicity
 _atom_site_fract_x
 _atom_site_fract_y
 _atom_site_fract_z
 _atom_site_occupancy
  C  1  1  0.40194900  0.14499650  0.77197850  1
  C  2  1  0.41517150  0.16078000  0.76333450  1
  C  3  1  0.39777450  0.15146450  0.73663400  1
  C  4  1  0.37335400  0.12960050  0.72800750  1
  C  5  1  0.35196000  0.11656500  0.70153100  1
  C  6  1  0.35527800  0.12560850  0.68364750  1
  C  7  1  0.38025300  0.14772650  0.69281550  1
  C  8  1  0.40156900  0.16073450  0.71923750  1
  C  9  1  0.44183700  0.18197700  0.78072000  1
  C  10  1  0.45526700  0.18709450  0.80714550  1
  C  11  1  0.44233250  0.17129050  0.81632500  1
  C  12  1  0.41540750  0.15008550  0.79845500  1
  C  13  1  0.35306450  0.12472500  0.75646350  1
  C  14  1  0.33726200  0.10029450  0.75388350  1
  C  15  1  0.34680500  0.08302900  0.74615600  1
  C  16  1  0.36863100  0.09624500  0.74354000  1
  C  17  1  0.33801750  0.05662300  0.74141450  1
  C  18  1  0.35169400  0.04357350  0.73413350  1
  C  19  1  0.37391350  0.05658250  0.73143500  1
  C  20  1  0.38231000  0.08315800  0.73617400  1
  C  21  1  0.34733800  0.14576700  0.76383200  1
  C  22  1  0.32550500  0.14210350  0.76857650  1
  C  23  1  0.30982150  0.11719300  0.76590650  1
  C  24  1  0.31560650  0.09624500  0.75864150  1
  C  37  1  0.37425000  0.12389150  0.74999650  1
  C  38  1  0.38815250  0.04228850  0.72434700  1
  C  41  1  0.31827650  0.16341500  0.77564250  1
  C  44  1  0.33321850  0.11279950  0.65574900  1
  C  47  1  0.45744000  0.17713950  0.84422550  1
  C  50  1  0.09877050  0.37040750  0.24339900  1
  C  51  1  0.08553350  0.34854000  0.24595150  1
  C  52  1  0.10291700  0.33922200  0.25402900  1
  C  53  1  0.12734550  0.35501000  0.25659350  1
  C  54  1  0.14872750  0.34991000  0.26494550  1
  C  55  1  0.14539200  0.32870050  0.27066050  1
  C  56  1  0.12041050  0.31290050  0.26779700  1
  C  57  1  0.09910600  0.31802400  0.25949500  1
  C  58  1  0.05886950  0.33927300  0.24048350  1
  C  59  1  0.04545650  0.35228700  0.23218550  1
  C  60  1  0.05840750  0.37440700  0.22933050  1
  C  61  1  0.08533100  0.38344700  0.23505000  1
  C  62  1  0.14766150  0.40376000  0.27202450  1
  C  63  1  0.16348250  0.41697700  0.26340750  1
  C  64  1  0.15394350  0.39970750  0.23659900  1
  C  65  1  0.13209250  0.37527900  0.22797450  1
  C  66  1  0.16274750  0.40375200  0.21898950  1
  C  67  1  0.14907150  0.38279750  0.19226200  1
  C  68  1  0.12683600  0.35788550  0.18303950  1
  C  69  1  0.11842300  0.35423050  0.20121050  1
  C  70  1  0.15338000  0.41685300  0.29879000  1
  C  71  1  0.17522000  0.44342750  0.31696550  1
  C  72  1  0.19092250  0.45643300  0.30774950  1
  C  73  1  0.18515000  0.44338300  0.28102300  1
  C  86  1  0.12646750  0.37611250  0.24999800  1
  C  87  1  0.11260050  0.33656300  0.15450550  1
  C  90  1  0.18243150  0.45772450  0.34550000  1
  C  93  1  0.16744000  0.32284450  0.27990650  1
  C  96  1  0.04331900  0.38722200  0.22009000  1
  C  197  1  0.62998550  0.22802800  0.37302650  1
  C  198  1  0.65184850  0.23666950  0.39745400  1
  C  199  1  0.66114700  0.26336850  0.41484350  1
  C  200  1  0.64535900  0.27199750  0.40160250  1
  C  201  1  0.65043300  0.29847050  0.41504850  1
  C  202  1  0.67162950  0.31635200  0.44197650  1
  C  203  1  0.68744150  0.30718700  0.45492550  1
  C  204  1  0.68233750  0.28076450  0.44151000  1
  C  205  1  0.66112900  0.21928400  0.40126800  1
  C  206  1  0.64813450  0.19286000  0.37995950  1
  C  207  1  0.62602850  0.18368300  0.35497150  1
  C  208  1  0.61697400  0.20155500  0.35163700  1
  C  209  1  0.59661300  0.24353800  0.36826800  1
  C  210  1  0.58339500  0.24613150  0.34642650  1
  C  211  1  0.60066600  0.25386000  0.33688900  1
  C  212  1  0.62510600  0.25646950  0.35271650  1
  C  213  1  0.59662250  0.25860850  0.31522800  1
  C  214  1  0.61757800  0.26588550  0.30945750  1
  C  215  1  0.64249150  0.26857150  0.32515600  1
  C  216  1  0.64615050  0.26383400  0.34699350  1
  C  217  1  0.58352300  0.23618200  0.38195000  1
  C  218  1  0.55694450  0.23143750  0.37354200  1
  C  219  1  0.54393550  0.23411600  0.35130750  1
  C  220  1  0.55698650  0.24138500  0.33762750  1
  C  233  1  0.62426550  0.25000800  0.37390350  1
  C  234  1  0.66381250  0.27564550  0.31794000  1
  C  237  1  0.54265050  0.22436700  0.38778550  1
  C  240  1  0.67746250  0.34424700  0.45706750  1
  C  243  1  0.61324250  0.15578650  0.33291700  1
  C  246  1  0.85537800  0.75661000  0.12701100  1
  C  247  1  0.83958300  0.75405500  0.10259100  1
  C  248  1  0.84887900  0.74596400  0.08518800  1
  C  249  1  0.87074050  0.74339700  0.09840750  1
  C  250  1  0.88376000  0.73503150  0.08494650  1
  C  251  1  0.87470350  0.72931250  0.05802200  1
  C  252  1  0.85259000  0.73218500  0.04509100  1
  C  253  1  0.83959500  0.74049450  0.05852250  1
  C  254  1  0.81839500  0.75953450  0.09880050  1
  C  255  1  0.81329350  0.76784650  0.12011900  1
  C  256  1  0.82910850  0.77071050  0.14509700  1
  C  257  1  0.85030700  0.76498200  0.14841100  1
  C  258  1  0.87563500  0.72798050  0.13173750  1
  C  259  1  0.90007900  0.73659550  0.15356450  1
  C  260  1  0.91734700  0.76340300  0.16310100  1
  C  261  1  0.90412450  0.77202300  0.14728750  1
  C  262  1  0.94376300  0.78101200  0.18475200  1
  C  263  1  0.95680700  0.80774300  0.19053300  1
  C  264  1  0.94379100  0.81696550  0.17484650  1
  C  265  1  0.91721250  0.79879200  0.15301450  1
  C  266  1  0.85459100  0.70121500  0.11806600  1
  C  267  1  0.85825550  0.68303750  0.12646200  1
  C  268  1  0.88317600  0.69225550  0.14868450  1
  C  269  1  0.90413000  0.71898100  0.16235700  1
  C  282  1  0.87646900  0.75000200  0.12611000  1
  C  283  1  0.95808100  0.84550600  0.18207200  1
  C  286  1  0.83693550  0.65450300  0.11222550  1
  C  289  1  0.88749550  0.72005550  0.04291300  1
  C  292  1  0.82327800  0.77996950  0.16716250  1
  C  393  1  0.25695300  0.62697750  0.85500150  1
  C  394  1  0.25439650  0.60255300  0.83921950  1
  C  395  1  0.24631650  0.58516750  0.84853600  1
  C  396  1  0.24375750  0.59840200  0.87039850  1
  C  397  1  0.23539900  0.58496050  0.88343350  1
  C  398  1  0.22967550  0.55803450  0.87439100  1
  C  399  1  0.23253400  0.54508500  0.85227200  1
  C  400  1  0.24084300  0.55850100  0.83926600  1
  C  401  1  0.25986650  0.59874250  0.81802400  1
  C  402  1  0.26817450  0.62004950  0.81290400  1
  C  403  1  0.27104250  0.64503200  0.82870750  1
  C  404  1  0.26532050  0.64836450  0.84991200  1
  C  405  1  0.22833900  0.63172950  0.87527250  1
  C  406  1  0.23696550  0.65358150  0.89970300  1
  C  407  1  0.26377350  0.66312100  0.91696750  1
  C  408  1  0.27238550  0.64729050  0.90375300  1
  C  409  1  0.28139250  0.68478800  0.94337550  1
  C  410  1  0.30811850  0.69055750  0.95642400  1
  C  411  1  0.31733200  0.67485350  0.94341650  1
  C  412  1  0.29915350  0.65301500  0.91684050  1
  C  413  1  0.20157000  0.61805250  0.85423150  1
  C  414  1  0.18339850  0.62646200  0.85789150  1
  C  415  1  0.19262500  0.64870200  0.88280100  1
  C  416  1  0.21935700  0.66238600  0.90374900  1
  C  429  1  0.25035950  0.62610050  0.87610700  1
  C  430  1  0.34586500  0.68206200  0.95771100  1
  C  433  1  0.15486050  0.61221550  0.83657700  1
  C  436  1  0.22042450  0.54294350  0.88719800  1
  C  439  1  0.28029750  0.66708300  0.82285850  1
  C  442  1  0.72836300  0.87298850  0.62959250  1
  C  443  1  0.73699150  0.89740850  0.65145800  1
  C  444  1  0.76369400  0.91480350  0.66077550  1
  C  445  1  0.77233550  0.90157950  0.64499000  1
  C  446  1  0.79881850  0.91503050  0.65009300  1
  C  447  1  0.81669150  0.94195450  0.67130200  1
  C  448  1  0.80751000  0.95489100  0.68710100  1
  C  449  1  0.78108150  0.94146700  0.68197650  1
  C  450  1  0.71959350  0.90120700  0.66072350  1
  C  451  1  0.69316800  0.87989400  0.64771000  1
  C  452  1  0.68399800  0.85491850  0.62559150  1
  C  453  1  0.70188200  0.85159800  0.61655100  1
  C  454  1  0.74390300  0.86826000  0.59624100  1
  C  455  1  0.74650700  0.84642600  0.58302500  1
  C  456  1  0.75423600  0.83688700  0.60029400  1
  C  457  1  0.75681400  0.85269200  0.62472300  1
  C  458  1  0.75899550  0.81523300  0.59625150  1
  C  459  1  0.76627400  0.80946000  0.61720700  1
  C  460  1  0.76894700  0.82514950  0.64211650  1
  C  461  1  0.76419100  0.84697600  0.64577100  1
  C  462  1  0.73653000  0.88193200  0.58314700  1
  C  463  1  0.73179600  0.87353350  0.55657250  1
  C  464  1  0.73449150  0.85131100  0.54356750  1
  C  465  1  0.74176950  0.83763500  0.55661850  1
  C  478  1  0.75035450  0.87388150  0.62388700  1
  C  479  1  0.77603200  0.81793750  0.66343950  1
  C  482  1  0.72471150  0.88777100  0.54227550  1
  C  485  1  0.84459600  0.95705550  0.67715850  1
  C  488  1  0.65609600  0.83286300  0.61277600  1
  C  589  1  0.40411750  0.75646050  0.63173200  1
  C  590  1  0.41734100  0.75387650  0.65358050  1
  C  591  1  0.40007350  0.74615450  0.66312200  1
  C  592  1  0.37563400  0.74354600  0.64729700  1
  C  593  1  0.35459050  0.73618050  0.65302000  1
  C  594  1  0.35825050  0.73144550  0.67485900  1
  C  595  1  0.38316800  0.73413800  0.69056200  1
  C  596  1  0.40412100  0.74141200  0.68478800  1
  C  597  1  0.44375450  0.75863600  0.66238450  1
  C  598  1  0.45680450  0.76590300  0.64870350  1
  C  599  1  0.44378650  0.76856650  0.62645900  1
  C  600  1  0.41720700  0.76381700  0.61805000  1
  C  601  1  0.35537000  0.72800100  0.59840600  1
  C  602  1  0.33958150  0.73662850  0.58516200  1
  C  603  1  0.34888100  0.76332900  0.60254700  1
  C  604  1  0.37074950  0.77197550  0.62697300  1
  C  605  1  0.33960250  0.78071400  0.59873050  1
  C  606  1  0.35259700  0.80714000  0.62003400  1
  C  607  1  0.37470550  0.81632050  0.64502300  1
  C  608  1  0.38376150  0.79845200  0.64836150  1
  C  609  1  0.35029950  0.70153000  0.58496250  1
  C  610  1  0.32910350  0.68364700  0.55803550  1
  C  611  1  0.31329250  0.69281100  0.54508250  1
  C  612  1  0.31839600  0.71923250  0.55849450  1
  C  625  1  0.37646700  0.74999500  0.62610200  1
  C  626  1  0.38749100  0.84421850  0.66707550  1
  C  629  1  0.32327100  0.65575050  0.54294650  1
  C  632  1  0.33692800  0.72436450  0.68207250  1
  C  635  1  0.45807700  0.77562750  0.61220850  1
  C  638  1  0.09660500  0.22797150  0.85269850  1
  C  639  1  0.08338100  0.23659750  0.83689350  1
  C  640  1  0.10064900  0.26340700  0.84643800  1
  C  641  1  0.12508550  0.27202350  0.86827500  1
  C  642  1  0.14613200  0.29878750  0.88194550  1
  C  643  1  0.14247150  0.31696650  0.87354900  1
  C  644  1  0.11755400  0.30775050  0.85132450  1
  C  645  1  0.09659850  0.28102400  0.83764850  1
  C  646  1  0.05697000  0.21898450  0.81523350  1
  C  647  1  0.04392300  0.19225200  0.80945000  1
  C  648  1  0.05693950  0.18302750  0.82513300  1
  C  649  1  0.08352000  0.20119950  0.84696450  1
  C  650  1  0.14535400  0.24339950  0.87298850  1
  C  651  1  0.16114100  0.24593950  0.89740150  1
  C  652  1  0.15184300  0.25402200  0.91480400  1
  C  653  1  0.12997350  0.25658000  0.90158450  1
  C  654  1  0.16112350  0.25948200  0.94146650  1
  C  655  1  0.14813450  0.26779600  0.95490150  1
  C  656  1  0.12602150  0.27067150  0.94197500  1
  C  657  1  0.11696100  0.26495250  0.91504950  1
  C  658  1  0.15042750  0.23503450  0.85158800  1
  C  659  1  0.17162650  0.22930750  0.85490000  1
  C  660  1  0.18743800  0.23216300  0.87987300  1
  C  661  1  0.18233200  0.24046400  0.90119000  1
  C  674  1  0.12425550  0.24999450  0.87388700  1
  C  675  1  0.11323700  0.27993650  0.95708950  1
  C  678  1  0.17746000  0.22005700  0.83283600  1
  C  681  1  0.16379250  0.34549950  0.88778800  1
  C  684  1  0.04264950  0.15448700  0.81790550  1
  C  785  1  0.63209000  0.90375000  0.25645700  1
  C  786  1  0.65392150  0.91696800  0.25384950  1
  C  787  1  0.66345900  0.89969900  0.24611300  1
  C  788  1  0.64766000  0.87527050  0.24353850  1
  C  789  1  0.65338400  0.85422800  0.23616900  1
  C  790  1  0.67521450  0.85788900  0.23141950  1
  C  791  1  0.69090150  0.88280100  0.23409350  1
  C  792  1  0.68511800  0.90374900  0.24136000  1
  C  793  1  0.66270900  0.94337400  0.25858700  1
  C  794  1  0.64902900  0.95642100  0.26586300  1
  C  795  1  0.62681000  0.94341450  0.26856250  1
  C  796  1  0.61841650  0.91684050  0.26383000  1
  C  797  1  0.59877350  0.85499800  0.22801950  1
  C  798  1  0.58555300  0.83920950  0.23666050  1
  C  799  1  0.60295150  0.84852150  0.26336000  1
  C  800  1  0.62736600  0.87039700  0.27199300  1
  C  801  1  0.59915850  0.83924850  0.28075500  1
  C  802  1  0.62047250  0.85225800  0.30717850  1
  C  803  1  0.64544850  0.87437850  0.31634700  1
  C  804  1  0.64876350  0.88342450  0.29846500  1
  C  805  1  0.58531550  0.84990650  0.20154200  1
  C  806  1  0.55839100  0.82869950  0.18367050  1
  C  807  1  0.54546100  0.81289100  0.19284900  1
  C  808  1  0.55888950  0.81800750  0.21927200  1
  C  821  1  0.62647250  0.87610450  0.25000200  1
  C  822  1  0.66750850  0.88718600  0.34424550  1
  C  825  1  0.54328350  0.82285350  0.15577100  1
  C  828  1  0.68243750  0.83657350  0.22434700  1
  C  831  1  0.61257100  0.95770900  0.27564700  1
  C  834  1  0.85307100  0.59625050  0.72797650  1
  C  835  1  0.83724800  0.58303300  0.73659200  1
  C  836  1  0.84678200  0.60030150  0.76339750  1
  C  837  1  0.86863800  0.62472800  0.77202600  1
  C  838  1  0.88230900  0.64577450  0.79879150  1
  C  839  1  0.87389750  0.64211500  0.81696150  1
  C  840  1  0.85166000  0.61720500  0.80773600  1
  C  841  1  0.83798050  0.59625450  0.78100800  1
  C  842  1  0.81558150  0.55662550  0.71897400  1
  C  843  1  0.80981300  0.54357300  0.69224900  1
  C  844  1  0.82552200  0.55657850  0.68303650  1
  C  845  1  0.84736100  0.58315400  0.70121400  1
  C  846  1  0.87339450  0.64500100  0.74341250  1
  C  847  1  0.89782200  0.66078200  0.74597200  1
  C  848  1  0.91520450  0.65146300  0.75405250  1
  C  849  1  0.90196400  0.62959900  0.75660700  1
  C  850  1  0.94186900  0.66072650  0.75952250  1
  C  851  1  0.95527750  0.64771000  0.76781850  1
  C  852  1  0.94232200  0.62558850  0.77067150  1
  C  853  1  0.91539900  0.61655300  0.76495400  1
  C  854  1  0.85201100  0.65009850  0.73504950  1
  C  855  1  0.85535050  0.67130650  0.72933300  1
  C  856  1  0.88033600  0.68710700  0.73220300  1
  C  857  1  0.90163750  0.68198100  0.74050650  1
  C  870  1  0.87426700  0.62389450  0.75000450  1
  C  871  1  0.95740450  0.61276800  0.77990950  1
  C  874  1  0.83330450  0.67716250  0.72008200  1
  C  877  1  0.88813950  0.66343350  0.84549900  1
  C  880  1  0.81831650  0.54228050  0.65450400  1
  C  981  1  0.25682200  0.13173800  0.40375600  1
  C  982  1  0.25422300  0.15357600  0.41697500  1
  C  983  1  0.24649950  0.16311850  0.39970700  1
  C  984  1  0.24391050  0.14730600  0.37527550  1
  C  985  1  0.23655150  0.15303300  0.35423150  1
  C  986  1  0.23180550  0.17486550  0.35789100  1
  C  987  1  0.23447650  0.19055350  0.38280000  1
  C  988  1  0.24174500  0.18477550  0.40375250  1
  C  989  1  0.25896300  0.16236750  0.44338150  1
  C  990  1  0.26623400  0.14868900  0.45643100  1
  C  991  1  0.26891850  0.12645800  0.44342250  1
  C  992  1  0.26418250  0.11805850  0.41684600  1
  C  993  1  0.22838850  0.09842050  0.35500500  1
  C  994  1  0.23703300  0.08519300  0.33922700  1
  C  995  1  0.26373200  0.10258950  0.34853850  1
  C  996  1  0.27236350  0.12700800  0.37040850  1
  C  997  1  0.28113050  0.09879100  0.33927250  1
  C  998  1  0.30755350  0.12010600  0.35228050  1
  C  999  1  0.31671850  0.14508550  0.37439100  1
  C  1000  1  0.29883600  0.14840550  0.38343450  1
  C  1001  1  0.20191300  0.08496200  0.34992000  1
  C  1002  1  0.18404200  0.05803500  0.32871700  1
  C  1003  1  0.19322100  0.04509800  0.31291500  1
  C  1004  1  0.21964800  0.05852550  0.31803350  1
  C  1017  1  0.25037100  0.12611750  0.37611050  1
  C  1018  1  0.34461400  0.16715000  0.38719100  1
  C  1021  1  0.15614100  0.04293000  0.32286700  1
  C  1024  1  0.22473650  0.18208650  0.33657300  1
  C  1027  1  0.27598850  0.11221250  0.45771400  1
  C  1030  1  0.72834000  0.35269700  0.09624700  1
  C  1031  1  0.73695750  0.33687850  0.08302900  1
  C  1032  1  0.76376700  0.34641950  0.10029550  1
  C  1033  1  0.77239200  0.36827100  0.12472500  1
  C  1034  1  0.79915900  0.38194800  0.14576900  1
  C  1035  1  0.81733100  0.37354000  0.14211100  1
  C  1036  1  0.80810900  0.35130050  0.11720150  1
  C  1037  1  0.78138000  0.33762100  0.09625000  1
  C  1038  1  0.71934150  0.31521050  0.05662200  1
  C  1039  1  0.69261350  0.30943500  0.04357350  1
  C  1040  1  0.68339600  0.32513450  0.05658250  1
  C  1041  1  0.70157100  0.34697100  0.08315700  1
  C  1042  1  0.74377950  0.37301900  0.14500050  1
  C  1043  1  0.74632900  0.39744100  0.16077700  1
  C  1044  1  0.75441200  0.41482700  0.15146400  1
  C  1045  1  0.75695850  0.40158800  0.12959250  1
  C  1046  1  0.75987900  0.44149100  0.16072900  1
  C  1047  1  0.76819150  0.45490800  0.14772550  1
  C  1048  1  0.77105500  0.44196100  0.12561000  1
  C  1049  1  0.76532750  0.41503450  0.11656500  1
  C  1050  1  0.73541250  0.35163050  0.15008900  1
  C  1051  1  0.72969150  0.35496350  0.17129400  1
  C  1052  1  0.73256000  0.37994800  0.18709900  1
  C  1053  1  0.74086400  0.40125250  0.18197650  1
  C  1066  1  0.75036700  0.37389400  0.12389100  1
  C  1067  1  0.78031600  0.45705550  0.11280850  1
  C  1070  1  0.72043600  0.33291250  0.17714350  1
  C  1073  1  0.84586950  0.38778600  0.16342850  1
  C  1076  1  0.65486000  0.31791850  0.04228850  1
  C  1177  1  0.30803150  0.12507250  0.50320300  1
  C  1178  1  0.30927950  0.10181750  0.50106700  1
  C  1179  1  0.31430750  0.09715250  0.52283800  1
  C  1180  1  0.31824850  0.11570500  0.54712350  1
  C  1181  1  0.31725600  0.13928000  0.54960000  1
  C  1182  1  0.31207950  0.14362350  0.52745300  1
  C  1184  1  0.32417050  0.11092300  0.56902450  1
  C  1185  1  0.35109400  0.12245550  0.58922250  1
  C  1186  1  0.35602850  0.11816900  0.61139250  1
  C  1187  1  0.33474600  0.10289100  0.61376800  1
  C  1188  1  0.30806650  0.09136100  0.59346150  1
  C  1189  1  0.30282000  0.09540950  0.57130250  1
  C  1205  1  0.19268100  0.19551600  0.31738000  1
  C  1206  1  0.19144800  0.19214700  0.29288500  1
  C  1207  1  0.18641850  0.20889100  0.28319550  1
  C  1208  1  0.18245600  0.22922050  0.29780150  1
  C  1209  1  0.18343300  0.23267400  0.32235800  1
  C  1210  1  0.18861850  0.21570800  0.33187950  1
  C  1212  1  0.17652150  0.24519350  0.28709300  1
  C  1213  1  0.14959150  0.23846250  0.27171400  1
  C  1214  1  0.14464300  0.25568450  0.26247950  1
  C  1215  1  0.16591600  0.27933850  0.26846650  1
  C  1216  1  0.19259950  0.28571300  0.28359650  1
  C  1217  1  0.19785950  0.26881300  0.29290550  1
  C  1233  1  0.87849400  0.37492800  0.18262400  1
  C  1234  1  0.89961400  0.39818900  0.20712500  1
  C  1235  1  0.92605000  0.40285500  0.21682000  1
  C  1236  1  0.93178300  0.38429800  0.20221500  1
  C  1237  1  0.91068600  0.36071950  0.17765250  1
  C  1238  1  0.88419500  0.35637450  0.16812850  1
  C  1240  1  0.95846900  0.38908350  0.21292050  1
  C  1241  1  0.96713350  0.37754300  0.22830350  1
  C  1242  1  0.99359050  0.38183250  0.23752600  1
  C  1243  1  0.01124450  0.39712100  0.23152950  1
  C  1244  1  0.00247150  0.40866000  0.21639050  1
  C  1245  1  0.97626150  0.40460800  0.20709450  1
  C  1261  1  0.62224050  0.30447350  0.99679600  1
  C  1262  1  0.60111850  0.30785750  0.99892600  1
  C  1263  1  0.57468300  0.29111200  0.97715400  1
  C  1264  1  0.56895550  0.27076550  0.95287000  1
  C  1265  1  0.59005300  0.26729650  0.95039850  1
  C  1266  1  0.61654300  0.28426650  0.97254850  1
  C  1268  1  0.54227350  0.25479100  0.93096450  1
  C  1269  1  0.53361650  0.26153100  0.91077650  1
  C  1270  1  0.50716050  0.24430700  0.88860450  1
  C  1271  1  0.48950300  0.22064200  0.88621500  1
  C  1272  1  0.49826600  0.21425700  0.90651400  1
  C  1273  1  0.52447650  0.23115850  0.92867300  1
  C  1289  1  0.80485500  0.49678200  0.62188900  1
  C  1290  1  0.80826200  0.49890450  0.60077450  1
  C  1291  1  0.79151450  0.47713650  0.57433600  1
  C  1292  1  0.77114050  0.45286600  0.56859850  1
  C  1293  1  0.76765000  0.45040050  0.58968950  1
  C  1294  1  0.78462450  0.47254300  0.61618250  1
  C  1296  1  0.75515250  0.43096800  0.54191250  1
  C  1297  1  0.76188450  0.41077950  0.53323000  1
  C  1298  1  0.74463950  0.38861150  0.50677200  1
  C  1299  1  0.72096900  0.38623100  0.48913700  1
  C  1300  1  0.71458950  0.40652800  0.49793050  1
  C  1301  1  0.73151150  0.42868400  0.52414150  1
  C  1317  1  0.87526750  0.68261350  0.87811600  1
  C  1318  1  0.89852200  0.70711500  0.89924100  1
  C  1319  1  0.90318200  0.71679950  0.92567550  1
  C  1320  1  0.88462200  0.70218300  0.93139800  1
  C  1321  1  0.86104900  0.67762000  0.91029600  1
  C  1322  1  0.85671050  0.66810450  0.88380700  1
  C  1324  1  0.88939650  0.71288500  0.95808050  1
  C  1325  1  0.87786500  0.72828050  0.96674050  1
  C  1326  1  0.88215000  0.73750850  0.99319650  1
  C  1327  1  0.89741950  0.73149900  0.01085150  1
  C  1328  1  0.90895300  0.71635150  0.00208350  1
  C  1329  1  0.90490300  0.70704750  0.97587350  1
  C  1345  1  0.69588200  0.81739400  0.19230400  1
  C  1346  1  0.69250100  0.79289050  0.19105450  1
  C  1347  1  0.70924900  0.78320300  0.18603400  1
  C  1348  1  0.72960050  0.79782350  0.18210300  1
  C  1349  1  0.73306550  0.82238700  0.18309350  1
  C  1350  1  0.71609050  0.83190350  0.18826300  1
  C  1352  1  0.74558900  0.78712600  0.17619300  1
  C  1353  1  0.73886050  0.77171550  0.14927100  1
  C  1354  1  0.75610450  0.76250150  0.14434800  1
  C  1355  1  0.77977050  0.76853200  0.16563850  1
  C  1356  1  0.78614750  0.78370000  0.19231450  1
  C  1357  1  0.76922600  0.79298950  0.19754950  1
  C  1373  1  0.62545150  0.00320600  0.30768650  1
  C  1374  1  0.60220900  0.00108550  0.30895750  1
  C  1375  1  0.59754650  0.02285700  0.31398050  1
  C  1376  1  0.61609250  0.04713200  0.31789550  1
  C  1377  1  0.63965450  0.04959550  0.31688300  1
  C  1378  1  0.64399450  0.02744700  0.31170750  1
  C  1380  1  0.61131800  0.06903850  0.32382350  1
  C  1381  1  0.62283250  0.08921900  0.35075150  1
  C  1382  1  0.61855000  0.11139100  0.35569500  1
  C  1383  1  0.60330150  0.11379150  0.33441800  1
  C  1384  1  0.59178400  0.09350050  0.30773550  1
  C  1385  1  0.59583350  0.07134000  0.30247950  1
  C  1401  1  0.18296650  0.37812150  0.87491800  1
  C  1402  1  0.20747750  0.39923750  0.89816500  1
  C  1403  1  0.21717150  0.42567500  0.90283150  1
  C  1404  1  0.20255100  0.43141000  0.88428600  1
  C  1405  1  0.17797750  0.41031550  0.86071900  1
  C  1406  1  0.16845500  0.38382450  0.85637350  1
  C  1408  1  0.21325450  0.45809550  0.88907200  1
  C  1409  1  0.22865050  0.46676450  0.87754300  1
  C  1410  1  0.23787050  0.49322100  0.88183250  1
  C  1411  1  0.23185950  0.51086950  0.89710500  1
  C  1412  1  0.21670500  0.50209050  0.90862950  1
  C  1413  1  0.20741000  0.47588000  0.90457800  1
  C  1429  1  0.99716750  0.12186000  0.80447750  1
  C  1430  1  0.99930650  0.10073450  0.80784400  1
  C  1431  1  0.97753300  0.07430050  0.79110050  1
  C  1432  1  0.95323850  0.06857750  0.77077600  1
  C  1433  1  0.95075950  0.08968050  0.76732400  1
  C  1434  1  0.97291050  0.11616850  0.78429000  1
  C  1436  1  0.93132900  0.04189500  0.75480500  1
  C  1437  1  0.91113050  0.03325200  0.76153650  1
  C  1438  1  0.88896000  0.00679450  0.74431650  1
  C  1439  1  0.88657950  0.98912500  0.72066550  1
  C  1440  1  0.90688800  0.99787600  0.71429000  1
  C  1441  1  0.92904950  0.02408550  0.73118800  1
  C  1457  1  0.50355650  0.80768150  0.62505900  1
  C  1458  1  0.50141350  0.80890850  0.60179300  1
  C  1459  1  0.52318450  0.81393850  0.59712800  1
  C  1460  1  0.54747800  0.81790150  0.61569250  1
  C  1461  1  0.54996300  0.81693000  0.63927700  1
  C  1462  1  0.52781550  0.81174900  0.64362050  1
  C  1464  1  0.56938050  0.82382500  0.61091050  1
  C  1465  1  0.58958550  0.85074900  0.62245350  1
  C  1466  1  0.61175350  0.85568300  0.61816450  1
  C  1467  1  0.61412050  0.83439950  0.60287400  1
  C  1468  1  0.59380900  0.80772150  0.59133450  1
  C  1469  1  0.57164900  0.80247500  0.59538300  1
  C  1485  1  0.31775700  0.69231900  0.69552000  1
  C  1486  1  0.29325150  0.69106350  0.69213600  1
  C  1487  1  0.28356350  0.68603800  0.70888350  1
  C  1488  1  0.29818250  0.68210100  0.72922850  1
  C  1489  1  0.32275100  0.68310000  0.73269700  1
  C  1490  1  0.33226900  0.68828050  0.71572750  1
  C  1492  1  0.28747700  0.67616850  0.74520450  1
  C  1493  1  0.27208350  0.64924050  0.73846700  1
  C  1494  1  0.26285250  0.64429400  0.75569150  1
  C  1495  1  0.26885850  0.66556950  0.77935700  1
  C  1496  1  0.28400450  0.69225250  0.78573900  1
  C  1497  1  0.29331200  0.69751050  0.76883650  1
  C  1513  1  0.69267050  0.87489600  0.49678150  1
  C  1514  1  0.69139950  0.89814050  0.49891000  1
  C  1515  1  0.68637450  0.90280750  0.47714000  1
  C  1516  1  0.68245900  0.88426800  0.45286300  1
  C  1517  1  0.68347250  0.86070450  0.45039300  1
  C  1518  1  0.68864650  0.85635700  0.47253750  1
  C  1520  1  0.67654350  0.88905400  0.43096350  1
  C  1521  1  0.64962050  0.87752950  0.41076700  1
  C  1522  1  0.64469150  0.88181950  0.38859900  1
  C  1523  1  0.66597750  0.89709000  0.38622550  1
  C  1524  1  0.69265550  0.90861100  0.40652750  1
  C  1525  1  0.69789650  0.90455950  0.42868700  1
  C  1541  1  0.80809100  0.80451000  0.68262300  1
  C  1542  1  0.80934150  0.80789050  0.70712700  1
  C  1543  1  0.81436750  0.79114350  0.71681500  1
  C  1544  1  0.81831200  0.77080200  0.70220000  1
  C  1545  1  0.81731900  0.76733800  0.67763400  1
  C  1546  1  0.81213800  0.78430750  0.66811550  1
  C  1548  1  0.82424100  0.75482550  0.71290450  1
  C  1549  1  0.85116650  0.76155550  0.72829400  1
  C  1550  1  0.85610850  0.74433000  0.73752450  1
  C  1551  1  0.83483100  0.72067100  0.73152400  1
  C  1552  1  0.80814900  0.71429500  0.71638200  1
  C  1553  1  0.80289550  0.73119850  0.70707500  1
  C  1569  1  0.12223200  0.62506850  0.81737850  1
  C  1570  1  0.10111400  0.60180850  0.79287950  1
  C  1571  1  0.07467700  0.59714050  0.78318250  1
  C  1572  1  0.06894350  0.61569750  0.79778700  1
  C  1573  1  0.09003850  0.63927650  0.82234800  1
  C  1574  1  0.11653150  0.64362400  0.83187350  1
  C  1576  1  0.04225700  0.61091050  0.78707950  1
  C  1577  1  0.03359200  0.62245150  0.77169750  1
  C  1578  1  0.00713400  0.61815950  0.76247450  1
  C  1579  1  0.98948000  0.60287000  0.76846900  1
  C  1580  1  0.99825300  0.59133100  0.78360900  1
  C  1581  1  0.02446400  0.59538450  0.79290650  1
  C  1597  1  0.37848250  0.69551350  0.00320600  1
  C  1598  1  0.39960100  0.69211750  0.00107850  1
  C  1599  1  0.42603750  0.70886450  0.02285000  1
  C  1600  1  0.43176950  0.72922150  0.04712700  1
  C  1601  1  0.41067500  0.73270000  0.04959600  1
  C  1602  1  0.38418450  0.71573050  0.02744900  1
  C  1604  1  0.45845250  0.74519800  0.06903250  1
  C  1605  1  0.46711600  0.73845650  0.08921750  1
  C  1606  1  0.49357200  0.75568250  0.11138850  1
  C  1607  1  0.51122400  0.77935150  0.11378150  1
  C  1608  1  0.50245400  0.78573850  0.09348450  1
  C  1609  1  0.47624400  0.76883600  0.07132700  1
  C  1625  1  0.19588900  0.50321950  0.37812050  1
  C  1626  1  0.19248700  0.50109250  0.39923550  1
  C  1627  1  0.20923150  0.52286000  0.42567250  1
  C  1628  1  0.22959900  0.54713400  0.43141100  1
  C  1629  1  0.23308650  0.54960400  0.41031850  1
  C  1630  1  0.21611300  0.52746150  0.38382650  1
  C  1632  1  0.24558550  0.56903300  0.45809750  1
  C  1633  1  0.23885600  0.58922500  0.46677700  1
  C  1634  1  0.25609750  0.61139150  0.49323400  1
  C  1635  1  0.27976200  0.61376800  0.51087400  1
  C  1636  1  0.28614100  0.59346900  0.50208400  1
  C  1637  1  0.26922200  0.57131300  0.47587300  1
  C  1653  1  0.12547850  0.31738700  0.12189450  1
  C  1654  1  0.10222800  0.29287950  0.10077150  1
  C  1655  1  0.09756650  0.28319350  0.07433700  1
  C  1656  1  0.11612050  0.29781450  0.06861000  1
  C  1657  1  0.13968950  0.32238300  0.08971050  1
  C  1658  1  0.14402850  0.33189950  0.11619900  1
  C  1660  1  0.11134350  0.28711350  0.04192900  1
  C  1661  1  0.12286400  0.27170700  0.03326100  1
  C  1662  1  0.11857600  0.26248000  0.00680500  1
  C  1663  1  0.10331500  0.26849850  0.98915550  1
  C  1664  1  0.09178950  0.28365550  0.99792800  1
  C  1665  1  0.09584600  0.29296150  0.02413950  1
  C  1681  1  0.30483750  0.18260550  0.80768800  1
  C  1682  1  0.30821900  0.20710700  0.80893100  1
  C  1683  1  0.29147300  0.21679800  0.81395300  1
  C  1684  1  0.27112950  0.20218750  0.81789500  1
  C  1685  1  0.26766250  0.17762400  0.81690850  1
  C  1686  1  0.28463400  0.16810350  0.81173650  1
  C  1688  1  0.25514450  0.21289000  0.82380750  1
  C  1689  1  0.26186800  0.22829000  0.85072900  1
  C  1690  1  0.24462850  0.23750900  0.85565350  1
  C  1691  1  0.22096950  0.23149300  0.83436650  1
  C  1692  1  0.21459800  0.21633450  0.80768950  1
  C  1693  1  0.23151450  0.20704100  0.80245150  1
  C  1709  1  0.37527050  0.99679050  0.69230300  1
  C  1710  1  0.39851450  0.99891550  0.69103200  1
  C  1711  1  0.40317800  0.97714400  0.68600900  1
  C  1712  1  0.38463250  0.95286850  0.68209300  1
  C  1713  1  0.36106900  0.95040250  0.68310450  1
  C  1714  1  0.35672950  0.97255150  0.68828100  1
  C  1716  1  0.38940850  0.93096200  0.67616450  1
  C  1717  1  0.37789250  0.91078050  0.64923700  1
  C  1718  1  0.38217600  0.88860900  0.64429400  1
  C  1719  1  0.39742750  0.88621150  0.66557100  1
  C  1720  1  0.40894650  0.90650300  0.69225350  1
  C  1721  1  0.40489600  0.92866300  0.69750800  1
  C  1737  1  0.81777000  0.62187950  0.12509650  1
  C  1738  1  0.79325450  0.60076550  0.10185300  1
  C  1739  1  0.78356200  0.57432750  0.09718350  1
  C  1740  1  0.79818850  0.56859000  0.11572050  1
  C  1741  1  0.82276600  0.58968150  0.13928350  1
  C  1742  1  0.83228600  0.61617350  0.14363250  1
  C  1744  1  0.78748650  0.54190400  0.11093350  1
  C  1745  1  0.77207600  0.53322550  0.12244650  1
  C  1746  1  0.76285800  0.50676950  0.11815650  1
  C  1747  1  0.76888400  0.48912850  0.10289650  1
  C  1748  1  0.78405250  0.49791450  0.09138600  1
  C  1749  1  0.79334650  0.52412550  0.09544000  1
  C  1765  1  0.00356650  0.87813100  0.19551250  1
  C  1766  1  0.00143500  0.89926150  0.19214850  1
  C  1767  1  0.02320950  0.92569550  0.20890000  1
  C  1768  1  0.04749700  0.93141500  0.22923200  1
  C  1769  1  0.04997000  0.91030850  0.23268150  1
  C  1770  1  0.02781900  0.88382100  0.21570700  1
  C  1772  1  0.06940500  0.95809500  0.24521000  1
  C  1773  1  0.08959850  0.96675250  0.23847600  1
  C  1774  1  0.11176850  0.99320750  0.25570100  1
  C  1775  1  0.11415500  0.01086650  0.27936350  1
  C  1776  1  0.09385200  0.00210250  0.28574250  1
  C  1777  1  0.07169150  0.97589250  0.26883900  1
  C  1793  1  0.49716150  0.19232500  0.37492350  1
  C  1794  1  0.49929500  0.19107400  0.39817800  1
  C  1795  1  0.47752600  0.18605100  0.40284400  1
  C  1796  1  0.45324350  0.18211750  0.38429400  1
  C  1797  1  0.45076800  0.18311100  0.36072100  1
  C  1798  1  0.47291250  0.18828300  0.35637350  1
  C  1800  1  0.43134250  0.17620150  0.38907700  1
  C  1801  1  0.41115300  0.14927800  0.37756500  1
  C  1802  1  0.38898450  0.14434850  0.38185400  1
  C  1803  1  0.38660100  0.16563350  0.39711050  1
  C  1804  1  0.40689700  0.19231300  0.40862000  1
  C  1805  1  0.42905600  0.19755400  0.40456900  1
  C  1821  1  0.68298650  0.30768800  0.30449050  1
  C  1822  1  0.70748850  0.30893800  0.30786950  1
  C  1823  1  0.71717450  0.31396100  0.29112050  1
  C  1824  1  0.70255800  0.31790200  0.27077800  1
  C  1825  1  0.67799250  0.31690900  0.26731450  1
  C  1826  1  0.66847600  0.31173100  0.28428700  1
  C  1828  1  0.71326100  0.32383150  0.25479950  1
  C  1829  1  0.72865600  0.35075950  0.26153750  1
  C  1830  1  0.73788450  0.35570350  0.24431100  1
  C  1831  1  0.73187850  0.33442900  0.22064750  1
  C  1832  1  0.71673100  0.30774500  0.21426500  1
  C  1833  1  0.70742400  0.30248900  0.23116800  1
  H  25  1  0.29386350  0.11407350  0.76907600  1
  H  26  1  0.30401150  0.07834750  0.75662300  1
  H  27  1  0.32214750  0.04704550  0.74344600  1
  H  28  1  0.34541400  0.02444750  0.73096950  1
  H  29  1  0.39837600  0.09310250  0.73455850  1
  H  30  1  0.35887200  0.16343600  0.76541200  1
  H  31  1  0.33415450  0.10072050  0.69550200  1
  H  32  1  0.38302350  0.15466300  0.68026950  1
  H  33  1  0.41939150  0.17674950  0.72559800  1
  H  34  1  0.40560450  0.13831000  0.80449250  1
  H  35  1  0.45147850  0.19343700  0.77435050  1
  H  36  1  0.47474750  0.20241600  0.81968350  1
  H  39  1  0.40589350  0.05518700  0.72466350  1
  H  40  1  0.39513150  0.03684050  0.73965300  1
  H  42  1  0.29751650  0.15506750  0.76033900  1
  H  43  1  0.33084050  0.18083200  0.77530350  1
  H  45  1  0.32969450  0.12846700  0.65314950  1
  H  46  1  0.31440650  0.09773900  0.65206650  1
  H  48  1  0.47571100  0.17622550  0.84681750  1
  H  49  1  0.44607600  0.16200950  0.84791650  1
  H  74  1  0.20688650  0.47556050  0.32059500  1
  H  75  1  0.19675350  0.45295650  0.27472600  1
  H  76  1  0.17863200  0.42164500  0.22529100  1
  H  77  1  0.15536450  0.38590900  0.17942150  1
  H  78  1  0.10234500  0.33655550  0.19508150  1
  H  79  1  0.14182750  0.40690700  0.30491550  1
  H  80  1  0.16653950  0.36168300  0.26691450  1
  H  81  1  0.11762750  0.29757800  0.27195350  1
  H  82  1  0.08127650  0.30656150  0.25767500  1
  H  83  1  0.09514600  0.39929200  0.23308900  1
  H  84  1  0.04921600  0.32326050  0.24229550  1
  H  85  1  0.02597600  0.34535500  0.22802600  1
  H  88  1  0.09485100  0.31914400  0.14965800  1
  H  89  1  0.10563600  0.34489850  0.14208250  1
  H  91  1  0.20318350  0.46316800  0.35792250  1
  H  92  1  0.16984950  0.44482850  0.35034400  1
  H  94  1  0.17095750  0.32376600  0.29909650  1
  H  95  1  0.18625850  0.33796800  0.28366150  1
  H  97  1  0.02505150  0.37155700  0.20089650  1
  H  98  1  0.05469900  0.40228750  0.21634350  1
  H  221  1  0.52480750  0.23094800  0.34501950  1
  H  222  1  0.54741050  0.24340550  0.32175000  1
  H  223  1  0.57872000  0.25657500  0.30361900  1
  H  224  1  0.61445900  0.26904150  0.29349050  1
  H  225  1  0.66382550  0.26543450  0.35854500  1
  H  226  1  0.59347250  0.23458850  0.39803100  1
  H  227  1  0.63865500  0.30449850  0.40523250  1
  H  228  1  0.70275550  0.31973200  0.47441050  1
  H  229  1  0.69380050  0.27440500  0.45116350  1
  H  230  1  0.60113550  0.19551750  0.33382200  1
  H  231  1  0.67713800  0.22565350  0.41909750  1
  H  232  1  0.65508250  0.18032400  0.38274050  1
  H  235  1  0.68123100  0.27531550  0.33051450  1
  H  236  1  0.65547400  0.26034100  0.29718300  1
  H  238  1  0.53719700  0.23967300  0.39474700  1
  H  239  1  0.55555150  0.22470100  0.40553850  1
  H  241  1  0.67654350  0.34684400  0.47533850  1
  H  242  1  0.66232400  0.34792350  0.44569350  1
  H  244  1  0.62892850  0.15319900  0.32942250  1
  H  245  1  0.59819750  0.15210150  0.31409300  1
  H  270  1  0.88629600  0.67941100  0.15496500  1
  H  271  1  0.92203350  0.72527750  0.17822600  1
  H  272  1  0.95333900  0.77471700  0.19635700  1
  H  273  1  0.97593500  0.82058800  0.20649400  1
  H  274  1  0.90725700  0.80492300  0.14147600  1
  H  275  1  0.83691250  0.69508700  0.10199150  1
  H  276  1  0.89960150  0.73306000  0.09474850  1
  H  277  1  0.84564600  0.72802700  0.02561000  1
  H  278  1  0.82358850  0.74232200  0.04888550  1
  H  279  1  0.86208750  0.76694750  0.16621700  1
  H  280  1  0.80692700  0.75772200  0.08097700  1
  H  281  1  0.79797950  0.77201700  0.11735350  1
  H  284  1  0.94517400  0.85035500  0.16950800  1
  H  285  1  0.96353750  0.85791750  0.20283200  1
  H  287  1  0.84526750  0.64208200  0.10524850  1
  H  288  1  0.81950900  0.64965700  0.09448300  1
  H  290  1  0.87181550  0.70087150  0.02464100  1
  H  291  1  0.90254950  0.71628850  0.05427400  1
  H  293  1  0.82419500  0.79915850  0.17067750  1
  H  294  1  0.83841700  0.78373300  0.18597500  1
  H  417  1  0.17978500  0.65499100  0.88591800  1
  H  418  1  0.22565800  0.67826600  0.92164500  1
  H  419  1  0.27509750  0.69639400  0.95295150  1
  H  420  1  0.32096400  0.70651950  0.97555050  1
  H  421  1  0.30527650  0.64145650  0.90689700  1
  H  422  1  0.19543700  0.60196800  0.83655900  1
  H  423  1  0.23343600  0.59477450  0.89927650  1
  H  424  1  0.22837050  0.52560350  0.84533700  1
  H  425  1  0.24265200  0.54884750  0.82325150  1
  H  426  1  0.26729100  0.66617750  0.86168650  1
  H  427  1  0.25805000  0.58091300  0.80656400  1
  H  428  1  0.27233500  0.61726750  0.79758450  1
  H  431  1  0.35070900  0.66948250  0.94481250  1
  H  432  1  0.35828950  0.70281650  0.96315900  1
  H  434  1  0.14244700  0.60526350  0.84492550  1
  H  435  1  0.15000700  0.59445750  0.81916250  1
  H  437  1  0.20123250  0.52467350  0.87152700  1
  H  438  1  0.21666950  0.55432000  0.90225650  1
  H  440  1  0.29948400  0.67059150  0.82377350  1
  H  441  1  0.28406200  0.68590400  0.83798800  1
  H  466  1  0.73132950  0.84502900  0.52444150  1
  H  467  1  0.74379900  0.82176300  0.54704500  1
  H  468  1  0.75698850  0.80364250  0.57835900  1
  H  469  1  0.76945500  0.79350900  0.61409400  1
  H  470  1  0.76578600  0.85852150  0.66344450  1
  H  471  1  0.73492300  0.89800450  0.59309250  1
  H  472  1  0.80485750  0.90522550  0.63832100  1
  H  473  1  0.82005100  0.97437100  0.70242600  1
  H  474  1  0.77471350  0.95110950  0.69343800  1
  H  475  1  0.69585350  0.83379250  0.60070700  1
  H  476  1  0.72595400  0.91903100  0.67673700  1
  H  477  1  0.68061950  0.88266750  0.65464300  1
  H  480  1  0.77569750  0.83050650  0.68085700  1
  H  481  1  0.76073500  0.79718000  0.65510400  1
  H  483  1  0.74001900  0.89474700  0.53682900  1
  H  484  1  0.72502900  0.90551350  0.55517250  1
  H  486  1  0.84719300  0.97532500  0.67623700  1
  H  487  1  0.84829250  0.94568750  0.66203800  1
  H  489  1  0.65349400  0.82933500  0.62844200  1
  H  490  1  0.65241100  0.81405200  0.59771200  1
  H  613  1  0.29797800  0.68026300  0.52559900  1
  H  614  1  0.30693000  0.72558900  0.54883800  1
  H  615  1  0.32359000  0.77434200  0.58090000  1
  H  616  1  0.34564850  0.81967450  0.61725200  1
  H  617  1  0.39960050  0.80449050  0.66617700  1
  H  618  1  0.36207850  0.69550450  0.59478000  1
  H  619  1  0.33691050  0.73457050  0.64146400  1
  H  620  1  0.38628650  0.73097900  0.70652650  1
  H  621  1  0.42202300  0.74344500  0.69639500  1
  H  622  1  0.40725500  0.76540400  0.60196600  1
  H  623  1  0.45333400  0.75662000  0.67826500  1
  H  624  1  0.47593000  0.76906800  0.65498800  1
  H  627  1  0.37180450  0.84680500  0.67057050  1
  H  628  1  0.40253650  0.84790650  0.68590000  1
  H  630  1  0.33840700  0.65207450  0.55432550  1
  H  631  1  0.32419250  0.65315250  0.52467700  1
  H  633  1  0.31950750  0.72469000  0.66949650  1
  H  634  1  0.34526350  0.73967050  0.70282900  1
  H  636  1  0.44517000  0.77527900  0.59444800  1
  H  637  1  0.46353950  0.76032850  0.60526100  1
  H  662  1  0.20275250  0.22799500  0.88263850  1
  H  663  1  0.19379900  0.24227200  0.91901200  1
  H  664  1  0.17713850  0.25766800  0.95110650  1
  H  665  1  0.15508200  0.27195750  0.97438350  1
  H  666  1  0.10112200  0.26692850  0.90525150  1
  H  667  1  0.13864750  0.23307400  0.83378450  1
  H  668  1  0.16381050  0.30491250  0.89801800  1
  H  669  1  0.11443550  0.32059450  0.84504400  1
  H  670  1  0.07870000  0.27472650  0.82177350  1
  H  671  1  0.09347050  0.19506800  0.85850650  1
  H  672  1  0.04739150  0.22528550  0.80363800  1
  H  673  1  0.02479700  0.17940950  0.79348950  1
  H  676  1  0.12892200  0.29911900  0.97536100  1
  H  677  1  0.09818600  0.28370900  0.94573100  1
  H  679  1  0.16232600  0.21630400  0.81402600  1
  H  680  1  0.17653650  0.20086400  0.82931050  1
  H  682  1  0.18121600  0.35034450  0.90553250  1
  H  683  1  0.15546100  0.35792250  0.89476150  1
  H  685  1  0.05555750  0.14963450  0.83046400  1
  H  686  1  0.03718700  0.14207600  0.79714400  1
  H  809  1  0.52597950  0.79756750  0.18030900  1
  H  810  1  0.54925000  0.80654400  0.22564000  1
  H  811  1  0.58133500  0.82323400  0.27439400  1
  H  812  1  0.61770400  0.84532150  0.31972450  1
  H  813  1  0.66656900  0.89927200  0.30449600  1
  H  814  1  0.59511700  0.86168650  0.19550650  1
  H  815  1  0.64184250  0.83655450  0.23457600  1
  H  816  1  0.70686050  0.88591950  0.23092500  1
  H  817  1  0.69671700  0.92164800  0.24338300  1
  H  818  1  0.60234500  0.90689200  0.26543600  1
  H  819  1  0.67857400  0.95294700  0.25654900  1
  H  820  1  0.65530750  0.97554650  0.26902300  1
  H  823  1  0.67102950  0.87151650  0.34684400  1
  H  824  1  0.68632100  0.90224550  0.34792650  1
  H  826  1  0.55464600  0.83798650  0.15208350  1
  H  827  1  0.52501100  0.82376400  0.15318100  1
  H  829  1  0.66987000  0.81915500  0.22468000  1
  H  830  1  0.70319650  0.84491900  0.23965150  1
  H  832  1  0.59483100  0.94481050  0.27533350  1
  H  833  1  0.60559150  0.96315300  0.26033950  1
  H  858  1  0.88312150  0.70242950  0.72804500  1
  H  859  1  0.91946950  0.69344100  0.74232750  1
  H  860  1  0.95152300  0.67673600  0.75770700  1
  H  861  1  0.97475600  0.65463650  0.77197650  1
  H  862  1  0.90558050  0.60070750  0.76691100  1
  H  863  1  0.83419900  0.63832700  0.73308100  1
  H  864  1  0.89839350  0.66344550  0.80492500  1
  H  865  1  0.84536950  0.61408950  0.82057800  1
  H  866  1  0.82209700  0.57835950  0.77470550  1
  H  867  1  0.85891750  0.59309850  0.69509100  1
  H  868  1  0.80397500  0.54705100  0.72526900  1
  H  869  1  0.79385250  0.52444750  0.67940500  1
  H  872  1  0.97567250  0.62843050  0.79910500  1
  H  873  1  0.94602250  0.59770250  0.78365300  1
  H  875  1  0.81448300  0.66203750  0.71631950  1
  H  876  1  0.82979500  0.67624700  0.70089500  1
  H  878  1  0.90589250  0.68085050  0.85035000  1
  H  879  1  0.89509800  0.65509250  0.85791750  1
  H  881  1  0.83090500  0.55517350  0.64966350  1
  H  882  1  0.79756650  0.53683900  0.64207750  1
  H  1005  1  0.18068400  0.02561700  0.29759500  1
  H  1006  1  0.22601650  0.04888200  0.30657350  1
  H  1007  1  0.27476950  0.08096700  0.32325950  1
  H  1008  1  0.32009800  0.11733650  0.34534050  1
  H  1009  1  0.30486350  0.16621450  0.39927300  1
  H  1010  1  0.19587450  0.09476700  0.36169250  1
  H  1011  1  0.23495750  0.14148750  0.33655900  1
  H  1012  1  0.23131000  0.20651400  0.38591700  1
  H  1013  1  0.24376450  0.19637350  0.42164800  1
  H  1014  1  0.26578500  0.10198350  0.40689950  1
  H  1015  1  0.25693250  0.17823900  0.45295550  1
  H  1016  1  0.26938750  0.15496450  0.47555300  1
  H  1019  1  0.34720750  0.17065900  0.37151350  1
  H  1020  1  0.34829000  0.18596550  0.40223950  1
  H  1022  1  0.15245050  0.05429650  0.33799600  1
  H  1023  1  0.15354750  0.02465950  0.32378400  1
  H  1025  1  0.22508050  0.16952350  0.31916000  1
  H  1026  1  0.24003600  0.20284850  0.34491950  1
  H  1028  1  0.27565600  0.09446100  0.44481200  1
  H  1029  1  0.26068250  0.10524900  0.46316550  1
  H  1054  1  0.72840000  0.38272950  0.20241950  1
  H  1055  1  0.74268050  0.41908150  0.19343600  1
  H  1056  1  0.75807450  0.45114600  0.17674650  1
  H  1057  1  0.77235950  0.47439200  0.15466350  1
  H  1058  1  0.76729650  0.40522200  0.10072550  1
  H  1059  1  0.73344050  0.33381800  0.13831350  1
  H  1060  1  0.80528950  0.39802950  0.16344100  1
  H  1061  1  0.82094950  0.34501250  0.11408600  1
  H  1062  1  0.77507700  0.32173550  0.07835550  1
  H  1063  1  0.69544650  0.35852600  0.09310250  1
  H  1064  1  0.72563750  0.30360500  0.04704850  1
  H  1065  1  0.67976850  0.29346950  0.02445000  1
  H  1068  1  0.79950500  0.47532450  0.12848450  1
  H  1069  1  0.78407800  0.44568150  0.09775650  1
  H  1071  1  0.71667050  0.31409250  0.16201300  1
  H  1072  1  0.70125050  0.32940500  0.17622950  1
  H  1074  1  0.85071950  0.40554100  0.18084250  1
  H  1075  1  0.85828550  0.39474150  0.15508400  1
  H  1077  1  0.65001250  0.33049150  0.05518900  1
  H  1078  1  0.64243950  0.29716050  0.03683600  1
  H  1183  1  0.31128850  0.16056400  0.52908450  1
  H  1190  1  0.37539950  0.12656400  0.62612050  1
  H  1191  1  0.29240600  0.08027450  0.59494850  1
  H  1192  1  0.30659450  0.08825850  0.48366700  1
  H  1193  1  0.28329150  0.08721150  0.55701500  1
  H  1194  1  0.31527900  0.08021250  0.52088550  1
  H  1202  1  0.33410050  0.08009000  0.63121050  1
  H  1204  1  0.31773300  0.13222300  0.47693000  1
  H  1211  1  0.18939950  0.21812000  0.34960450  1
  H  1218  1  0.12526850  0.25104500  0.25152650  1
  H  1219  1  0.20825350  0.30285900  0.28815950  1
  H  1220  1  0.19414350  0.17744150  0.28201500  1
  H  1221  1  0.21739250  0.27405250  0.30421900  1
  H  1222  1  0.18544950  0.20597250  0.26528700  1
  H  1230  1  0.16653050  0.29741750  0.24630000  1
  H  1232  1  0.18299350  0.15954200  0.31482350  1
  H  1239  1  0.86888650  0.33943150  0.15039800  1
  H  1246  1  0.99992100  0.37343100  0.24849400  1
  H  1247  1  0.01504750  0.41975600  0.21182450  1
  H  1248  1  0.89577250  0.41175000  0.21799250  1
  H  1249  1  0.97017300  0.41281350  0.19577050  1
  H  1250  1  0.94103750  0.41979800  0.23472950  1
  H  1258  1  0.05148950  0.41992350  0.25368900  1
  H  1260  1  0.84507000  0.36778650  0.18517150  1
  H  1267  1  0.63185300  0.28184400  0.97092200  1
  H  1274  1  0.50084000  0.24895050  0.87387450  1
  H  1275  1  0.48569000  0.19710250  0.90501450  1
  H  1276  1  0.60495700  0.32257350  0.01632250  1
  H  1277  1  0.53055750  0.22591300  0.94295950  1
  H  1278  1  0.55969650  0.29404100  0.97909950  1
  H  1286  1  0.44925850  0.20255350  0.86875500  1
  H  1288  1  0.65566250  0.34044550  0.02307200  1
  H  1295  1  0.78218550  0.47092100  0.63148650  1
  H  1302  1  0.74928750  0.37388900  0.50042650  1
  H  1303  1  0.69743450  0.40503750  0.48537000  1
  H  1304  1  0.82299500  0.51629450  0.60462050  1
  H  1305  1  0.72626650  0.44296650  0.53024400  1
  H  1306  1  0.79445450  0.47908000  0.55935450  1
  H  1314  1  0.70286500  0.36879950  0.44889350  1
  H  1316  1  0.84082450  0.52304250  0.65532100  1
  H  1323  1  0.83977250  0.65037500  0.86849550  1
  H  1330  1  0.87374250  0.74847300  0.99951950  1
  H  1331  1  0.92003150  0.71177250  0.01465800  1
  H  1332  1  0.91208500  0.71799250  0.89540650  1
  H  1333  1  0.91310850  0.69572200  0.96979250  1
  H  1334  1  0.92011850  0.73471350  0.94066600  1
  H  1342  1  0.92020550  0.75365250  0.05109600  1
  H  1344  1  0.86813400  0.68517100  0.84469800  1
  H  1351  1  0.71851150  0.84963550  0.18905600  1
  H  1358  1  0.75145800  0.75151300  0.12497900  1
  H  1359  1  0.80330100  0.78829100  0.20798000  1
  H  1360  1  0.67778450  0.78201500  0.19373550  1
  H  1361  1  0.77446900  0.80433350  0.21707650  1
  H  1362  1  0.70632850  0.76529350  0.18506400  1
  H  1370  1  0.79787550  0.74639300  0.16631050  1
  H  1372  1  0.65990800  0.81483900  0.18260200  1
  H  1379  1  0.66092500  0.02906800  0.31090100  1
  H  1386  1  0.62694750  0.12611450  0.37506900  1
  H  1387  1  0.58072050  0.09500650  0.29207900  1
  H  1388  1  0.58865850  0.98369500  0.30629350  1
  H  1389  1  0.58764100  0.05706150  0.28294950  1
  H  1390  1  0.58062000  0.02091800  0.31497600  1
  H  1398  1  0.58051500  0.13124950  0.33377550  1
  H  1400  1  0.63260850  0.97693900  0.31739250  1
  H  1407  1  0.15071850  0.36851850  0.83943900  1
  H  1414  1  0.24884950  0.49955600  0.87344050  1
  H  1415  1  0.21212700  0.51466100  0.91971300  1
  H  1416  1  0.21835600  0.39539450  0.91171750  1
  H  1417  1  0.19607700  0.46979000  0.91277400  1
  H  1418  1  0.23508800  0.44065900  0.91976500  1
  H  1426  1  0.25401150  0.55111350  0.91990900  1
  H  1428  1  0.18550750  0.34469300  0.86775750  1
  H  1435  1  0.97127650  0.13148150  0.78187900  1
  H  1442  1  0.87422400  0.00048450  0.74895550  1
  H  1443  1  0.90539600  0.98528950  0.69714550  1
  H  1444  1  0.01671000  0.10456900  0.82254700  1
  H  1445  1  0.94334200  0.03015600  0.72594800  1
  H  1446  1  0.97948350  0.05931000  0.79401750  1
  H  1454  1  0.86911300  0.94887900  0.70259200  1
  H  1456  1  0.02345550  0.15527550  0.84045300  1
  H  1463  1  0.52945150  0.81097200  0.66056650  1
  H  1470  1  0.62648600  0.87505400  0.62656800  1
  H  1471  1  0.59529000  0.79206150  0.58023850  1
  H  1472  1  0.48400900  0.80620750  0.58822650  1
  H  1473  1  0.55735650  0.78294600  0.58717650  1
  H  1474  1  0.52122750  0.81489450  0.58018200  1
  H  1482  1  0.63156650  0.83376150  0.58007600  1
  H  1484  1  0.47727250  0.81737050  0.63219300  1
  H  1491  1  0.35000200  0.68907700  0.71815000  1
  H  1498  1  0.25188950  0.62492000  0.75104850  1
  H  1499  1  0.28858000  0.70790700  0.80289200  1
  H  1500  1  0.28237200  0.69374150  0.67741850  1
  H  1501  1  0.30463650  0.71704300  0.77408250  1
  H  1502  1  0.26564750  0.68505150  0.70595500  1
  H  1510  1  0.24670000  0.66619500  0.79744300  1
  H  1512  1  0.31520650  0.68262100  0.65954650  1
  H  1519  1  0.68945350  0.83942550  0.47091200  1
  H  1526  1  0.62532000  0.87342900  0.37387200  1
  H  1527  1  0.70831900  0.91969450  0.40504250  1
  H  1528  1  0.69406900  0.91169050  0.51630350  1
  H  1529  1  0.71742450  0.91275150  0.44297300  1
  H  1530  1  0.68538850  0.91974000  0.47908750  1
  H  1538  1  0.66663250  0.91989750  0.36878800  1
  H  1540  1  0.68296750  0.86773400  0.52304750  1
  H  1547  1  0.81134400  0.78188700  0.65038500  1
  H  1554  1  0.87548150  0.74896900  0.74848550  1
  H  1555  1  0.79249200  0.69714500  0.71180900  1
  H  1556  1  0.80665450  0.82260200  0.71800150  1
  H  1557  1  0.78336450  0.72595850  0.69575400  1
  H  1558  1  0.81534700  0.79406900  0.73472900  1
  H  1566  1  0.83420200  0.70258550  0.75368350  1
  H  1568  1  0.81777600  0.84048050  0.68517250  1
  H  1575  1  0.13183800  0.66056650  0.84960250  1
  H  1582  1  0.00080250  0.62656100  0.75150550  1
  H  1583  1  0.98567800  0.58023500  0.78817500  1
  H  1584  1  0.10495500  0.58824650  0.78201150  1
  H  1585  1  0.03055200  0.58717850  0.80422750  1
  H  1586  1  0.05969000  0.58019650  0.76527550  1
  H  1594  1  0.94923450  0.58006650  0.74631100  1
  H  1596  1  0.15565600  0.63221250  0.81483150  1
  H  1603  1  0.36887700  0.71816000  0.02907500  1
  H  1610  1  0.49989600  0.75103550  0.12611550  1
  H  1611  1  0.51502600  0.80289600  0.09498600  1
  H  1612  1  0.39575900  0.67739400  0.98368600  1
  H  1613  1  0.47015950  0.77408450  0.05704400  1
  H  1614  1  0.44102250  0.70592750  0.02090600  1
  H  1622  1  0.55146900  0.79744700  0.13123800  1
  H  1624  1  0.34505550  0.65954300  0.97693650  1
  H  1631  1  0.21854900  0.52908650  0.36852150  1
  H  1638  1  0.25145100  0.62611450  0.49957650  1
  H  1639  1  0.30329350  0.59495700  0.51464850  1
  H  1640  1  0.17775700  0.48369900  0.39538900  1
  H  1641  1  0.27446650  0.55702950  0.46977400  1
  H  1642  1  0.20629550  0.52091350  0.44065600  1
  H  1650  1  0.29786250  0.63120000  0.55111750  1
  H  1652  1  0.15991850  0.47695700  0.34468950  1
  H  1659  1  0.16096450  0.34963400  0.13151050  1
  H  1666  1  0.12697650  0.25150800  0.00047650  1
  H  1667  1  0.08071850  0.28824150  0.98535800  1
  H  1668  1  0.08867200  0.28200050  0.10460950  1
  H  1669  1  0.08764650  0.30429300  0.03022550  1
  H  1670  1  0.08063600  0.26527800  0.05935000  1
  H  1678  1  0.08052200  0.24634650  0.94891050  1
  H  1680  1  0.13261900  0.31483800  0.15531800  1
  H  1687  1  0.28221100  0.15037250  0.81094750  1
  H  1694  1  0.24927200  0.24849200  0.87502400  1
  H  1695  1  0.19744950  0.21175350  0.79202500  1
  H  1696  1  0.32293350  0.21797800  0.80624350  1
  H  1697  1  0.22627500  0.19570350  0.78292350  1
  H  1698  1  0.29439600  0.23470750  0.81492050  1
  H  1706  1  0.20287300  0.25364100  0.83370300  1
  H  1708  1  0.34081050  0.18515700  0.81738650  1
  H  1715  1  0.33979600  0.97092700  0.68908700  1
  H  1722  1  0.37377900  0.87388550  0.62492050  1
  H  1723  1  0.42001200  0.90499850  0.70791050  1
  H  1724  1  0.41206500  0.01630600  0.69370000  1
  H  1725  1  0.41308850  0.94294250  0.71704000  1
  H  1726  1  0.42010450  0.97908400  0.68501450  1
  H  1734  1  0.42021450  0.86875400  0.66621350  1
  H  1736  1  0.36811550  0.02306200  0.68260250  1
  H  1743  1  0.85002600  0.63147850  0.16056450  1
  H  1750  1  0.75186850  0.50042800  0.12653750  1
  H  1751  1  0.78864100  0.48534900  0.08031200  1
  H  1752  1  0.78237350  0.60461050  0.08830500  1
  H  1753  1  0.80469150  0.53022350  0.08725600  1
  H  1754  1  0.76564350  0.55934450  0.08025200  1
  H  1762  1  0.74673800  0.44888400  0.08008700  1
  H  1764  1  0.81523000  0.65530900  0.13226400  1
  H  1771  1  0.02944750  0.86850600  0.21811650  1
  H  1778  1  0.12650150  0.99952950  0.25106000  1
  H  1779  1  0.09534700  0.01467900  0.30289400  1
  H  1780  1  0.98403600  0.89542800  0.17744100  1
  H  1781  1  0.05740250  0.96981300  0.27408150  1
  H  1782  1  0.02126250  0.94068750  0.20598400  1
  H  1790  1  0.13161350  0.05111100  0.29745050  1
  H  1792  1  0.97728550  0.84472100  0.15953350  1
  H  1799  1  0.47128250  0.18907550  0.33943600  1
  H  1806  1  0.37426400  0.12497800  0.37347200  1
  H  1807  1  0.40540450  0.20797500  0.41969350  1
  H  1808  1  0.51669250  0.19375500  0.41173450  1
  H  1809  1  0.44333700  0.21708350  0.41275350  1
  H  1810  1  0.47947650  0.18507850  0.41978300  1
  H  1818  1  0.36916400  0.16629850  0.41991750  1
  H  1820  1  0.52343400  0.18262300  0.36777500  1
  H  1827  1  0.65074550  0.31094050  0.28186800  1
  H  1834  1  0.74884950  0.37507700  0.24895450  1
  H  1835  1  0.71215200  0.29208900  0.19711000  1
  H  1836  1  0.71836700  0.30625600  0.32258500  1
  H  1837  1  0.69610000  0.28295650  0.22592350  1
  H  1838  1  0.73508950  0.31494200  0.29404550  1
  H  1846  1  0.75403250  0.33379800  0.20255650  1
  H  1848  1  0.68554400  0.31739000  0.34046700  1
  N  1195  1  0.32146650  0.15794100  0.57406350  1
  N  1196  1  0.37242250  0.13804400  0.58689650  1
  N  1201  1  0.34116600  0.10000300  0.63674700  1
  N  1203  1  0.30304750  0.13078200  0.48200050  1
  N  1223  1  0.17920650  0.25291450  0.33680500  1
  N  1224  1  0.12827400  0.21481450  0.26599850  1
  N  1229  1  0.15948200  0.29589200  0.25915900  1
  N  1231  1  0.19767150  0.17929900  0.32807250  1
  N  1251  1  0.91648850  0.34205600  0.16320550  1
  N  1252  1  0.94921500  0.36194350  0.23403350  1
  N  1257  1  0.03711250  0.40001050  0.24083600  1
  N  1259  1  0.85158250  0.36922000  0.17192550  1
  N  1279  1  0.58425600  0.24704350  0.92593850  1
  N  1280  1  0.55154000  0.28518800  0.91311300  1
  N  1285  1  0.46364100  0.20408700  0.86322700  1
  N  1287  1  0.64914950  0.32069000  0.01800250  1
  N  1307  1  0.74736950  0.42595050  0.58388100  1
  N  1308  1  0.78554900  0.41310950  0.55112950  1
  N  1313  1  0.70440600  0.36325700  0.46326800  1
  N  1315  1  0.82107100  0.51798450  0.64879950  1
  N  1335  1  0.84238100  0.66316450  0.91608950  1
  N  1336  1  0.86227950  0.73401750  0.94882000  1
  N  1341  1  0.90029500  0.74080350  0.03671350  1
  N  1343  1  0.86956700  0.67192300  0.85120700  1
  N  1363  1  0.75332450  0.83684500  0.17889250  1
  N  1364  1  0.71519650  0.76595300  0.12793750  1
  N  1369  1  0.79633550  0.75922600  0.15922850  1
  N  1371  1  0.67966350  0.82808600  0.19728850  1
  N  1391  1  0.65830950  0.07405000  0.32107250  1
  N  1392  1  0.63840100  0.08687150  0.37207250  1
  N  1397  1  0.60042800  0.13677800  0.34084900  1
  N  1399  1  0.63115450  0.98200000  0.30269950  1
  N  1419  1  0.16351950  0.41612100  0.84206650  1
  N  1420  1  0.23439550  0.44885100  0.86195850  1
  N  1425  1  0.24116800  0.53673850  0.89999650  1
  N  1427  1  0.17226950  0.35121050  0.86920900  1
  N  1447  1  0.92628950  0.08388750  0.74708800  1
  N  1448  1  0.91346100  0.05118750  0.78518250  1
  N  1453  1  0.86358950  0.96326350  0.70411300  1
  N  1455  1  0.01837450  0.14877100  0.82069550  1
  N  1475  1  0.57443200  0.82115800  0.65794800  1
  N  1476  1  0.58726400  0.87207650  0.63805150  1
  N  1481  1  0.63710000  0.84081950  0.59998750  1
  N  1483  1  0.48235400  0.80269450  0.63076750  1
  N  1503  1  0.33720850  0.67889450  0.75295200  1
  N  1504  1  0.26635150  0.62792150  0.71481000  1
  N  1509  1  0.25955200  0.65913700  0.79591100  1
  N  1511  1  0.32844900  0.69730800  0.67930200  1
  N  1531  1  0.67928600  0.84205500  0.42593700  1
  N  1532  1  0.62828900  0.86194500  0.41309300  1
  N  1537  1  0.65956200  0.89998450  0.36324950  1
  N  1539  1  0.69765900  0.86918950  0.51798450  1
  N  1559  1  0.82152900  0.74708700  0.66318100  1
  N  1560  1  0.87249000  0.78521000  0.73402300  1
  N  1565  1  0.84125950  0.70411400  0.74082950  1
  N  1567  1  0.80309600  0.82072350  0.67192850  1
  N  1587  1  0.08423600  0.65794050  0.83679350  1
  N  1588  1  0.05150950  0.63805050  0.76596800  1
  N  1593  1  0.96361150  0.59998000  0.75916350  1
  N  1595  1  0.14914500  0.63078000  0.82807800  1
  N  1615  1  0.41647700  0.75296500  0.07405300  1
  N  1616  1  0.44919550  0.71479350  0.08687700  1
  N  1621  1  0.53708550  0.79590800  0.13676650  1
  N  1623  1  0.35157350  0.67929750  0.98200100  1
  N  1643  1  0.25336000  0.57405650  0.41612750  1
  N  1644  1  0.21519300  0.58689500  0.44887200  1
  N  1649  1  0.29632550  0.63674250  0.53674400  1
  N  1651  1  0.17967350  0.48201800  0.35120950  1
  N  1671  1  0.15835150  0.33684300  0.08391250  1
  N  1672  1  0.13844250  0.26596150  0.05117800  1
  N  1677  1  0.10043500  0.25919150  0.96329150  1
  N  1679  1  0.13117800  0.32808050  0.14880250  1
  N  1699  1  0.24740900  0.16317400  0.82111800  1
  N  1700  1  0.28552650  0.23404050  0.87206100  1
  N  1705  1  0.20440850  0.24080100  0.84077850  1
  N  1707  1  0.32105400  0.17191000  0.80270300  1
  N  1727  1  0.34241500  0.92594700  0.67891400  1
  N  1728  1  0.36232200  0.91312650  0.62791550  1
  N  1733  1  0.40030250  0.86322450  0.65914100  1
  N  1735  1  0.36956800  0.01799750  0.69729350  1
  N  1755  1  0.83722900  0.58387250  0.15793050  1
  N  1756  1  0.76631800  0.55113250  0.13801950  1
  N  1761  1  0.75957400  0.46325800  0.10000200  1
  N  1763  1  0.82846700  0.64879200  0.13080600  1
  N  1783  1  0.07443400  0.91609850  0.25292350  1
  N  1784  1  0.08726300  0.94882850  0.21481850  1
  N  1789  1  0.13714050  0.03672800  0.29591850  1
  N  1791  1  0.98236050  0.85122300  0.17928950  1
  N  1811  1  0.42630550  0.17890650  0.34206100  1
  N  1812  1  0.41349050  0.12794700  0.36199650  1
  N  1817  1  0.36362400  0.15921700  0.40000200  1
  N  1819  1  0.51836550  0.19731050  0.36921600  1
  N  1839  1  0.66353550  0.32111800  0.24706250  1
  N  1840  1  0.73439050  0.37207950  0.28519600  1
  N  1845  1  0.74118350  0.34085950  0.20409100  1
  N  1847  1  0.67229800  0.30270400  0.32071200  1
  O  1197  1  0.38721750  0.12797950  0.58576200  1
  O  1198  1  0.30129650  0.16071750  0.57072600  1
  O  1199  1  0.34153800  0.18052500  0.58430900  1
  O  1200  1  0.38657700  0.16170450  0.60630650  1
  O  1225  1  0.11346600  0.19887200  0.24114200  1
  O  1226  1  0.19936800  0.26975000  0.35975600  1
  O  1227  1  0.15913050  0.24307300  0.33930650  1
  O  1228  1  0.11412800  0.22008000  0.27551400  1
  O  1253  1  0.95814000  0.37199850  0.25889150  1
  O  1254  1  0.91037600  0.33927350  0.14025650  1
  O  1255  1  0.90415000  0.31947350  0.16069750  1
  O  1256  1  0.94496850  0.33828450  0.22452100  1
  O  1281  1  0.54261750  0.30112400  0.91425650  1
  O  1282  1  0.59036750  0.23021050  0.92927700  1
  O  1283  1  0.59659800  0.25687050  0.91569550  1
  O  1284  1  0.55579250  0.27993800  0.89370350  1
  O  1309  1  0.80146750  0.41425100  0.54218350  1
  O  1310  1  0.73054450  0.42931400  0.58999050  1
  O  1311  1  0.75716700  0.41568850  0.59621750  1
  O  1312  1  0.78031000  0.39369750  0.55537650  1
  O  1337  1  0.87234600  0.75887600  0.95774600  1
  O  1338  1  0.83960200  0.64021650  0.90997250  1
  O  1339  1  0.81979950  0.66065600  0.90374850  1
  O  1340  1  0.83861900  0.72451650  0.94456950  1
  O  1365  1  0.69927700  0.74108850  0.11315850  1
  O  1366  1  0.77015050  0.85979100  0.19906350  1
  O  1367  1  0.74350150  0.83935550  0.15881800  1
  O  1368  1  0.72043900  0.77544050  0.11376550  1
  O  1393  1  0.62831850  0.08572250  0.38685100  1
  O  1394  1  0.66106950  0.07069750  0.30089100  1
  O  1395  1  0.68090000  0.08429950  0.34113750  1
  O  1396  1  0.66206300  0.10628000  0.38624600  1
  O  1421  1  0.25925500  0.45778400  0.87202700  1
  O  1422  1  0.14057750  0.41001200  0.83930350  1
  O  1423  1  0.16099450  0.40378200  0.81947550  1
  O  1424  1  0.22489200  0.44460400  0.83829800  1
  O  1449  1  0.91459500  0.04227650  0.80112750  1
  O  1450  1  0.92961100  0.09000300  0.73025100  1
  O  1451  1  0.91605750  0.09623000  0.75693350  1
  O  1452  1  0.89404950  0.05543750  0.77991400  1
  O  1477  1  0.58613500  0.88688000  0.62799800  1
  O  1478  1  0.57110800  0.80099800  0.66074000  1
  O  1479  1  0.58467150  0.84123850  0.68052500  1
  O  1480  1  0.60667750  0.88622350  0.66171100  1
  O  1505  1  0.24149300  0.61312650  0.69887350  1
  O  1506  1  0.36015350  0.69906750  0.76978400  1
  O  1507  1  0.33972550  0.65882550  0.74312500  1
  O  1508  1  0.27585600  0.61376400  0.72006200  1
  O  1533  1  0.61349950  0.87201500  0.41422850  1
  O  1534  1  0.69946900  0.83929850  0.42928950  1
  O  1535  1  0.65922250  0.81946100  0.41568150  1
  O  1536  1  0.61413100  0.83828600  0.39368200  1
  O  1561  1  0.88728800  0.80114550  0.75888150  1
  O  1562  1  0.80136000  0.73025500  0.64023600  1
  O  1563  1  0.84160050  0.75691700  0.66066750  1
  O  1564  1  0.88664250  0.77995050  0.72451600  1
  O  1589  1  0.04258450  0.62799650  0.74111000  1
  O  1590  1  0.09034800  0.66072300  0.85974300  1
  O  1591  1  0.09657250  0.68052100  0.83929950  1
  O  1592  1  0.05575450  0.66171050  0.77548100  1
  O  1617  1  0.45812400  0.69886200  0.08573200  1
  O  1618  1  0.41036850  0.76979500  0.07070550  1
  O  1619  1  0.40413700  0.74315000  0.08430400  1
  O  1620  1  0.44494500  0.72003800  0.10628700  1
  O  1645  1  0.19927200  0.58575500  0.45781300  1
  O  1646  1  0.27018800  0.57070050  0.41001750  1
  O  1647  1  0.24355750  0.58431700  0.40379150  1
  O  1648  1  0.22044000  0.60630900  0.44462600  1
  O  1673  1  0.12836700  0.24110200  0.04224800  1
  O  1674  1  0.16112050  0.35978600  0.09002650  1
  O  1675  1  0.18093700  0.33935850  0.09625250  1
  O  1676  1  0.16210250  0.27545550  0.05542600  1
  O  1701  1  0.30145100  0.25890150  0.88684850  1
  O  1702  1  0.23057700  0.14022500  0.80095000  1
  O  1703  1  0.25723300  0.16066600  0.84119300  1
  O  1704  1  0.28027250  0.22454400  0.88622450  1
  O  1729  1  0.37240250  0.91427450  0.61313500  1
  O  1730  1  0.33965400  0.92929700  0.69909400  1
  O  1731  1  0.31982400  0.91569650  0.65884950  1
  O  1732  1  0.33865900  0.89371700  0.61374300  1
  O  1757  1  0.74145600  0.54219250  0.12793650  1
  O  1758  1  0.86016750  0.58998200  0.16068750  1
  O  1759  1  0.83975850  0.59620900  0.18052450  1
  O  1760  1  0.77580900  0.55538000  0.16168000  1
  O  1785  1  0.08612250  0.95775150  0.19888300  1
  O  1786  1  0.07110200  0.90997650  0.26975250  1
  O  1787  1  0.08467200  0.90375950  0.24308150  1
  O  1788  1  0.10667350  0.94457850  0.22007300  1
  O  1813  1  0.41463400  0.11317050  0.37208250  1
  O  1814  1  0.42964750  0.19907700  0.33928650  1
  O  1815  1  0.41605650  0.15883300  0.31947650  1
  O  1816  1  0.39407750  0.11377450  0.33833600  1
  O  1841  1  0.75924900  0.38687200  0.30112900  1
  O  1842  1  0.64058900  0.30094800  0.23023200  1
  O  1843  1  0.66102450  0.34119000  0.25689250  1
  O  1844  1  0.72488900  0.38623900  0.27994500  1
