# generated using pymatgen
data_H14C19(N2O3)2
_symmetry_space_group_name_H-M   'P 1'
_cell_length_a   65.47714969
_cell_length_b   65.47714969
_cell_length_c   65.47714969
_cell_angle_alpha   109.47122063
_cell_angle_beta   109.47122063
_cell_angle_gamma   109.47122063
_symmetry_Int_Tables_number   1
_chemical_formula_structural   H14C19(N2O3)2
_chemical_formula_sum   'H672 C912 N192 O288'
_cell_volume   216096.33755129
_cell_formula_units_Z   48
loop_
 _symmetry_equiv_pos_site_id
 _symmetry_equiv_pos_as_xyz
  1  'x, y, z'
loop_
 _atom_site_type_symbol
 _atom_site_label
 _atom_site_symmetry_multiplicity
 _atom_site_fract_x
 _atom_site_fract_y
 _atom_site_fract_z
 _atom_site_occupancy
  C  1  1  0.43725350  0.19890900  0.42622750  1
  C  2  1  0.43747400  0.17554150  0.40937950  1
  C  3  1  0.42101600  0.20579550  0.40921550  1
  C  4  1  0.43165100  0.21194950  0.39245550  1
  C  7  1  0.43173450  0.18813850  0.37602100  1
  C  8  1  0.44821500  0.18073150  0.39245150  1
  C  13  1  0.47560600  0.20365100  0.40928300  1
  C  14  1  0.47634300  0.22752050  0.42629850  1
  C  17  1  0.45931700  0.23407050  0.40945150  1
  C  20  1  0.46493000  0.22135000  0.44256300  1
  C  23  1  0.42693450  0.19339350  0.44225400  1
  C  24  1  0.50268650  0.24906950  0.44239100  1
  C  25  1  0.41584050  0.21905100  0.37695850  1
  C  26  1  0.44855850  0.15815650  0.37694700  1
  C  31  1  0.05011750  0.98272150  0.25520400  1
  C  32  1  0.04994950  0.96574100  0.23161150  1
  C  33  1  0.06636850  0.98192300  0.27830350  1
  C  34  1  0.05578450  0.95450650  0.27376300  1
  C  37  1  0.05575350  0.93807700  0.24986550  1
  C  38  1  0.03926250  0.93805450  0.22600200  1
  C  43  1  0.01185850  0.92740650  0.22149500  1
  C  44  1  0.01106850  0.94359700  0.24462950  1
  C  47  1  0.02810750  0.94375800  0.26818550  1
  C  50  1  0.02243150  0.97129900  0.24993350  1
  C  53  1  0.06039050  0.00908800  0.26006750  1
  C  54  1  0.98471200  0.93326700  0.23979700  1
  C  55  1  0.07160650  0.95479400  0.29665350  1
  C  56  1  0.03896700  0.92229000  0.20308400  1
  C  61  1  0.72114050  0.30119350  0.24473200  1
  C  62  1  0.72764100  0.32459400  0.26827200  1
  C  63  1  0.69724500  0.29426200  0.22157200  1
  C  64  1  0.67432350  0.28813600  0.22604050  1
  C  67  1  0.68167950  0.31197850  0.24989100  1
  C  68  1  0.70551550  0.31943350  0.27381100  1
  C  73  1  0.69943150  0.29655300  0.27834550  1
  C  74  1  0.69259350  0.27265250  0.25525800  1
  C  77  1  0.66920200  0.26605550  0.23164550  1
  C  80  1  0.71503800  0.27879300  0.25002900  1
  C  83  1  0.74269200  0.30667800  0.23994300  1
  C  84  1  0.68713750  0.25114150  0.26010900  1
  C  85  1  0.65172850  0.28098800  0.20309850  1
  C  86  1  0.71257000  0.34203550  0.29669150  1
  C  91  1  0.76643050  0.51738400  0.07377050  1
  C  92  1  0.75984100  0.53436950  0.09060550  1
  C  93  1  0.79037400  0.51822850  0.09079350  1
  C  94  1  0.81322600  0.54565750  0.10756650  1
  C  97  1  0.80578200  0.56209400  0.12399200  1
  C  98  1  0.78189550  0.56206850  0.10754800  1
  C  103  1  0.78794600  0.57267500  0.09073200  1
  C  104  1  0.79486600  0.55647700  0.07372600  1
  C  107  1  0.81831150  0.55636600  0.09058350  1
  C  110  1  0.77249350  0.52876550  0.05744800  1
  C  113  1  0.74494650  0.49100800  0.05773050  1
  C  114  1  0.80027850  0.56676600  0.05764450  1
  C  115  1  0.83587100  0.54541450  0.12307550  1
  C  116  1  0.77475650  0.57783600  0.12303650  1
  C  121  1  0.01106650  0.57375400  0.77272450  1
  C  122  1  0.02810600  0.59063400  0.76620800  1
  C  123  1  0.01185550  0.59073450  0.79664800  1
  C  124  1  0.03925950  0.60749100  0.81954550  1
  C  127  1  0.05575000  0.62395900  0.81217400  1
  C  128  1  0.05578400  0.60756150  0.78830850  1
  C  133  1  0.06636600  0.59072750  0.79435050  1
  C  134  1  0.05011550  0.57367900  0.80120050  1
  C  137  1  0.04994600  0.59049100  0.82462300  1
  C  140  1  0.02242850  0.55741600  0.77878250  1
  C  143  1  0.98471050  0.55772850  0.75120000  1
  C  144  1  0.06038850  0.55758600  0.80660950  1
  C  145  1  0.03896350  0.62295850  0.84216900  1
  C  146  1  0.07160500  0.62309500  0.78124100  1
  C  151  1  0.79487050  0.74467350  0.72742700  1
  C  152  1  0.81831550  0.76822900  0.73401450  1
  C  153  1  0.78795100  0.72155600  0.70350000  1
  C  154  1  0.78190150  0.72611300  0.68063450  1
  C  157  1  0.80578750  0.74997250  0.68807800  1
  C  158  1  0.81323350  0.77385450  0.71194800  1
  C  163  1  0.79038050  0.77843100  0.70586750  1
  C  164  1  0.76643650  0.75533250  0.69894700  1
  C  167  1  0.75984600  0.73175700  0.67552200  1
  C  170  1  0.77249900  0.75001350  0.72133250  1
  C  173  1  0.80028200  0.73979700  0.74892000  1
  C  174  1  0.74495350  0.76022550  0.69350300  1
  C  175  1  0.77476050  0.70320600  0.65800650  1
  C  176  1  0.83587800  0.79674000  0.71908400  1
  C  181  1  0.47634000  0.75509800  0.05632600  1
  C  182  1  0.45931100  0.73152200  0.05614400  1
  C  183  1  0.47560750  0.77823450  0.07260900  1
  C  184  1  0.44821850  0.77376600  0.06205150  1
  C  187  1  0.43173450  0.74987800  0.06199950  1
  C  188  1  0.43164650  0.72598150  0.04547700  1
  C  193  1  0.42101150  0.72150400  0.01808350  1
  C  194  1  0.43725250  0.74462950  0.01731300  1
  C  197  1  0.43747700  0.76821750  0.03438350  1
  C  200  1  0.46492750  0.74985900  0.02865050  1
  C  203  1  0.50268100  0.75988800  0.06657300  1
  C  204  1  0.42693150  0.73982750  0.99096600  1
  C  205  1  0.44856700  0.79668550  0.07790350  1
  C  206  1  0.41583350  0.70307100  0.04516350  1
  C  211  1  0.69258850  0.92622800  0.44361750  1
  C  212  1  0.66920050  0.90943500  0.44384450  1
  C  213  1  0.69942300  0.90916300  0.42736400  1
  C  214  1  0.70551000  0.89236950  0.43798350  1
  C  217  1  0.68167850  0.87598900  0.43807450  1
  C  218  1  0.67432500  0.89247750  0.45457250  1
  C  223  1  0.69725150  0.90927450  0.48195900  1
  C  224  1  0.72114300  0.92623700  0.48268900  1
  C  227  1  0.72763950  0.90933500  0.46564650  1
  C  230  1  0.71503750  0.94253250  0.47128800  1
  C  233  1  0.68712850  0.94228050  0.43330900  1
  C  234  1  0.74270050  0.94230600  0.50902750  1
  C  235  1  0.71256100  0.87681800  0.42215400  1
  C  236  1  0.65173350  0.87703200  0.45492350  1
  C  241  1  0.23835700  0.22737350  0.80111350  1
  C  242  1  0.26190450  0.23386300  0.82449950  1
  C  243  1  0.21520200  0.20347450  0.79417950  1
  C  244  1  0.21966500  0.18054850  0.78802750  1
  C  247  1  0.24352250  0.18789500  0.81185750  1
  C  248  1  0.26744000  0.21173350  0.81931450  1
  C  253  1  0.27196400  0.20566500  0.79642900  1
  C  254  1  0.24886950  0.19883950  0.77254000  1
  C  257  1  0.22525900  0.17544150  0.76593850  1
  C  260  1  0.24364350  0.22128450  0.77870500  1
  C  263  1  0.23356750  0.24892450  0.80661700  1
  C  264  1  0.25371300  0.19340200  0.75102400  1
  C  265  1  0.19672600  0.15795000  0.78087800  1
  C  266  1  0.29032450  0.21877550  0.84190700  1
  C  271  1  0.06742000  0.27262300  0.01729700  1
  C  272  1  0.08426350  0.26603350  0.03427500  1
  C  273  1  0.08443350  0.29655600  0.01812250  1
  C  274  1  0.10122800  0.31941850  0.04554750  1
  C  277  1  0.11766100  0.31197450  0.06197450  1
  C  278  1  0.10122850  0.28809700  0.06196850  1
  C  283  1  0.08443450  0.29416450  0.07260000  1
  C  284  1  0.06741900  0.30108300  0.05641100  1
  C  287  1  0.08426400  0.32451700  0.05627600  1
  C  290  1  0.05111750  0.27870200  0.02870250  1
  C  293  1  0.05136150  0.25113300  0.99092250  1
  C  294  1  0.05136100  0.30651500  0.06672600  1
  C  295  1  0.11673200  0.34205500  0.04529100  1
  C  296  1  0.11673150  0.28096500  0.07772950  1
  C  301  1  0.42000700  0.94363550  0.69883950  1
  C  302  1  0.40315600  0.94385400  0.67547500  1
  C  303  1  0.40299600  0.92735450  0.70569750  1
  C  304  1  0.38619700  0.93793900  0.71183500  1
  C  307  1  0.36976400  0.93802650  0.68802650  1
  C  308  1  0.38619300  0.95454800  0.68064900  1
  C  313  1  0.40298800  0.98193100  0.70358300  1
  C  314  1  0.42000350  0.98266700  0.72745250  1
  C  317  1  0.40315900  0.96559850  0.73397150  1
  C  320  1  0.43630600  0.97130300  0.72129700  1
  C  323  1  0.43606500  0.93336050  0.69333150  1
  C  324  1  0.43605950  0.00900150  0.74901600  1
  C  325  1  0.37069800  0.92208900  0.71890500  1
  C  326  1  0.37068900  0.95489500  0.65807900  1
  C  331  1  0.24886700  0.55631200  0.48261000  1
  C  332  1  0.22525750  0.55610100  0.46560350  1
  C  333  1  0.27196050  0.57258050  0.48181500  1
  C  334  1  0.26743600  0.56198800  0.45440500  1
  C  337  1  0.24351650  0.56190900  0.43794450  1
  C  338  1  0.21966150  0.54539950  0.43792000  1
  C  343  1  0.21519600  0.51801050  0.42730350  1
  C  344  1  0.23835200  0.51726650  0.44352450  1
  C  347  1  0.26189900  0.53432300  0.44368400  1
  C  350  1  0.24364000  0.52864050  0.47121850  1
  C  353  1  0.25371250  0.56659400  0.50897050  1
  C  354  1  0.23356000  0.49092400  0.43323000  1
  C  355  1  0.29031950  0.57782900  0.45469550  1
  C  356  1  0.19672300  0.54506000  0.42213200  1
  C  721  1  0.55017800  0.80109050  0.57377450  1
  C  722  1  0.54995350  0.82445500  0.59062150  1
  C  723  1  0.56641750  0.79420650  0.59078700  1
  C  724  1  0.55578350  0.78804850  0.60754600  1
  C  727  1  0.55569450  0.81185700  0.62397950  1
  C  728  1  0.53921100  0.81926150  0.60754850  1
  C  733  1  0.51182250  0.79634000  0.59071550  1
  C  734  1  0.51109050  0.77247200  0.57370050  1
  C  737  1  0.52811900  0.76592450  0.59054750  1
  C  740  1  0.52250350  0.77864550  0.55743700  1
  C  743  1  0.56049750  0.80660900  0.55774950  1
  C  744  1  0.48474850  0.75092050  0.55760600  1
  C  745  1  0.57159600  0.78094950  0.62304350  1
  C  746  1  0.53886300  0.84183150  0.62305150  1
  C  751  1  0.93731550  0.01727850  0.74480100  1
  C  752  1  0.93748450  0.03426050  0.76839400  1
  C  753  1  0.92106450  0.01807700  0.72170150  1
  C  754  1  0.93164750  0.04549300  0.72624150  1
  C  757  1  0.93168000  0.06192250  0.75013950  1
  C  758  1  0.94817100  0.06194600  0.77400200  1
  C  763  1  0.97557450  0.07259450  0.77850900  1
  C  764  1  0.97636350  0.05640250  0.75537400  1
  C  767  1  0.95932350  0.05624250  0.73181700  1
  C  770  1  0.96500200  0.02870250  0.75007050  1
  C  773  1  0.92704200  0.99091150  0.73993650  1
  C  774  1  0.00272000  0.06673300  0.76020500  1
  C  775  1  0.91582500  0.04520550  0.70335150  1
  C  776  1  0.94846600  0.07771000  0.79692100  1
  C  781  1  0.26628750  0.69880950  0.75526300  1
  C  782  1  0.25979000  0.67540950  0.73172350  1
  C  783  1  0.29018000  0.70573800  0.77842300  1
  C  784  1  0.31310500  0.71186650  0.77396150  1
  C  787  1  0.30575150  0.68802450  0.75011100  1
  C  788  1  0.28191950  0.68057250  0.72618900  1
  C  793  1  0.28800500  0.70345250  0.72165650  1
  C  794  1  0.29484000  0.72735400  0.74474400  1
  C  797  1  0.31822900  0.73394850  0.76835750  1
  C  800  1  0.27239200  0.72121000  0.74996700  1
  C  803  1  0.24473100  0.69332150  0.76004550  1
  C  804  1  0.30029900  0.74886400  0.73989400  1
  C  805  1  0.33569800  0.71901450  0.79690450  1
  C  806  1  0.27486650  0.65797050  0.70330800  1
  C  811  1  0.22099450  0.48261150  0.92622600  1
  C  812  1  0.22758450  0.46562650  0.90939100  1
  C  813  1  0.19704900  0.48176500  0.90920200  1
  C  814  1  0.17419750  0.45433600  0.89242850  1
  C  817  1  0.18164200  0.43790150  0.87600450  1
  C  818  1  0.20552900  0.43792650  0.89244850  1
  C  823  1  0.19948000  0.42732150  0.90926550  1
  C  824  1  0.19256000  0.44351850  0.92627050  1
  C  827  1  0.16911450  0.44362950  0.90941400  1
  C  830  1  0.21493150  0.47122850  0.94254800  1
  C  833  1  0.24247750  0.50898800  0.94226550  1
  C  834  1  0.18714700  0.43322950  0.94235250  1
  C  835  1  0.15155250  0.45457800  0.87692050  1
  C  836  1  0.21266800  0.42216000  0.87696000  1
  C  841  1  0.97636100  0.42624400  0.22727600  1
  C  842  1  0.95932300  0.40936550  0.23379350  1
  C  843  1  0.97557200  0.40926350  0.20335150  1
  C  844  1  0.94816700  0.39250650  0.18045450  1
  C  847  1  0.93167600  0.37603900  0.18782700  1
  C  848  1  0.93164450  0.39243700  0.21169250  1
  C  853  1  0.92106200  0.40927000  0.20565000  1
  C  854  1  0.93731150  0.42631900  0.19880050  1
  C  857  1  0.93748100  0.40950700  0.17537800  1
  C  860  1  0.96499800  0.44258150  0.22121650  1
  C  863  1  0.00271700  0.44227050  0.24879950  1
  C  864  1  0.92703800  0.44241200  0.19339200  1
  C  865  1  0.94846200  0.37703850  0.15783150  1
  C  866  1  0.91582300  0.37690250  0.21876150  1
  C  871  1  0.19256400  0.25532650  0.27257550  1
  C  872  1  0.16911950  0.23177000  0.26598750  1
  C  873  1  0.19948350  0.27844400  0.29650150  1
  C  874  1  0.20553450  0.27388850  0.31936700  1
  C  877  1  0.18164800  0.25002700  0.31192500  1
  C  878  1  0.17420200  0.22614650  0.28805550  1
  C  883  1  0.19705550  0.22157000  0.29413450  1
  C  884  1  0.22099950  0.24466850  0.30105500  1
  C  887  1  0.22758900  0.26824500  0.32448000  1
  C  890  1  0.21493700  0.24998850  0.27866950  1
  C  893  1  0.18715150  0.26020200  0.25108050  1
  C  894  1  0.24248400  0.23977650  0.30649950  1
  C  895  1  0.21267300  0.29679350  0.34199450  1
  C  896  1  0.15155850  0.20325850  0.28091900  1
  C  901  1  0.51108700  0.24489250  0.94367050  1
  C  902  1  0.52811350  0.26847050  0.94385100  1
  C  903  1  0.51182500  0.22175950  0.92739250  1
  C  904  1  0.53921500  0.22623100  0.93795200  1
  C  907  1  0.55569600  0.25011900  0.93800200  1
  C  908  1  0.55577950  0.27401450  0.95452000  1
  C  913  1  0.56641350  0.27849450  0.98191400  1
  C  914  1  0.55017650  0.25536950  0.98268900  1
  C  917  1  0.54995600  0.23178350  0.96562150  1
  C  920  1  0.52250000  0.25013550  0.97134850  1
  C  923  1  0.48474400  0.24009850  0.93342050  1
  C  924  1  0.56049650  0.26017500  0.00903550  1
  C  925  1  0.53887150  0.20331400  0.92210450  1
  C  926  1  0.57159000  0.29692550  0.95483350  1
  C  931  1  0.29483600  0.07377500  0.55638000  1
  C  932  1  0.31822800  0.09056900  0.55615900  1
  C  933  1  0.28799700  0.09083650  0.57262850  1
  C  934  1  0.28191400  0.10763300  0.56201000  1
  C  937  1  0.30575000  0.12401500  0.56192600  1
  C  938  1  0.31310600  0.10752800  0.54543100  1
  C  943  1  0.29018400  0.09073300  0.51804200  1
  C  944  1  0.26628950  0.07376800  0.51730650  1
  C  947  1  0.25978850  0.09066800  0.53434450  1
  C  950  1  0.27239250  0.05747050  0.52870600  1
  C  953  1  0.30029250  0.05772000  0.56668650  1
  C  954  1  0.24473700  0.05770150  0.49096550  1
  C  955  1  0.27485950  0.12318150  0.57783600  1
  C  956  1  0.33570150  0.12297450  0.54508500  1
  C  961  1  0.74907700  0.77262800  0.19888600  1
  C  962  1  0.72553100  0.76613850  0.17549850  1
  C  963  1  0.77223300  0.79652800  0.20582000  1
  C  964  1  0.76776700  0.81945200  0.21197200  1
  C  967  1  0.74391250  0.81210700  0.18814150  1
  C  968  1  0.71999350  0.78826650  0.18068300  1
  C  973  1  0.71546850  0.79433450  0.20356800  1
  C  974  1  0.73856200  0.80115900  0.22745700  1
  C  977  1  0.76217200  0.82455750  0.23405950  1
  C  980  1  0.74378900  0.77871450  0.22129250  1
  C  983  1  0.75386800  0.75107750  0.19338350  1
  C  984  1  0.73371650  0.80659600  0.24897150  1
  C  985  1  0.79070700  0.84205200  0.21912300  1
  C  986  1  0.69710950  0.78122450  0.15809000  1
  C  991  1  0.92001150  0.72737950  0.98270600  1
  C  992  1  0.90316600  0.73396750  0.96572650  1
  C  993  1  0.90299600  0.70344500  0.98188000  1
  C  994  1  0.88620200  0.68058450  0.95445550  1
  C  997  1  0.86976900  0.68802850  0.93802850  1
  C  998  1  0.88620200  0.71190400  0.93803400  1
  C  1003  1  0.90299500  0.70583650  0.92740250  1
  C  1004  1  0.92001150  0.69891900  0.94359350  1
  C  1007  1  0.90316600  0.67548400  0.94372600  1
  C  1010  1  0.93631250  0.72129900  0.97129950  1
  C  1013  1  0.93606950  0.74886950  0.00908100  1
  C  1014  1  0.93606850  0.69348600  0.93327650  1
  C  1015  1  0.87069800  0.65794750  0.95471250  1
  C  1016  1  0.87069800  0.71903700  0.92227300  1
  C  1021  1  0.56742600  0.05637750  0.30116250  1
  C  1022  1  0.58427150  0.05615600  0.32452750  1
  C  1023  1  0.58444100  0.07265650  0.29430650  1
  C  1024  1  0.60123700  0.06206950  0.28817050  1
  C  1027  1  0.61766700  0.06197800  0.31197900  1
  C  1028  1  0.60123250  0.04545700  0.31935350  1
  C  1033  1  0.58443550  0.01807450  0.29641900  1
  C  1034  1  0.56742400  0.01734150  0.27254850  1
  C  1037  1  0.58427450  0.03441050  0.26603400  1
  C  1040  1  0.55112350  0.02870950  0.27870400  1
  C  1043  1  0.55136950  0.06665600  0.30666950  1
  C  1044  1  0.55136650  0.99100850  0.25098400  1
  C  1045  1  0.61674050  0.07791800  0.28110250  1
  C  1046  1  0.61673350  0.04510900  0.34192450  1
  C  1051  1  0.73856000  0.44368400  0.51738500  1
  C  1052  1  0.76216950  0.44389700  0.53439450  1
  C  1053  1  0.71546600  0.42741600  0.51817900  1
  C  1054  1  0.71998900  0.43800800  0.54559000  1
  C  1057  1  0.74390900  0.43808800  0.56205100  1
  C  1058  1  0.76776500  0.45459900  0.56207700  1
  C  1063  1  0.77222650  0.48198600  0.57269150  1
  C  1064  1  0.74907200  0.48273100  0.55647000  1
  C  1067  1  0.72552450  0.46567300  0.55630950  1
  C  1070  1  0.74378600  0.47135650  0.52877750  1
  C  1073  1  0.73371650  0.43340300  0.49102650  1
  C  1074  1  0.75386200  0.50907250  0.56676450  1
  C  1075  1  0.69710500  0.42216650  0.54529650  1
  C  1076  1  0.79070300  0.45493900  0.57786700  1
  C  1441  1  0.47409950  0.13824200  0.37752750  1
  C  1442  1  0.47977750  0.14172650  0.35950200  1
  C  1443  1  0.49469800  0.13320650  0.35263950  1
  C  1444  1  0.50513800  0.12169450  0.36423350  1
  C  1445  1  0.49957850  0.11772450  0.38220800  1
  C  1446  1  0.48408300  0.12606750  0.38856650  1
  C  1448  1  0.52072550  0.11421850  0.35706200  1
  C  1449  1  0.54302400  0.13165050  0.36011250  1
  C  1450  1  0.55623050  0.12263550  0.34995800  1
  C  1451  1  0.54758050  0.09677150  0.33673700  1
  C  1452  1  0.52620950  0.07994300  0.33532650  1
  C  1453  1  0.51266750  0.08845700  0.34491350  1
  C  1469  1  0.01326300  0.89725600  0.15768400  1
  C  1470  1  0.00752450  0.87359050  0.15562500  1
  C  1471  1  0.99258200  0.85173950  0.13224050  1
  C  1472  1  0.98216050  0.85278650  0.11021700  1
  C  1473  1  0.98777450  0.87628100  0.11168150  1
  C  1474  1  0.00332100  0.89820800  0.13546100  1
  C  1476  1  0.96662750  0.82997100  0.08720650  1
  C  1477  1  0.94432700  0.81073000  0.08234500  1
  C  1478  1  0.93116350  0.78733500  0.06017050  1
  C  1479  1  0.93985850  0.78271750  0.04300000  1
  C  1480  1  0.96123450  0.80266500  0.04753450  1
  C  1481  1  0.97473700  0.82582350  0.06954750  1
  C  1497  1  0.73301400  0.36194750  0.34214550  1
  C  1498  1  0.71148050  0.35841150  0.34430700  1
  C  1499  1  0.71310300  0.36689650  0.36773350  1
  C  1500  1  0.73619950  0.37842700  0.38970250  1
  C  1501  1  0.75816600  0.38244550  0.38814450  1
  C  1502  1  0.75621450  0.37413750  0.36432200  1
  C  1504  1  0.73647900  0.38588700  0.41275300  1
  C  1505  1  0.72211050  0.36844000  0.41761550  1
  C  1506  1  0.72098000  0.37743900  0.43984400  1
  C  1507  1  0.73361800  0.40329900  0.45706900  1
  C  1508  1  0.74901400  0.42014350  0.45252350  1
  C  1509  1  0.75007650  0.41164550  0.43046000  1
  C  1525  1  0.75429800  0.60279300  0.12239300  1
  C  1526  1  0.77586750  0.62648100  0.14033350  1
  C  1527  1  0.77427600  0.64830050  0.14721650  1
  C  1528  1  0.75118300  0.64719950  0.13570750  1
  C  1529  1  0.72918550  0.62367950  0.11782300  1
  C  1530  1  0.73109500  0.60178450  0.11147150  1
  C  1532  1  0.75093500  0.66998800  0.14292900  1
  C  1533  1  0.76529750  0.68921900  0.13984550  1
  C  1534  1  0.76646800  0.71259400  0.15001800  1
  C  1535  1  0.75388350  0.71720300  0.16329750  1
  C  1536  1  0.73847950  0.69725950  0.16473800  1
  C  1537  1  0.73738300  0.67412050  0.15513850  1
  C  1553  1  0.09656750  0.62254700  0.76074550  1
  C  1554  1  0.12027000  0.64057000  0.78226200  1
  C  1555  1  0.14206000  0.64742350  0.78061850  1
  C  1556  1  0.14091800  0.63582400  0.75751900  1
  C  1557  1  0.11738650  0.61785550  0.73556700  1
  C  1558  1  0.09552550  0.61150850  0.73753900  1
  C  1560  1  0.16368250  0.64298500  0.75722650  1
  C  1561  1  0.18292500  0.63993950  0.77162650  1
  C  1562  1  0.20628950  0.65007950  0.77276900  1
  C  1563  1  0.21086900  0.66327750  0.76010850  1
  C  1564  1  0.19091350  0.66468100  0.74467250  1
  C  1565  1  0.16778350  0.65511250  0.74360000  1
  C  1581  1  0.85566950  0.84215300  0.73950150  1
  C  1582  1  0.85199400  0.84423950  0.71790850  1
  C  1583  1  0.86045250  0.86763750  0.71947100  1
  C  1584  1  0.87206750  0.88964800  0.74255850  1
  C  1585  1  0.87621850  0.88815650  0.76457500  1
  C  1586  1  0.86797400  0.86436500  0.76269500  1
  C  1588  1  0.87953650  0.91267200  0.74278250  1
  C  1589  1  0.86208400  0.91755100  0.72844600  1
  C  1590  1  0.87108100  0.93975800  0.72727800  1
  C  1591  1  0.89694500  0.95694400  0.73984100  1
  C  1592  1  0.91379850  0.95238500  0.75520650  1
  C  1593  1  0.90530200  0.93034100  0.75630100  1
  C  1609  1  0.39078300  0.65765000  0.01951400  1
  C  1610  1  0.36710550  0.65554400  0.01379750  1
  C  1611  1  0.34527200  0.63214550  0.99883550  1
  C  1612  1  0.34634900  0.61014450  0.98838750  1
  C  1613  1  0.36985350  0.61164850  0.99396700  1
  C  1614  1  0.39175800  0.63544750  0.00950350  1
  C  1616  1  0.32355150  0.58711950  0.97282500  1
  C  1617  1  0.30430150  0.58227550  0.95054300  1
  C  1618  1  0.28091150  0.56009400  0.93737050  1
  C  1619  1  0.27631300  0.54289450  0.94603450  1
  C  1620  1  0.29627200  0.54741400  0.96739200  1
  C  1621  1  0.31942650  0.56943450  0.98090400  1
  C  1637  1  0.63199850  0.87773550  0.48059200  1
  C  1638  1  0.63564950  0.85981000  0.48635450  1
  C  1639  1  0.62717200  0.85292250  0.50128650  1
  C  1640  1  0.61556350  0.86441050  0.51167400  1
  C  1641  1  0.61143500  0.88228350  0.50602850  1
  C  1642  1  0.61970300  0.88864350  0.49049250  1
  C  1644  1  0.60807150  0.85716550  0.52721800  1
  C  1645  1  0.62550300  0.86025150  0.54954150  1
  C  1646  1  0.61648100  0.85004750  0.56271550  1
  C  1647  1  0.59061050  0.83673400  0.55400650  1
  C  1648  1  0.57377800  0.83528800  0.53261200  1
  C  1649  1  0.58230000  0.84491950  0.51910050  1
  C  1665  1  0.33579200  0.23926350  0.86186950  1
  C  1666  1  0.33798300  0.21775200  0.85839400  1
  C  1667  1  0.36142050  0.21940450  0.86691300  1
  C  1668  1  0.38337600  0.24250700  0.87842100  1
  C  1669  1  0.38179200  0.26445500  0.88239000  1
  C  1670  1  0.35795700  0.26247500  0.87404800  1
  C  1672  1  0.40643750  0.24280850  0.88588700  1
  C  1673  1  0.41129950  0.22843150  0.86844600  1
  C  1674  1  0.43353750  0.22731800  0.87745050  1
  C  1675  1  0.45077450  0.23998350  0.90330900  1
  C  1676  1  0.44622950  0.25539000  0.92014650  1
  C  1677  1  0.42415750  0.25643450  0.91164400  1
  C  1693  1  0.11611750  0.26055350  0.10273400  1
  C  1694  1  0.13406500  0.28214250  0.12640750  1
  C  1695  1  0.14097100  0.28058200  0.14824300  1
  C  1696  1  0.12948100  0.25750450  0.14717550  1
  C  1697  1  0.11158750  0.23548900  0.12367150  1
  C  1698  1  0.10521100  0.23736700  0.10175800  1
  C  1700  1  0.13672950  0.25728950  0.16998000  1
  C  1701  1  0.13364950  0.27166300  0.18920650  1
  C  1702  1  0.14383900  0.27285900  0.21259400  1
  C  1703  1  0.15713000  0.26028800  0.21721700  1
  C  1704  1  0.15857450  0.24487850  0.19727900  1
  C  1705  1  0.14896000  0.24375750  0.17412950  1
  C  1721  1  0.37125100  0.98047250  0.63821850  1
  C  1722  1  0.35324350  0.98615300  0.64174950  1
  C  1723  1  0.34636000  0.00107550  0.63325250  1
  C  1724  1  0.35791500  0.01151550  0.62171450  1
  C  1725  1  0.37587600  0.00595850  0.61770350  1
  C  1726  1  0.38225650  0.99046350  0.62602800  1
  C  1728  1  0.35070900  0.02708650  0.61424250  1
  C  1729  1  0.35376450  0.04938550  0.63168000  1
  C  1730  1  0.34359000  0.06258100  0.62266800  1
  C  1731  1  0.33034450  0.05392300  0.59680450  1
  C  1732  1  0.32892100  0.03254600  0.57996800  1
  C  1733  1  0.33852600  0.01901300  0.58847900  1
  C  1749  1  0.15132700  0.51937000  0.39712800  1
  C  1750  1  0.14924400  0.51362650  0.37345250  1
  C  1751  1  0.12584700  0.49869400  0.35161600  1
  C  1752  1  0.10383550  0.48828700  0.35268650  1
  C  1753  1  0.10532350  0.49390750  0.37619100  1
  C  1754  1  0.12911450  0.50944300  0.39810350  1
  C  1756  1  0.08081200  0.47275800  0.32988300  1
  C  1757  1  0.07593500  0.45045200  0.31063200  1
  C  1758  1  0.05375150  0.43729600  0.28724550  1
  C  1759  1  0.03658800  0.44600300  0.28264400  1
  C  1760  1  0.04113600  0.46737900  0.30260400  1
  C  1761  1  0.06315900  0.48087450  0.32575650  1
  C  1777  1  0.47410600  0.84214100  0.10286200  1
  C  1778  1  0.47978250  0.84433700  0.12656650  1
  C  1779  1  0.49470000  0.86777800  0.14834900  1
  C  1780  1  0.50513800  0.88972900  0.14719300  1
  C  1781  1  0.49957900  0.88813900  0.12365900  1
  C  1782  1  0.48408600  0.86429850  0.10180550  1
  C  1784  1  0.52072200  0.91279350  0.16995050  1
  C  1785  1  0.54302300  0.91766500  0.18920100  1
  C  1786  1  0.55622800  0.93988850  0.21255850  1
  C  1787  1  0.54757750  0.95710250  0.21712600  1
  C  1788  1  0.52620400  0.95255550  0.19716450  1
  C  1789  1  0.51266150  0.93049550  0.17403800  1
  C  1805  1  0.01326050  0.62229000  0.86186450  1
  C  1806  1  0.00752100  0.64021650  0.85818450  1
  C  1807  1  0.99257800  0.64712400  0.86662500  1
  C  1808  1  0.98215700  0.63565650  0.87822750  1
  C  1809  1  0.98777050  0.61777600  0.88237850  1
  C  1810  1  0.00331700  0.61139500  0.87414500  1
  C  1812  1  0.96662500  0.64294050  0.88570650  1
  C  1813  1  0.94432400  0.63988050  0.86826650  1
  C  1814  1  0.93116150  0.65011350  0.87727900  1
  C  1815  1  0.93985650  0.66342700  0.90314450  1
  C  1816  1  0.96123400  0.66485500  0.91998700  1
  C  1817  1  0.97473450  0.65519700  0.91147550  1
  C  1833  1  0.73300700  0.87734800  0.39714500  1
  C  1834  1  0.71147300  0.85934700  0.37345000  1
  C  1835  1  0.71309700  0.85248400  0.35164800  1
  C  1836  1  0.73619350  0.86405000  0.35277450  1
  C  1837  1  0.75816050  0.88200050  0.37629900  1
  C  1838  1  0.75620800  0.88835850  0.39817050  1
  C  1840  1  0.73647450  0.85687050  0.33000500  1
  C  1841  1  0.72210700  0.85995000  0.31077400  1
  C  1842  1  0.72097750  0.84982100  0.28741550  1
  C  1843  1  0.73361650  0.83660100  0.28282850  1
  C  1844  1  0.74901200  0.83515200  0.30277000  1
  C  1845  1  0.75007250  0.84471050  0.32589600  1
  C  1861  1  0.75430050  0.65779050  0.63819000  1
  C  1862  1  0.77586900  0.65566950  0.64181750  1
  C  1863  1  0.77427550  0.63225800  0.63334150  1
  C  1864  1  0.75118150  0.61026700  0.62175750  1
  C  1865  1  0.72918550  0.61179150  0.61764700  1
  C  1866  1  0.73109650  0.63559650  0.62590800  1
  C  1868  1  0.75093250  0.58723000  0.61428750  1
  C  1869  1  0.76529400  0.58236000  0.63173200  1
  C  1870  1  0.76646450  0.56015450  0.62273000  1
  C  1871  1  0.75387850  0.54296300  0.59686650  1
  C  1872  1  0.73847500  0.54750300  0.58002200  1
  C  1873  1  0.73737900  0.56954550  0.58852550  1
  C  1889  1  0.09657000  0.98030750  0.34211050  1
  C  1890  1  0.12027050  0.98598650  0.34429400  1
  C  1891  1  0.14206250  0.00092550  0.36772900  1
  C  1892  1  0.14092000  0.01138500  0.38968500  1
  C  1893  1  0.11739000  0.00582150  0.38810750  1
  C  1894  1  0.09552850  0.99030550  0.36427600  1
  C  1896  1  0.16368450  0.02699000  0.41274150  1
  C  1897  1  0.18292900  0.04927750  0.41758150  1
  C  1898  1  0.20629500  0.06250150  0.43980050  1
  C  1899  1  0.21087750  0.05388450  0.45704000  1
  C  1900  1  0.19092250  0.03252750  0.45252600  1
  C  1901  1  0.16779000  0.01896600  0.43047100  1
  C  1917  1  0.85566500  0.51979600  0.12245100  1
  C  1918  1  0.85199100  0.51403500  0.14036900  1
  C  1919  1  0.86044850  0.49909550  0.14726500  1
  C  1920  1  0.87206450  0.48870150  0.13579400  1
  C  1921  1  0.87621600  0.49434400  0.11792800  1
  C  1922  1  0.86796900  0.50989000  0.11156200  1
  C  1924  1  0.87953350  0.47314600  0.14303850  1
  C  1925  1  0.86208150  0.45081500  0.13992250  1
  C  1926  1  0.87107850  0.43760550  0.15008900  1
  C  1927  1  0.89694200  0.44628250  0.16338950  1
  C  1928  1  0.91379550  0.46769500  0.16487650  1
  C  1929  1  0.90529900  0.48124300  0.15528600  1
  C  1945  1  0.39079100  0.23942100  0.37755800  1
  C  1946  1  0.36711300  0.21784950  0.35959750  1
  C  1947  1  0.34528000  0.21941500  0.35272700  1
  C  1948  1  0.34635650  0.24249150  0.36425100  1
  C  1949  1  0.36986050  0.26449200  0.38217450  1
  C  1950  1  0.39176350  0.26259850  0.38854200  1
  C  1952  1  0.32355850  0.24272050  0.35701500  1
  C  1953  1  0.30430650  0.22831200  0.36004650  1
  C  1954  1  0.28091650  0.22710400  0.34982850  1
  C  1955  1  0.27632000  0.23970500  0.33656600  1
  C  1956  1  0.29627800  0.25514350  0.33516650  1
  C  1957  1  0.31943350  0.25627800  0.34481050  1
  C  1973  1  0.63199050  0.26054950  0.15769500  1
  C  1974  1  0.63564250  0.28212600  0.15558350  1
  C  1975  1  0.62716800  0.28053850  0.13217550  1
  C  1976  1  0.61555900  0.25744100  0.11017900  1
  C  1977  1  0.61142900  0.23543900  0.11169500  1
  C  1978  1  0.61969600  0.23734700  0.13549900  1
  C  1980  1  0.60806750  0.25719400  0.08714250  1
  C  1981  1  0.62550050  0.27154250  0.08225300  1
  C  1982  1  0.61647750  0.27272350  0.06005600  1
  C  1983  1  0.59061000  0.26016750  0.04289450  1
  C  1984  1  0.57377550  0.24477950  0.04745500  1
  C  1985  1  0.58229750  0.24366950  0.06948900  1
  C  2001  1  0.33578800  0.60280800  0.48020100  1
  C  2002  1  0.33797900  0.62650900  0.48586700  1
  C  2003  1  0.36141750  0.64829450  0.50078600  1
  C  2004  1  0.38337250  0.64714650  0.51123200  1
  C  2005  1  0.38178750  0.62361500  0.50567850  1
  C  2006  1  0.35795050  0.60175900  0.49018450  1
  C  2008  1  0.40643450  0.66990550  0.52682600  1
  C  2009  1  0.41130000  0.68914400  0.54913100  1
  C  2010  1  0.43354150  0.71249400  0.56236650  1
  C  2011  1  0.45077800  0.71706350  0.55374350  1
  C  2012  1  0.44622950  0.69711050  0.53236000  1
  C  2013  1  0.42415400  0.67399550  0.51878850  1
  C  2029  1  0.11611700  0.36185000  0.01967100  1
  C  2030  1  0.13406450  0.35820850  0.01394600  1
  C  2031  1  0.14097150  0.36667450  0.99901500  1
  C  2032  1  0.12948000  0.37826250  0.98859250  1
  C  2033  1  0.11158750  0.38238400  0.99420250  1
  C  2034  1  0.10521100  0.37413150  0.00973950  1
  C  2036  1  0.13672800  0.38572350  0.97303550  1
  C  2037  1  0.13364650  0.36826850  0.95072800  1
  C  2038  1  0.14383650  0.37726200  0.93753050  1
  C  2039  1  0.15712650  0.40312350  0.94619700  1
  C  2040  1  0.15857150  0.41997700  0.96757850  1
  C  2041  1  0.14895800  0.41148500  0.98111500  1
  C  2057  1  0.37126550  0.89707300  0.73932650  1
  C  2058  1  0.35325800  0.87338300  0.71778600  1
  C  2059  1  0.34637500  0.85157750  0.71940050  1
  C  2060  1  0.35793000  0.85269400  0.74249400  1
  C  2061  1  0.37588850  0.87621000  0.76446450  1
  C  2062  1  0.38227200  0.89808850  0.76252250  1
  C  2064  1  0.35072350  0.82991750  0.74276100  1
  C  2065  1  0.35377750  0.81067200  0.72837850  1
  C  2066  1  0.34360150  0.78730100  0.72721450  1
  C  2067  1  0.33035550  0.78271550  0.73983200  1
  C  2068  1  0.32893350  0.80267050  0.75524500  1
  C  2069  1  0.33854000  0.82580800  0.75634000  1
  C  2085  1  0.15133000  0.13824550  0.76048750  1
  C  2086  1  0.14924700  0.14190600  0.78208000  1
  C  2087  1  0.12585100  0.13344100  0.78052000  1
  C  2088  1  0.10383900  0.12183550  0.75743750  1
  C  2089  1  0.10532650  0.11770300  0.73542150  1
  C  2090  1  0.12911900  0.12596000  0.73730000  1
  C  2092  1  0.08081550  0.11434050  0.75721800  1
  C  2093  1  0.07593750  0.13176750  0.77159100  1
  C  2094  1  0.05375400  0.12274100  0.77279400  1
  C  2095  1  0.03659200  0.09687100  0.76023200  1
  C  2096  1  0.04114050  0.08004350  0.74482100  1
  C  2097  1  0.06316250  0.08857050  0.74369200  1
  C  2113  1  0.51332400  0.86174850  0.62247150  1
  C  2114  1  0.50764700  0.85826850  0.64049850  1
  C  2115  1  0.49273000  0.86679250  0.64736350  1
  C  2116  1  0.48229300  0.87830750  0.63577050  1
  C  2117  1  0.48785250  0.88227450  0.61779400  1
  C  2118  1  0.50334400  0.87392650  0.61143450  1
  C  2120  1  0.46671000  0.88578850  0.64294350  1
  C  2121  1  0.44440900  0.86835950  0.63989350  1
  C  2122  1  0.43120300  0.87737850  0.65004450  1
  C  2123  1  0.43985400  0.90324250  0.66326250  1
  C  2124  1  0.46122900  0.92006900  0.66467500  1
  C  2125  1  0.47477000  0.91154950  0.65509050  1
  C  2141  1  0.97416950  0.10274500  0.84231950  1
  C  2142  1  0.97990900  0.12641050  0.84437950  1
  C  2143  1  0.99485150  0.14826150  0.86776300  1
  C  2144  1  0.00527350  0.14721500  0.88978750  1
  C  2145  1  0.99966050  0.12372100  0.88832350  1
  C  2146  1  0.98411300  0.10179250  0.86454350  1
  C  2148  1  0.02080500  0.17003100  0.91279700  1
  C  2149  1  0.04310550  0.18927150  0.91765800  1
  C  2150  1  0.05626900  0.21266750  0.93983250  1
  C  2151  1  0.04757400  0.21728650  0.95700350  1
  C  2152  1  0.02619650  0.19733550  0.95246800  1
  C  2153  1  0.01269500  0.17417750  0.93045550  1
  C  2169  1  0.25442150  0.63805400  0.65785350  1
  C  2170  1  0.27595550  0.64158950  0.65569200  1
  C  2171  1  0.27433150  0.63310200  0.63226650  1
  C  2172  1  0.25123450  0.62157150  0.61029600  1
  C  2173  1  0.22926850  0.61755500  0.61185450  1
  C  2174  1  0.23121950  0.62586450  0.63567700  1
  C  2176  1  0.25095450  0.61411200  0.58724650  1
  C  2177  1  0.26532200  0.63155900  0.58238300  1
  C  2178  1  0.26645200  0.62255800  0.56015400  1
  C  2179  1  0.25381350  0.59669900  0.54292850  1
  C  2180  1  0.23841750  0.57985550  0.54747500  1
  C  2181  1  0.23735700  0.58835300  0.56953800  1
  C  2197  1  0.23313000  0.39720500  0.87760400  1
  C  2198  1  0.21156050  0.37351600  0.85966350  1
  C  2199  1  0.21315350  0.35169750  0.85278100  1
  C  2200  1  0.23624750  0.35280000  0.86429050  1
  C  2201  1  0.25824500  0.37632050  0.88217650  1
  C  2202  1  0.25633150  0.39821350  0.88852600  1
  C  2204  1  0.23649750  0.33001300  0.85707050  1
  C  2205  1  0.22213500  0.31078050  0.86015250  1
  C  2206  1  0.22096500  0.28740550  0.84998050  1
  C  2207  1  0.23355150  0.28279900  0.83670150  1
  C  2208  1  0.24895400  0.30274200  0.83526100  1
  C  2209  1  0.25005150  0.32588100  0.84486050  1
  C  2225  1  0.89086100  0.37745400  0.23925700  1
  C  2226  1  0.86715850  0.35943150  0.21774000  1
  C  2227  1  0.84536800  0.35257800  0.21938100  1
  C  2228  1  0.84650900  0.36417900  0.24248000  1
  C  2229  1  0.87003950  0.38214550  0.26443200  1
  C  2230  1  0.89190050  0.38849100  0.26246150  1
  C  2232  1  0.82374400  0.35701850  0.24277050  1
  C  2233  1  0.80450100  0.36006300  0.22836800  1
  C  2234  1  0.78113400  0.34992050  0.22722050  1
  C  2235  1  0.77655200  0.33672050  0.23987750  1
  C  2236  1  0.79650750  0.33532000  0.25531850  1
  C  2237  1  0.81963900  0.34489000  0.25639500  1
  C  2253  1  0.13176500  0.15784550  0.26050150  1
  C  2254  1  0.13544000  0.15576000  0.28209400  1
  C  2255  1  0.12698050  0.13236150  0.28053100  1
  C  2256  1  0.11536450  0.11035150  0.25744400  1
  C  2257  1  0.11121350  0.11184250  0.23542700  1
  C  2258  1  0.11946050  0.13563500  0.23730850  1
  C  2260  1  0.10789650  0.08732750  0.25722000  1
  C  2261  1  0.12534900  0.08244800  0.27155600  1
  C  2262  1  0.11635100  0.06024150  0.27272550  1
  C  2263  1  0.09048850  0.04305600  0.26016350  1
  C  2264  1  0.07363400  0.04761500  0.24479700  1
  C  2265  1  0.08213100  0.06965900  0.24370200  1
  C  2281  1  0.59663950  0.34234550  0.98048200  1
  C  2282  1  0.62031700  0.34445100  0.98620000  1
  C  2283  1  0.64215100  0.36785050  0.00116150  1
  C  2284  1  0.64107450  0.38985000  0.01160950  1
  C  2285  1  0.61756900  0.38834700  0.00602900  1
  C  2286  1  0.59566600  0.36454900  0.99049200  1
  C  2288  1  0.66387150  0.41287650  0.02717100  1
  C  2289  1  0.68312200  0.41771950  0.04945350  1
  C  2290  1  0.70651250  0.43990150  0.06262600  1
  C  2291  1  0.71111100  0.45710050  0.05396150  1
  C  2292  1  0.69115200  0.45258050  0.03260350  1
  C  2293  1  0.66799750  0.43056050  0.01909200  1
  C  2309  1  0.35544050  0.12227550  0.51942000  1
  C  2310  1  0.35178650  0.14019850  0.51365600  1
  C  2311  1  0.36026300  0.14708650  0.49872350  1
  C  2312  1  0.37187150  0.13559800  0.48833550  1
  C  2313  1  0.37600100  0.11772450  0.49398150  1
  C  2314  1  0.36773450  0.11136650  0.50951900  1
  C  2316  1  0.37936250  0.14284250  0.47279000  1
  C  2317  1  0.36193150  0.13975650  0.45046800  1
  C  2318  1  0.37095100  0.14995900  0.43729200  1
  C  2319  1  0.39682100  0.16327250  0.44600150  1
  C  2320  1  0.41365450  0.16471800  0.46739450  1
  C  2321  1  0.40513300  0.15508750  0.48090650  1
  C  2337  1  0.65164100  0.76073450  0.13812550  1
  C  2338  1  0.64945000  0.78224500  0.14160200  1
  C  2339  1  0.62601150  0.78059250  0.13308300  1
  C  2340  1  0.60405700  0.75748850  0.12157350  1
  C  2341  1  0.60564250  0.73554250  0.11760600  1
  C  2342  1  0.62947850  0.73752300  0.12594850  1
  C  2344  1  0.58099450  0.75718600  0.11410650  1
  C  2345  1  0.57612900  0.77155950  0.13154650  1
  C  2346  1  0.55388800  0.77266700  0.12254000  1
  C  2347  1  0.53665150  0.76000050  0.09668100  1
  C  2348  1  0.54120000  0.74459800  0.07984600  1
  C  2349  1  0.56327450  0.74355700  0.08834850  1
  C  2365  1  0.87131300  0.73944750  0.89726850  1
  C  2366  1  0.85336650  0.71785950  0.87359600  1
  C  2367  1  0.84645850  0.71941700  0.85175850  1
  C  2368  1  0.85795100  0.74249600  0.85282800  1
  C  2369  1  0.87584350  0.76451150  0.87633000  1
  C  2370  1  0.88221900  0.76263450  0.89824350  1
  C  2372  1  0.85070250  0.74271050  0.83002200  1
  C  2373  1  0.85378300  0.72833650  0.81079550  1
  C  2374  1  0.84359300  0.72713950  0.78740850  1
  C  2375  1  0.83030350  0.73971150  0.78278500  1
  C  2376  1  0.82885850  0.75512000  0.80272150  1
  C  2377  1  0.83847200  0.75624150  0.82587150  1
  C  2393  1  0.61616450  0.01952450  0.36177700  1
  C  2394  1  0.63417100  0.01384250  0.35824350  1
  C  2395  1  0.64105350  0.99891850  0.36674100  1
  C  2396  1  0.62949900  0.98848000  0.37827900  1
  C  2397  1  0.61153950  0.99403750  0.38229100  1
  C  2398  1  0.60515950  0.00953450  0.37396800  1
  C  2400  1  0.63670500  0.97290850  0.38575250  1
  C  2401  1  0.63364950  0.95060950  0.36831500  1
  C  2402  1  0.64382650  0.93741500  0.37732750  1
  C  2403  1  0.65707100  0.94607400  0.40319100  1
  C  2404  1  0.65849450  0.96745100  0.42002650  1
  C  2405  1  0.64888800  0.98098250  0.41151550  1
  C  2421  1  0.83609950  0.48062950  0.60287200  1
  C  2422  1  0.83818300  0.48637350  0.62654750  1
  C  2423  1  0.86157900  0.50130500  0.64838400  1
  C  2424  1  0.88359050  0.51171100  0.64731350  1
  C  2425  1  0.88210250  0.50609050  0.62380900  1
  C  2426  1  0.85831150  0.49055600  0.60189650  1
  C  2428  1  0.90661400  0.52724000  0.67011700  1
  C  2429  1  0.91149250  0.54954550  0.68936800  1
  C  2430  1  0.93367600  0.56270200  0.71275500  1
  C  2431  1  0.95083700  0.55399350  0.71735450  1
  C  2432  1  0.94628850  0.53261650  0.69739400  1
  C  2433  1  0.92426800  0.51912250  0.67424450  1
  C  2449  1  0.51333050  0.15785900  0.89714550  1
  C  2450  1  0.50765250  0.15566250  0.87344000  1
  C  2451  1  0.49273000  0.13222300  0.85165700  1
  C  2452  1  0.48229050  0.11027050  0.85281100  1
  C  2453  1  0.48785150  0.11186100  0.87634650  1
  C  2454  1  0.50334650  0.13569950  0.89819900  1
  C  2456  1  0.46670350  0.08720850  0.83005400  1
  C  2457  1  0.44440500  0.08234150  0.81080450  1
  C  2458  1  0.43119850  0.06011950  0.78744500  1
  C  2459  1  0.43984650  0.04290500  0.78287350  1
  C  2460  1  0.46121850  0.04744700  0.80283350  1
  C  2461  1  0.47476150  0.06950400  0.82596250  1
  C  2477  1  0.97416500  0.37770650  0.13813450  1
  C  2478  1  0.97990450  0.35978000  0.14181550  1
  C  2479  1  0.99484850  0.35287300  0.13337450  1
  C  2480  1  0.00527000  0.36434100  0.12177200  1
  C  2481  1  0.99965650  0.38222350  0.11762300  1
  C  2482  1  0.98410850  0.38860250  0.12585500  1
  C  2484  1  0.02080250  0.35705900  0.11429450  1
  C  2485  1  0.04310400  0.36011850  0.13173450  1
  C  2486  1  0.05626750  0.34988700  0.12272350  1
  C  2487  1  0.04757200  0.33657350  0.09685650  1
  C  2488  1  0.02619500  0.33514450  0.08001450  1
  C  2489  1  0.01269200  0.34480150  0.08852550  1
  C  2505  1  0.25441450  0.12264850  0.60284600  1
  C  2506  1  0.27594900  0.14064650  0.62654150  1
  C  2507  1  0.27432700  0.14750950  0.64834350  1
  C  2508  1  0.25123000  0.13594250  0.64721750  1
  C  2509  1  0.22926350  0.11799450  0.62369400  1
  C  2510  1  0.23121450  0.11163800  0.60182250  1
  C  2512  1  0.25095100  0.14312300  0.66999000  1
  C  2513  1  0.26531950  0.14004400  0.68921950  1
  C  2514  1  0.26645000  0.15017400  0.71257800  1
  C  2515  1  0.25381200  0.16339550  0.71716650  1
  C  2516  1  0.23841500  0.16484350  0.69722350  1
  C  2517  1  0.23735400  0.15528400  0.67409900  1
  C  2533  1  0.23313150  0.34221000  0.36180950  1
  C  2534  1  0.21156100  0.34432800  0.35818000  1
  C  2535  1  0.21315300  0.36773800  0.36665500  1
  C  2536  1  0.23624800  0.38973200  0.37824000  1
  C  2537  1  0.25824450  0.38821000  0.38235250  1
  C  2538  1  0.25633400  0.36440450  0.37409050  1
  C  2540  1  0.23649550  0.41276850  0.38570900  1
  C  2541  1  0.22213200  0.41763600  0.36826300  1
  C  2542  1  0.22096050  0.43984100  0.37726550  1
  C  2543  1  0.23354550  0.45703400  0.40312950  1
  C  2544  1  0.24895000  0.45249550  0.41997350  1
  C  2545  1  0.25004800  0.43045300  0.41147200  1
  C  2561  1  0.89086250  0.01969400  0.65789350  1
  C  2562  1  0.86716000  0.01401400  0.65570800  1
  C  2563  1  0.84537100  0.99907900  0.63227400  1
  C  2564  1  0.84651300  0.98862200  0.61031700  1
  C  2565  1  0.87004450  0.99418550  0.61189700  1
  C  2566  1  0.89190400  0.00969750  0.63572850  1
  C  2568  1  0.82374850  0.97301900  0.58725950  1
  C  2569  1  0.80450450  0.95073000  0.58241450  1
  C  2570  1  0.78114200  0.93750650  0.56019250  1
  C  2571  1  0.77656350  0.94612450  0.54295300  1
  C  2572  1  0.79651950  0.96748450  0.54747400  1
  C  2573  1  0.81964900  0.98104750  0.56953350  1
  C  2589  1  0.13176050  0.48019950  0.87754600  1
  C  2590  1  0.13543600  0.48596150  0.85962950  1
  C  2591  1  0.12697800  0.50090150  0.85273350  1
  C  2592  1  0.11536250  0.51129500  0.86420550  1
  C  2593  1  0.11121050  0.50565300  0.88207050  1
  C  2594  1  0.11945700  0.49010650  0.88843550  1
  C  2596  1  0.10789450  0.52685200  0.85696150  1
  C  2597  1  0.12534650  0.54918300  0.86007750  1
  C  2598  1  0.11634900  0.56239250  0.84991150  1
  C  2599  1  0.09048550  0.55371600  0.83661150  1
  C  2600  1  0.07363100  0.53230200  0.83512300  1
  C  2601  1  0.08212850  0.51875450  0.84471400  1
  C  2617  1  0.59664500  0.76057950  0.62244450  1
  C  2618  1  0.62032400  0.78215200  0.64040700  1
  C  2619  1  0.64215800  0.78058700  0.64727700  1
  C  2620  1  0.64108100  0.75751050  0.63575250  1
  C  2621  1  0.61757600  0.73550950  0.61782750  1
  C  2622  1  0.59567200  0.73740250  0.61146050  1
  C  2624  1  0.66387800  0.75728200  0.64298800  1
  C  2625  1  0.68312950  0.77168900  0.63995650  1
  C  2626  1  0.70651950  0.77289750  0.65017400  1
  C  2627  1  0.71111700  0.76029700  0.66343700  1
  C  2628  1  0.69115800  0.74485700  0.66483500  1
  C  2629  1  0.66800350  0.74372300  0.65519250  1
  C  2645  1  0.35543450  0.73945300  0.84230850  1
  C  2646  1  0.35178250  0.71787600  0.84441950  1
  C  2647  1  0.36025950  0.71946450  0.86782900  1
  C  2648  1  0.37186800  0.74256200  0.88982500  1
  C  2649  1  0.37599650  0.76456400  0.88830750  1
  C  2650  1  0.36772850  0.76265550  0.86450300  1
  C  2652  1  0.37935900  0.74280950  0.91286050  1
  C  2653  1  0.36192800  0.72846400  0.91775200  1
  C  2654  1  0.37095050  0.72728250  0.93995000  1
  C  2655  1  0.39681900  0.73983900  0.95711000  1
  C  2656  1  0.41365150  0.75522550  0.95254800  1
  C  2657  1  0.40513000  0.75633500  0.93051500  1
  C  2673  1  0.65163550  0.39718450  0.51979100  1
  C  2674  1  0.64944650  0.37348450  0.51412600  1
  C  2675  1  0.62600850  0.35169850  0.49920700  1
  C  2676  1  0.60405400  0.35284600  0.48876100  1
  C  2677  1  0.60563750  0.37637700  0.49431250  1
  C  2678  1  0.62947350  0.39823250  0.50980600  1
  C  2680  1  0.58099250  0.33008600  0.47316450  1
  C  2681  1  0.57613050  0.31084800  0.45086150  1
  C  2682  1  0.55389300  0.28749550  0.43762750  1
  C  2683  1  0.53665500  0.28292250  0.44624950  1
  C  2684  1  0.54119950  0.30287450  0.46763100  1
  C  2685  1  0.56327300  0.32599300  0.48120100  1
  C  2701  1  0.87131250  0.63815100  0.98033150  1
  C  2702  1  0.85336500  0.64179200  0.98605700  1
  C  2703  1  0.84645850  0.63332550  0.00098700  1
  C  2704  1  0.85794900  0.62173800  0.01140900  1
  C  2705  1  0.87584200  0.61761600  0.00579900  1
  C  2706  1  0.88221800  0.62586950  0.99026250  1
  C  2708  1  0.85070100  0.61427500  0.02696500  1
  C  2709  1  0.85378100  0.63172850  0.04927250  1
  C  2710  1  0.84359100  0.62273500  0.06247000  1
  C  2711  1  0.83030000  0.59687250  0.05380250  1
  C  2712  1  0.82885550  0.58002050  0.03242000  1
  C  2713  1  0.83847150  0.58851300  0.01888450  1
  C  2729  1  0.61617850  0.10293450  0.26068100  1
  C  2730  1  0.63418500  0.12662250  0.28221950  1
  C  2731  1  0.64106850  0.14842950  0.28060600  1
  C  2732  1  0.62951450  0.14731400  0.25751350  1
  C  2733  1  0.61155350  0.12379550  0.23554200  1
  C  2734  1  0.60517200  0.10191900  0.23748500  1
  C  2736  1  0.63671950  0.17009000  0.25724650  1
  C  2737  1  0.63366400  0.18933350  0.27162850  1
  C  2738  1  0.64384000  0.21270500  0.27279300  1
  C  2739  1  0.65708400  0.21729050  0.26017350  1
  C  2740  1  0.65850700  0.19733800  0.24476200  1
  C  2741  1  0.64890200  0.17420000  0.24366700  1
  C  2757  1  0.83610350  0.86175750  0.23951500  1
  C  2758  1  0.83818600  0.85809750  0.21792350  1
  C  2759  1  0.86158200  0.86656200  0.21948300  1
  C  2760  1  0.88359500  0.87816650  0.24256550  1
  C  2761  1  0.88210550  0.88229850  0.26458100  1
  C  2762  1  0.85831350  0.87404200  0.26270250  1
  C  2764  1  0.90661650  0.88566050  0.24278600  1
  C  2765  1  0.91149500  0.86823250  0.22841250  1
  C  2766  1  0.93367900  0.87726000  0.22720900  1
  C  2767  1  0.95084050  0.90312900  0.23977050  1
  C  2768  1  0.94629250  0.91995700  0.25518250  1
  C  2769  1  0.92427200  0.91143100  0.25631300  1
  H  5  1  0.42066100  0.22179100  0.42125900  1
  H  6  1  0.40164650  0.19036550  0.39719400  1
  H  9  1  0.41250900  0.17240650  0.36380550  1
  H  10  1  0.43879300  0.19170000  0.36385200  1
  H  11  1  0.41859800  0.15930250  0.39721050  1
  H  12  1  0.44849950  0.17065050  0.42151900  1
  H  15  1  0.48300550  0.20710150  0.39730800  1
  H  16  1  0.48797700  0.19967600  0.42132600  1
  H  18  1  0.46607500  0.23818600  0.39733000  1
  H  19  1  0.46040500  0.25108300  0.42159500  1
  H  21  1  0.47645650  0.21680600  0.45474950  1
  H  22  1  0.46556450  0.23806100  0.45475150  1
  H  35  1  0.06668650  0.99426400  0.29465950  1
  H  36  1  0.08574700  0.98932850  0.28226650  1
  H  39  1  0.07498700  0.94514450  0.25337950  1
  H  40  1  0.04872800  0.91883500  0.24632400  1
  H  41  1  0.06883500  0.97250850  0.23426950  1
  H  42  1  0.03891100  0.96686750  0.21570950  1
  H  45  1  0.00449550  0.90802150  0.21750800  1
  H  46  1  0.99947900  0.92709150  0.20516350  1
  H  48  1  0.02138650  0.92486400  0.26550250  1
  H  49  1  0.02698100  0.95474900  0.28410800  1
  H  51  1  0.01089750  0.97197500  0.23388050  1
  H  52  1  0.02176000  0.98279050  0.26601250  1
  H  65  1  0.69330400  0.27824350  0.20525150  1
  H  66  1  0.70065150  0.30966300  0.21758850  1
  H  69  1  0.68519100  0.32768300  0.24635300  1
  H  70  1  0.66594200  0.30843250  0.25337650  1
  H  71  1  0.73170400  0.34080350  0.26558750  1
  H  72  1  0.74467300  0.32951850  0.28421050  1
  H  75  1  0.68399900  0.29312150  0.28228250  1
  H  76  1  0.71544750  0.30055950  0.29471600  1
  H  78  1  0.65295750  0.26195550  0.23427600  1
  H  79  1  0.66434600  0.24902400  0.21575400  1
  H  81  1  0.73176500  0.28336850  0.26612450  1
  H  82  1  0.71052750  0.26206050  0.23398500  1
  H  95  1  0.79437600  0.50588600  0.07875800  1
  H  96  1  0.78699350  0.51085350  0.10280600  1
  H  99  1  0.80229150  0.55505500  0.13619750  1
  H  100  1  0.82146950  0.58134350  0.13616900  1
  H  101  1  0.75579450  0.52763150  0.10276500  1
  H  102  1  0.74277950  0.53320700  0.07845850  1
  H  105  1  0.80333150  0.59206850  0.10271500  1
  H  106  1  0.77189550  0.57295650  0.07868200  1
  H  108  1  0.83450700  0.57526800  0.10271400  1
  H  109  1  0.82322350  0.54536650  0.07844800  1
  H  111  1  0.75573050  0.52805650  0.04525400  1
  H  112  1  0.77706250  0.51726850  0.04526700  1
  H  125  1  0.99947600  0.57867000  0.80060000  1
  H  126  1  0.00449350  0.60275700  0.79327150  1
  H  129  1  0.04872650  0.63617600  0.80869050  1
  H  130  1  0.07498450  0.63612550  0.82789400  1
  H  131  1  0.02138450  0.60280600  0.76216950  1
  H  132  1  0.02697950  0.57851550  0.74915800  1
  H  135  1  0.08574400  0.60270200  0.80976700  1
  H  136  1  0.06668500  0.57870600  0.77831400  1
  H  138  1  0.06883050  0.60260850  0.84085200  1
  H  139  1  0.03890650  0.57832550  0.82948600  1
  H  141  1  0.02175800  0.54525250  0.76203250  1
  H  142  1  0.01089450  0.54520450  0.78330100  1
  H  155  1  0.77189900  0.70522300  0.69949900  1
  H  156  1  0.80333450  0.71754650  0.70690100  1
  H  159  1  0.82147500  0.74641000  0.69158800  1
  H  160  1  0.80229900  0.75352350  0.67238250  1
  H  161  1  0.83451300  0.76552350  0.73807950  1
  H  162  1  0.82322900  0.78414150  0.75106350  1
  H  165  1  0.78700100  0.78242700  0.69047600  1
  H  166  1  0.79438350  0.79477700  0.72190650  1
  H  168  1  0.75580100  0.73444900  0.65931600  1
  H  169  1  0.74278500  0.71585900  0.67060800  1
  H  171  1  0.77706750  0.76607950  0.73808200  1
  H  172  1  0.75573550  0.73396000  0.71676250  1
  H  185  1  0.48798100  0.79458000  0.07293700  1
  H  186  1  0.48300650  0.78217950  0.09198100  1
  H  189  1  0.43879500  0.75337400  0.08122800  1
  H  190  1  0.41251100  0.74638800  0.05499200  1
  H  191  1  0.46607050  0.73416400  0.07502350  1
  H  192  1  0.46039700  0.71559800  0.04508700  1
  H  195  1  0.40164250  0.71756750  0.01073800  1
  H  196  1  0.42065250  0.70515200  0.00568250  1
  H  198  1  0.41860200  0.76558400  0.02767900  1
  H  199  1  0.44850300  0.78413450  0.03327050  1
  H  201  1  0.46555650  0.73378100  0.01709150  1
  H  202  1  0.47645400  0.76592950  0.02799050  1
  H  215  1  0.71543600  0.92117100  0.42700600  1
  H  216  1  0.68398850  0.89716100  0.40799650  1
  H  219  1  0.66593800  0.86379700  0.41885300  1
  H  220  1  0.68519200  0.86379900  0.44512400  1
  H  221  1  0.65295400  0.89728950  0.42497150  1
  H  222  1  0.66434750  0.92161200  0.45488250  1
  H  225  1  0.70066000  0.89728200  0.48935000  1
  H  226  1  0.69331350  0.92135450  0.49434200  1
  H  228  1  0.73170450  0.89718850  0.47239400  1
  H  229  1  0.74466950  0.92144150  0.46673600  1
  H  231  1  0.71053000  0.95475700  0.48282500  1
  H  232  1  0.73176250  0.95468400  0.47191650  1
  H  245  1  0.19887650  0.19954050  0.77817100  1
  H  246  1  0.21122700  0.20687100  0.80958600  1
  H  249  1  0.23999200  0.19139650  0.82756550  1
  H  250  1  0.24700500  0.17215400  0.80829500  1
  H  251  1  0.25922950  0.23791650  0.84071500  1
  H  252  1  0.27784250  0.25089650  0.82942600  1
  H  255  1  0.27589750  0.19023050  0.79297900  1
  H  256  1  0.28833150  0.22168300  0.80043650  1
  H  258  1  0.22788900  0.15919650  0.76182250  1
  H  259  1  0.20936350  0.17059550  0.74891800  1
  H  261  1  0.25973750  0.23801700  0.78328450  1
  H  262  1  0.22759550  0.21678250  0.76198200  1
  H  275  1  0.07239050  0.30055750  0.00578300  1
  H  276  1  0.09643300  0.29316650  0.01073050  1
  H  279  1  0.12985250  0.30847400  0.05491850  1
  H  280  1  0.12985300  0.32766600  0.08122200  1
  H  281  1  0.09640900  0.26197600  0.02752200  1
  H  282  1  0.07212250  0.24898100  0.03312950  1
  H  285  1  0.09643150  0.30955200  0.09198950  1
  H  286  1  0.07239050  0.27812050  0.07289400  1
  H  288  1  0.09640900  0.34072050  0.07517650  1
  H  289  1  0.07212250  0.32942850  0.04528100  1
  H  291  1  0.03893000  0.26194650  0.02800650  1
  H  292  1  0.03893050  0.28327050  0.01721100  1
  H  305  1  0.41504150  0.92700150  0.72169400  1
  H  306  1  0.39099800  0.90798850  0.69026050  1
  H  309  1  0.35757150  0.91880550  0.67228400  1
  H  310  1  0.35757100  0.94505450  0.69157950  1
  H  311  1  0.39101100  0.92498150  0.65922550  1
  H  312  1  0.41529650  0.95490800  0.67060350  1
  H  315  1  0.39098900  0.98929750  0.70702250  1
  H  316  1  0.41503100  0.99433050  0.69962950  1
  H  318  1  0.39101200  0.97232200  0.73807500  1
  H  319  1  0.41530150  0.96668700  0.75098350  1
  H  321  1  0.44849100  0.98285950  0.71677350  1
  H  322  1  0.44849400  0.97193350  0.73800450  1
  H  335  1  0.28832950  0.57292850  0.49417400  1
  H  336  1  0.27589600  0.59194900  0.48919800  1
  H  339  1  0.24700250  0.58113300  0.44499150  1
  H  340  1  0.23998650  0.55487750  0.41870700  1
  H  341  1  0.22788750  0.57497550  0.47234900  1
  H  342  1  0.20936150  0.54505250  0.46673000  1
  H  345  1  0.21122150  0.51063850  0.40792200  1
  H  346  1  0.19887100  0.50561850  0.42698650  1
  H  348  1  0.25922350  0.52759350  0.42479300  1
  H  349  1  0.27783750  0.53322700  0.45469450  1
  H  351  1  0.22759200  0.51709550  0.47189450  1
  H  352  1  0.25973300  0.52800100  0.48273200  1
  H  725  1  0.56677700  0.77821250  0.57874450  1
  H  726  1  0.58578600  0.80963750  0.60280950  1
  H  729  1  0.57491800  0.82759050  0.63619550  1
  H  730  1  0.54863550  0.80829300  0.63614750  1
  H  731  1  0.56882800  0.84069550  0.60279250  1
  H  732  1  0.53892700  0.82934500  0.57848200  1
  H  735  1  0.50442300  0.79288650  0.60268850  1
  H  736  1  0.49944900  0.80031200  0.57867000  1
  H  738  1  0.52135950  0.76180750  0.60266700  1
  H  739  1  0.52703300  0.74891450  0.57840450  1
  H  741  1  0.51097550  0.78318800  0.54525050  1
  H  742  1  0.52187400  0.76193800  0.54525000  1
  H  755  1  0.92074500  0.00573600  0.70534400  1
  H  756  1  0.90168600  0.01067250  0.71773850  1
  H  759  1  0.91244650  0.05485600  0.74662550  1
  H  760  1  0.93870450  0.08116550  0.75368000  1
  H  761  1  0.91860000  0.02749300  0.76573700  1
  H  762  1  0.94852400  0.03313400  0.78429600  1
  H  765  1  0.98293800  0.09198000  0.78249600  1
  H  766  1  0.98795400  0.07290900  0.79484000  1
  H  768  1  0.96604650  0.07513700  0.73450250  1
  H  769  1  0.96045050  0.04525000  0.71589450  1
  H  771  1  0.97653600  0.02802550  0.76612350  1
  H  772  1  0.96567250  0.01721000  0.73399150  1
  H  785  1  0.29412000  0.72175700  0.79474500  1
  H  786  1  0.28677200  0.69033650  0.78240650  1
  H  789  1  0.30223750  0.67232150  0.75364700  1
  H  790  1  0.32149100  0.69157250  0.74662950  1
  H  791  1  0.25572450  0.65919850  0.73440700  1
  H  792  1  0.24275950  0.67048550  0.71578300  1
  H  795  1  0.30343950  0.70688650  0.71772300  1
  H  796  1  0.27199050  0.69944800  0.70528450  1
  H  798  1  0.33447650  0.73805050  0.76573100  1
  H  799  1  0.32308350  0.75098000  0.78425050  1
  H  801  1  0.25566650  0.71663450  0.73387000  1
  H  802  1  0.27690150  0.73794100  0.76601150  1
  H  815  1  0.19304700  0.49410900  0.92123800  1
  H  816  1  0.20043000  0.48914100  0.89719000  1
  H  819  1  0.18513150  0.44494000  0.86379950  1
  H  820  1  0.16595550  0.41865050  0.86382700  1
  H  821  1  0.23162950  0.47236350  0.89723000  1
  H  822  1  0.24464500  0.46679000  0.92153800  1
  H  825  1  0.18409450  0.40792750  0.89728200  1
  H  826  1  0.21553050  0.42703850  0.92131400  1
  H  828  1  0.15291750  0.42472650  0.89728300  1
  H  829  1  0.16420150  0.45462750  0.92155000  1
  H  831  1  0.23169550  0.47194050  0.95474300  1
  H  832  1  0.21036300  0.48272700  0.95473100  1
  H  845  1  0.98795050  0.42132750  0.19939900  1
  H  846  1  0.98293450  0.39724050  0.20672700  1
  H  849  1  0.93870150  0.36382150  0.19131000  1
  H  850  1  0.91244300  0.36387250  0.17210850  1
  H  851  1  0.96604300  0.39719200  0.23783000  1
  H  852  1  0.96044850  0.42148350  0.25084300  1
  H  855  1  0.90168300  0.39729700  0.19023500  1
  H  856  1  0.92074300  0.42129250  0.22168750  1
  H  858  1  0.91859500  0.39738700  0.15914800  1
  H  859  1  0.94851800  0.42167000  0.17051300  1
  H  861  1  0.96567050  0.45474650  0.23796800  1
  H  862  1  0.97653250  0.45479250  0.21669900  1
  H  875  1  0.21553500  0.29477650  0.30050250  1
  H  876  1  0.18409800  0.28245200  0.29309900  1
  H  879  1  0.16596000  0.25358900  0.30841400  1
  H  880  1  0.18513800  0.24647850  0.32762050  1
  H  881  1  0.15292150  0.23447500  0.26192150  1
  H  882  1  0.16420600  0.21585750  0.24893850  1
  H  885  1  0.20043700  0.21757500  0.30952800  1
  H  886  1  0.19305400  0.20522450  0.27809650  1
  H  888  1  0.23163600  0.26555300  0.34068700  1
  H  889  1  0.24465000  0.28414150  0.32939350  1
  H  891  1  0.21036750  0.23392150  0.26191900  1
  H  892  1  0.23169900  0.26604000  0.28323900  1
  H  905  1  0.49945200  0.20541350  0.92706450  1
  H  906  1  0.50442600  0.21781200  0.90801900  1
  H  909  1  0.54863550  0.24662050  0.91877300  1
  H  910  1  0.57492050  0.25361250  0.94501100  1
  H  911  1  0.52135400  0.26582500  0.92497000  1
  H  912  1  0.52702450  0.28439250  0.95490600  1
  H  915  1  0.58578450  0.28243550  0.98926300  1
  H  916  1  0.56677000  0.29484600  0.99431400  1
  H  918  1  0.56883200  0.23441900  0.97232700  1
  H  919  1  0.53893050  0.21586600  0.96673550  1
  H  921  1  0.52186650  0.26621250  0.98290300  1
  H  922  1  0.51097450  0.23406650  0.97200900  1
  H  935  1  0.27198100  0.07882700  0.57298300  1
  H  936  1  0.30343000  0.10283800  0.59199800  1
  H  939  1  0.32148700  0.13620550  0.58114850  1
  H  940  1  0.30223750  0.13620650  0.55487600  1
  H  941  1  0.33447200  0.10271400  0.57503300  1
  H  942  1  0.32308350  0.07839400  0.54512350  1
  H  945  1  0.28677800  0.10272750  0.51065150  1
  H  946  1  0.29412650  0.07865500  0.50566250  1
  H  948  1  0.25572550  0.10281550  0.52759700  1
  H  949  1  0.24275600  0.07856050  0.53325150  1
  H  951  1  0.27690200  0.04524950  0.51717250  1
  H  952  1  0.25566350  0.04531800  0.52807250  1
  H  965  1  0.78855750  0.80046150  0.22182900  1
  H  966  1  0.77620850  0.79313150  0.19041400  1
  H  969  1  0.74744300  0.80860600  0.17243400  1
  H  970  1  0.74042700  0.82784500  0.19170300  1
  H  971  1  0.72820650  0.76208450  0.15928300  1
  H  972  1  0.70959300  0.74910450  0.17057150  1
  H  975  1  0.71153300  0.80976750  0.20701550  1
  H  976  1  0.69910000  0.77831400  0.19955900  1
  H  978  1  0.75954150  0.84080200  0.23817550  1
  H  979  1  0.77806750  0.82940500  0.25108150  1
  H  981  1  0.72769550  0.76198200  0.21671250  1
  H  982  1  0.75983750  0.78321850  0.23801600  1
  H  995  1  0.91503900  0.69944400  0.99421900  1
  H  996  1  0.89099850  0.70683650  0.98927300  1
  H  999  1  0.85757750  0.69152800  0.94508450  1
  H  1000  1  0.85757700  0.67233650  0.91878150  1
  H  1001  1  0.89102150  0.73802650  0.97248200  1
  H  1002  1  0.91530700  0.75102000  0.96687300  1
  H  1005  1  0.89099750  0.69044850  0.90801200  1
  H  1006  1  0.91503800  0.72188000  0.92710700  1
  H  1008  1  0.89102050  0.65928150  0.92482700  1
  H  1009  1  0.91530650  0.67057300  0.95472150  1
  H  1011  1  0.94850000  0.73805400  0.97199500  1
  H  1012  1  0.94850000  0.71673100  0.98279200  1
  H  1025  1  0.57239800  0.07301250  0.27831050  1
  H  1026  1  0.59644050  0.09202250  0.30974600  1
  H  1029  1  0.62985950  0.08119850  0.32772200  1
  H  1030  1  0.62985750  0.05494800  0.30842750  1
  H  1031  1  0.59641750  0.07502700  0.34077750  1
  H  1032  1  0.57212900  0.04510100  0.32939700  1
  H  1035  1  0.59643350  0.01070600  0.29297950  1
  H  1036  1  0.57238900  0.00567550  0.30036950  1
  H  1038  1  0.59641900  0.02768250  0.26192950  1
  H  1039  1  0.57213350  0.03332300  0.24902150  1
  H  1041  1  0.53893600  0.01715400  0.28322500  1
  H  1042  1  0.53893850  0.02808100  0.26199650  1
  H  1055  1  0.69909700  0.42706700  0.50581900  1
  H  1056  1  0.71153150  0.40804700  0.51079650  1
  H  1059  1  0.74042400  0.41886450  0.55500450  1
  H  1060  1  0.74743850  0.44512000  0.58128850  1
  H  1061  1  0.75954150  0.42502250  0.52764900  1
  H  1062  1  0.77806700  0.45494700  0.53326900  1
  H  1065  1  0.77620200  0.48935900  0.59207400  1
  H  1066  1  0.78855350  0.49437950  0.57300900  1
  H  1068  1  0.72819950  0.47240150  0.57520000  1
  H  1069  1  0.70958700  0.46676900  0.54529800  1
  H  1071  1  0.75983400  0.48290150  0.52810150  1
  H  1072  1  0.72769200  0.47199400  0.51726200  1
  H  1447  1  0.48088950  0.12410750  0.40226100  1
  H  1454  1  0.57215100  0.13514500  0.35188700  1
  H  1455  1  0.52021300  0.06123050  0.32727250  1
  H  1456  1  0.47454700  0.15192400  0.35227700  1
  H  1457  1  0.49664800  0.07559900  0.34253700  1
  H  1458  1  0.49855150  0.13629300  0.33967050  1
  H  1466  1  0.57915750  0.09962150  0.33728200  1
  H  1468  1  0.47050750  0.15689700  0.40577250  1
  H  1475  1  0.00656850  0.91507450  0.13660800  1
  H  1482  1  0.91524200  0.77334950  0.05676850  1
  H  1483  1  0.96725900  0.80058600  0.03484100  1
  H  1484  1  0.01275700  0.87168550  0.17110950  1
  H  1485  1  0.99075250  0.83946400  0.07269750  1
  H  1486  1  0.98869100  0.83495250  0.13157050  1
  H  1494  1  0.90828950  0.75166250  0.01429500  1
  H  1496  1  0.01694200  0.92913650  0.17986150  1
  H  1503  1  0.77188750  0.37613300  0.36311350  1
  H  1510  1  0.71041700  0.36491900  0.44325700  1
  H  1511  1  0.75967100  0.43885300  0.46524500  1
  H  1512  1  0.69406700  0.34820000  0.32886400  1
  H  1513  1  0.76055050  0.42451300  0.42730250  1
  H  1514  1  0.69703250  0.36377600  0.36847750  1
  H  1522  1  0.73137000  0.40043000  0.48580800  1
  H  1524  1  0.74267300  0.34335200  0.31994200  1
  H  1531  1  0.71540100  0.58490300  0.09784200  1
  H  1538  1  0.77704750  0.72657600  0.14807750  1
  H  1539  1  0.72785000  0.69933600  0.17282300  1
  H  1540  1  0.79327550  0.62843150  0.14748800  1
  H  1541  1  0.72690100  0.66048650  0.15752650  1
  H  1542  1  0.79037000  0.66510650  0.16011250  1
  H  1550  1  0.75624100  0.74826400  0.16278200  1
  H  1552  1  0.74462400  0.57090400  0.09419100  1
  H  1559  1  0.07864150  0.59781700  0.72187950  1
  H  1566  1  0.22027650  0.64815400  0.78336250  1
  H  1567  1  0.19297400  0.67271600  0.73400000  1
  H  1568  1  0.12225750  0.64779500  0.79968150  1
  H  1569  1  0.15414350  0.65748300  0.73310250  1
  H  1570  1  0.15887900  0.66038950  0.79667750  1
  H  1578  1  0.24192100  0.66274200  0.76246500  1
  H  1580  1  0.06471300  0.59430200  0.75112000  1
  H  1587  1  0.87007150  0.86319900  0.77840450  1
  H  1594  1  0.85855550  0.94317500  0.71672850  1
  H  1595  1  0.93251500  0.96508550  0.76582550  1
  H  1596  1  0.84172700  0.82876850  0.70050950  1
  H  1597  1  0.91817450  0.92718050  0.76676400  1
  H  1598  1  0.85722650  0.86832950  0.70336300  1
  H  1606  1  0.89405850  0.98566850  0.73756700  1
  H  1608  1  0.83716400  0.81998300  0.74920500  1
  H  1615  1  0.40862700  0.63661700  0.01272200  1
  H  1622  1  0.26692250  0.55669500  0.92145550  1
  H  1623  1  0.29419950  0.53470600  0.97339750  1
  H  1624  1  0.36517700  0.67101150  0.01905450  1
  H  1625  1  0.33306900  0.57257950  0.99691450  1
  H  1626  1  0.32847550  0.63144100  0.99497850  1
  H  1634  1  0.24525650  0.51418150  0.91446900  1
  H  1636  1  0.42264700  0.67983400  0.02313500  1
  H  1643  1  0.61762200  0.90226150  0.48722550  1
  H  1650  1  0.62899150  0.85199200  0.57864650  1
  H  1651  1  0.55505650  0.82717750  0.52657500  1
  H  1652  1  0.64591000  0.85266600  0.48115400  1
  H  1653  1  0.56944200  0.84252850  0.50307050  1
  H  1654  1  0.63037800  0.84003100  0.50520200  1
  H  1662  1  0.59344200  0.83722950  0.58556250  1
  H  1664  1  0.65055200  0.90593000  0.47692900  1
  H  1671  1  0.35672700  0.27813000  0.87600200  1
  H  1678  1  0.43694900  0.21674550  0.86493350  1
  H  1679  1  0.45895800  0.26606400  0.93885500  1
  H  1680  1  0.32255400  0.20033200  0.84819600  1
  H  1681  1  0.42100100  0.26691750  0.92450750  1
  H  1682  1  0.36218450  0.20334750  0.86382700  1
  H  1690  1  0.47950050  0.23771300  0.90042950  1
  H  1692  1  0.31357650  0.24887850  0.84322600  1
  H  1699  1  0.09157700  0.22165950  0.08488750  1
  H  1706  1  0.14189100  0.28343700  0.22656900  1
  H  1707  1  0.16666250  0.23425350  0.19936300  1
  H  1708  1  0.14120800  0.29953900  0.12833300  1
  H  1709  1  0.15134450  0.23326950  0.16049800  1
  H  1710  1  0.15387300  0.29668900  0.16503900  1
  H  1718  1  0.15657350  0.26262900  0.24825450  1
  H  1720  1  0.08790050  0.25084950  0.07084500  1
  H  1727  1  0.39593950  0.98726900  0.62403750  1
  H  1734  1  0.34552800  0.07850650  0.63518150  1
  H  1735  1  0.32085200  0.02654200  0.56125400  1
  H  1736  1  0.34604700  0.98091950  0.65196350  1
  H  1737  1  0.33614800  0.00299350  0.57561750  1
  H  1738  1  0.33340050  0.00492500  0.63636550  1
  H  1746  1  0.33090650  0.08550350  0.59965400  1
  H  1748  1  0.39951750  0.97689200  0.65685350  1
  H  1755  1  0.13027950  0.51269450  0.41497700  1
  H  1762  1  0.05033950  0.42137650  0.27325100  1
  H  1763  1  0.02845000  0.47341250  0.30053550  1
  H  1764  1  0.16471700  0.51884500  0.37153000  1
  H  1765  1  0.06631900  0.49689200  0.33940300  1
  H  1766  1  0.12515850  0.49479800  0.33482050  1
  H  1774  1  0.00787650  0.41445650  0.25156500  1
  H  1776  1  0.17352350  0.52302900  0.42899250  1
  H  1783  1  0.48089450  0.86306350  0.08491800  1
  H  1790  1  0.57214950  0.94330350  0.22655000  1
  H  1791  1  0.52020550  0.96526900  0.19921750  1
  H  1792  1  0.47455400  0.82890950  0.12856250  1
  H  1793  1  0.49664200  0.92733150  0.16039250  1
  H  1794  1  0.49855300  0.86854700  0.16517100  1
  H  1802  1  0.57915250  0.98582650  0.24816400  1
  H  1804  1  0.47051850  0.81989450  0.07102900  1
  H  1811  1  0.00656450  0.59777700  0.87624550  1
  H  1818  1  0.91524100  0.64817750  0.86476050  1
  H  1819  1  0.96725750  0.67295750  0.93870400  1
  H  1820  1  0.01275450  0.64735450  0.84793300  1
  H  1821  1  0.99074900  0.65757050  0.92434050  1
  H  1822  1  0.98868700  0.66002200  0.86340600  1
  H  1830  1  0.90828750  0.66291300  0.90028150  1
  H  1832  1  0.01693600  0.59408650  0.84336450  1
  H  1839  1  0.77187950  0.90203700  0.41505150  1
  H  1846  1  0.71041400  0.85177800  0.27343900  1
  H  1847  1  0.75966950  0.82709850  0.30070600  1
  H  1848  1  0.69406000  0.85214600  0.37147900  1
  H  1849  1  0.76054750  0.84231700  0.33952650  1
  H  1850  1  0.69702700  0.83953350  0.33483250  1
  H  1858  1  0.73136900  0.83722200  0.25184200  1
  H  1860  1  0.74266200  0.90560350  0.42900250  1
  H  1867  1  0.71540350  0.63678600  0.62384550  1
  H  1874  1  0.77704200  0.55675100  0.63524900  1
  H  1875  1  0.72784500  0.53479700  0.56130800  1
  H  1876  1  0.79327700  0.67112750  0.65207150  1
  H  1877  1  0.72689900  0.57269900  0.57565600  1
  H  1878  1  0.79036950  0.63154550  0.63653900  1
  H  1886  1  0.75623400  0.51425700  0.59973600  1
  H  1888  1  0.74462750  0.68000550  0.65671900  1
  H  1895  1  0.07864350  0.98711150  0.36305000  1
  H  1902  1  0.22028100  0.07841350  0.44319050  1
  H  1903  1  0.19298550  0.02655350  0.46526000  1
  H  1904  1  0.12225750  0.98074750  0.32886300  1
  H  1905  1  0.15415200  0.00295600  0.42733100  1
  H  1906  1  0.15888000  0.00477800  0.36848700  1
  H  1914  1  0.24192400  0.08547150  0.48573850  1
  H  1916  1  0.06471300  0.97669550  0.31988050  1
  H  1923  1  0.87006600  0.51315150  0.09794950  1
  H  1930  1  0.85855200  0.42166200  0.14811100  1
  H  1931  1  0.93251200  0.47371200  0.17297500  1
  H  1932  1  0.84172250  0.51923850  0.14750000  1
  H  1933  1  0.91817150  0.49727600  0.15769550  1
  H  1934  1  0.85722300  0.49517850  0.16014650  1
  H  1942  1  0.89405450  0.41467250  0.16277700  1
  H  1944  1  0.83715750  0.52345850  0.09424100  1
  H  1951  1  0.40863450  0.27829700  0.40219150  1
  H  1958  1  0.26692800  0.21651450  0.35175450  1
  H  1959  1  0.29420700  0.26577950  0.32708950  1
  H  1960  1  0.36518400  0.20045300  0.35241300  1
  H  1961  1  0.33307600  0.26677600  0.34244200  1
  H  1962  1  0.32848200  0.20332150  0.33978650  1
  H  1970  1  0.24526450  0.23736250  0.33707500  1
  H  1972  1  0.42265600  0.24910200  0.40579900  1
  H  1979  1  0.61761350  0.22164800  0.13668350  1
  H  1986  1  0.62899000  0.28329000  0.05663700  1
  H  1987  1  0.55505550  0.23416950  0.03477100  1
  H  1988  1  0.64590250  0.29953200  0.17104550  1
  H  1989  1  0.56943750  0.23320300  0.07265950  1
  H  1990  1  0.63037350  0.29663550  0.13146600  1
  H  1998  1  0.59344150  0.26250200  0.01417050  1
  H  2000  1  0.65054250  0.25090650  0.17991200  1
  H  2007  1  0.35672100  0.58487450  0.48700050  1
  H  2014  1  0.43695500  0.72647650  0.57829550  1
  H  2015  1  0.45895750  0.69916300  0.52637950  1
  H  2016  1  0.32255000  0.62850100  0.48063700  1
  H  2017  1  0.42099600  0.66035650  0.50276750  1
  H  2018  1  0.36218300  0.66511550  0.50463650  1
  H  2026  1  0.47950300  0.74806450  0.58535250  1
  H  2028  1  0.31357100  0.57097550  0.47662650  1
  H  2035  1  0.09157800  0.37620450  0.01297750  1
  H  2042  1  0.14188800  0.36473450  0.92160650  1
  H  2043  1  0.16665900  0.43869100  0.97358200  1
  H  2044  1  0.14120750  0.34795500  0.01916250  1
  H  2045  1  0.15134150  0.42435800  0.99712950  1
  H  2046  1  0.15387200  0.36346800  0.99512100  1
  H  2054  1  0.15656900  0.40022450  0.91460250  1
  H  2056  1  0.08790100  0.34333850  0.02334350  1
  H  2063  1  0.39595300  0.91496450  0.77819550  1
  H  2070  1  0.34554000  0.77331500  0.71664000  1
  H  2071  1  0.32086250  0.80060350  0.76588900  1
  H  2072  1  0.34606150  0.87142250  0.70037700  1
  H  2073  1  0.33616100  0.83944900  0.76682300  1
  H  2074  1  0.33341650  0.83476900  0.70332750  1
  H  2082  1  0.33091500  0.75169550  0.73754550  1
  H  2084  1  0.39952900  0.92892100  0.74895700  1
  H  2091  1  0.13028350  0.12387200  0.72159050  1
  H  2098  1  0.05034300  0.13524900  0.78337700  1
  H  2099  1  0.02845450  0.06132300  0.73420350  1
  H  2100  1  0.16472150  0.15216050  0.79947600  1
  H  2101  1  0.06632350  0.07571400  0.73320550  1
  H  2102  1  0.12516300  0.13664850  0.79662650  1
  H  2110  1  0.00787950  0.09970600  0.76259850  1
  H  2112  1  0.17352650  0.15678300  0.75081850  1
  H  2119  1  0.50653650  0.87588400  0.59773850  1
  H  2126  1  0.41527900  0.86487200  0.64811400  1
  H  2127  1  0.46722750  0.93878200  0.67272650  1
  H  2128  1  0.51287550  0.84807000  0.64772250  1
  H  2129  1  0.49079150  0.92440550  0.65746600  1
  H  2130  1  0.48887650  0.86370850  0.66033300  1
  H  2138  1  0.40827750  0.90039000  0.66272550  1
  H  2140  1  0.51691150  0.84308950  0.59422500  1
  H  2147  1  0.98086500  0.08492700  0.86339700  1
  H  2154  1  0.07218850  0.22665200  0.94323450  1
  H  2155  1  0.02017300  0.19941550  0.96516150  1
  H  2156  1  0.97467500  0.12831450  0.82889350  1
  H  2157  1  0.99668050  0.16053750  0.92730700  1
  H  2158  1  0.99874150  0.16504900  0.86843350  1
  H  2166  1  0.07914250  0.24834050  0.98570800  1
  H  2168  1  0.97049350  0.07086550  0.82014400  1
  H  2175  1  0.21554950  0.62387150  0.63688800  1
  H  2182  1  0.27701550  0.63507900  0.55674050  1
  H  2183  1  0.22776000  0.56114450  0.53475250  1
  H  2184  1  0.29336900  0.65180100  0.67113500  1
  H  2185  1  0.22688250  0.57548550  0.57269600  1
  H  2186  1  0.29040150  0.63622150  0.63152100  1
  H  2194  1  0.25606150  0.59956850  0.51419000  1
  H  2196  1  0.24476550  0.65665500  0.68005750  1
  H  2203  1  0.27202550  0.41509650  0.90215600  1
  H  2210  1  0.21038700  0.27342350  0.85192150  1
  H  2211  1  0.25958400  0.30066650  0.82717650  1
  H  2212  1  0.19415200  0.37156450  0.85250850  1
  H  2213  1  0.26053050  0.33951500  0.84247250  1
  H  2214  1  0.19705950  0.33489000  0.83988350  1
  H  2222  1  0.23119500  0.25173800  0.83721700  1
  H  2224  1  0.24280250  0.42909300  0.90580650  1
  H  2231  1  0.90878550  0.40218400  0.27812150  1
  H  2238  1  0.76714900  0.35184650  0.21662450  1
  H  2239  1  0.79444300  0.32728200  0.26598800  1
  H  2240  1  0.86517100  0.35220400  0.20032000  1
  H  2241  1  0.83327900  0.34252000  0.26689500  1
  H  2242  1  0.82854950  0.33961400  0.20332250  1
  H  2250  1  0.74550550  0.33726050  0.23752900  1
  H  2252  1  0.92271650  0.40569800  0.24888250  1
  H  2259  1  0.11736350  0.13680100  0.22159850  1
  H  2266  1  0.12887800  0.05682500  0.28327400  1
  H  2267  1  0.05491800  0.03491450  0.23417750  1
  H  2268  1  0.14570750  0.17123100  0.29949250  1
  H  2269  1  0.06925800  0.07281850  0.23323850  1
  H  2270  1  0.13020650  0.13167050  0.29663900  1
  H  2278  1  0.09337400  0.01433150  0.26243650  1
  H  2280  1  0.15027200  0.18001500  0.25079800  1
  H  2287  1  0.57879450  0.36337750  0.98727200  1
  H  2294  1  0.72050200  0.44330100  0.07854100  1
  H  2295  1  0.69322350  0.46528850  0.02659800  1
  H  2296  1  0.62224500  0.32898350  0.98094250  1
  H  2297  1  0.65435450  0.42741500  0.00308150  1
  H  2298  1  0.65894750  0.36855400  0.00501850  1
  H  2306  1  0.74216650  0.48581400  0.08552650  1
  H  2308  1  0.56477400  0.32016200  0.97685800  1
  H  2315  1  0.36981600  0.09774850  0.51278550  1
  H  2322  1  0.35844200  0.14801600  0.42136200  1
  H  2323  1  0.43237550  0.17282900  0.47343150  1
  H  2324  1  0.34152700  0.14734450  0.51885750  1
  H  2325  1  0.41799250  0.15748050  0.49693700  1
  H  2326  1  0.35705600  0.15997650  0.49480750  1
  H  2334  1  0.39398850  0.16277550  0.41444400  1
  H  2336  1  0.33688700  0.09408000  0.52308400  1
  H  2343  1  0.63070800  0.72186700  0.12399300  1
  H  2350  1  0.55047450  0.78323700  0.13505550  1
  H  2351  1  0.52847100  0.73392100  0.06113800  1
  H  2352  1  0.66488000  0.79966700  0.15180200  1
  H  2353  1  0.56643250  0.73307550  0.07548600  1
  H  2354  1  0.62524650  0.79664800  0.13616850  1
  H  2362  1  0.50792700  0.76227700  0.09956500  1
  H  2364  1  0.67385750  0.75111850  0.15676800  1
  H  2371  1  0.89585200  0.77834100  0.91511400  1
  H  2378  1  0.84554150  0.71656100  0.77343350  1
  H  2379  1  0.82077100  0.76574600  0.80063800  1
  H  2380  1  0.84622150  0.70046200  0.87167050  1
  H  2381  1  0.83608750  0.76673200  0.83950350  1
  H  2382  1  0.83355800  0.70331150  0.83496350  1
  H  2390  1  0.83085950  0.73736950  0.75174700  1
  H  2392  1  0.89952950  0.74915300  0.92915750  1
  H  2399  1  0.59147600  0.01272850  0.37595950  1
  H  2406  1  0.64188650  0.92148900  0.36481450  1
  H  2407  1  0.66656450  0.97345600  0.43874150  1
  H  2408  1  0.64136850  0.01907700  0.34803150  1
  H  2409  1  0.65126700  0.99700350  0.42437650  1
  H  2410  1  0.65401200  0.99506750  0.36362650  1
  H  2418  1  0.65651250  0.91449500  0.40034550  1
  H  2420  1  0.58790050  0.02310950  0.34314500  1
  H  2427  1  0.85714750  0.48730450  0.58502200  1
  H  2434  1  0.93708750  0.57862100  0.72674850  1
  H  2435  1  0.95897500  0.52658300  0.69946300  1
  H  2436  1  0.82270800  0.48115400  0.62846900  1
  H  2437  1  0.92110650  0.50310600  0.66059750  1
  H  2438  1  0.86226750  0.50520000  0.66517950  1
  H  2446  1  0.97955100  0.58554150  0.74843450  1
  H  2448  1  0.81390400  0.47697200  0.57100800  1
  H  2455  1  0.50654000  0.13693350  0.91508650  1
  H  2462  1  0.41527800  0.05670850  0.77345250  1
  H  2463  1  0.46721600  0.03473250  0.80077650  1
  H  2464  1  0.51288300  0.17109150  0.87144650  1
  H  2465  1  0.49078100  0.07266600  0.83960700  1
  H  2466  1  0.48887800  0.13145550  0.83483550  1
  H  2474  1  0.40827100  0.01417800  0.75184100  1
  H  2476  1  0.51692150  0.18010400  0.92898050  1
  H  2483  1  0.98086100  0.40222200  0.12375500  1
  H  2490  1  0.07218700  0.35182250  0.13524050  1
  H  2491  1  0.02017100  0.32704100  0.06129700  1
  H  2492  1  0.97467300  0.35264300  0.15206700  1
  H  2493  1  0.99667850  0.34242800  0.07566050  1
  H  2494  1  0.99873950  0.33997650  0.13659400  1
  H  2502  1  0.07914150  0.33708900  0.09972150  1
  H  2504  1  0.97048900  0.40591050  0.15663550  1
  H  2511  1  0.21554200  0.09796150  0.58494050  1
  H  2518  1  0.27701250  0.14821650  0.72655400  1
  H  2519  1  0.22775850  0.17289700  0.69928950  1
  H  2520  1  0.29336300  0.14784850  0.62851150  1
  H  2521  1  0.22687850  0.15767750  0.66046700  1
  H  2522  1  0.29039650  0.16045800  0.66515850  1
  H  2530  1  0.25606050  0.16277550  0.74815400  1
  H  2532  1  0.24475650  0.09439550  0.57098300  1
  H  2539  1  0.27202850  0.36321700  0.37615550  1
  H  2546  1  0.21038250  0.44324400  0.36474550  1
  H  2547  1  0.25957900  0.46520000  0.43868800  1
  H  2548  1  0.19415450  0.32887050  0.34792700  1
  H  2549  1  0.26052750  0.42730000  0.42434050  1
  H  2550  1  0.19706000  0.36845200  0.36345800  1
  H  2558  1  0.23118850  0.48573750  0.40025800  1
  H  2560  1  0.24280650  0.31999600  0.34328150  1
  H  2567  1  0.90879050  0.01289250  0.63695500  1
  H  2574  1  0.76715450  0.92159150  0.55679600  1
  H  2575  1  0.79446000  0.97346000  0.53474200  1
  H  2576  1  0.86517300  0.01925150  0.67113950  1
  H  2577  1  0.83328950  0.99705750  0.57267600  1
  H  2578  1  0.82855050  0.99522500  0.63151350  1
  H  2586  1  0.74551000  0.91453800  0.51425800  1
  H  2588  1  0.92271700  0.02330350  0.68012350  1
  H  2595  1  0.11735800  0.48684300  0.90204800  1
  H  2602  1  0.12887500  0.57833450  0.85188750  1
  H  2603  1  0.05491450  0.52628550  0.82702500  1
  H  2604  1  0.14570250  0.48075700  0.85249750  1
  H  2605  1  0.06925550  0.50272150  0.84230500  1
  H  2606  1  0.13020450  0.50481900  0.83985250  1
  H  2614  1  0.09337200  0.58532450  0.83722350  1
  H  2616  1  0.15026650  0.47653550  0.90575600  1
  H  2623  1  0.57880300  0.72170450  0.59781050  1
  H  2630  1  0.72050850  0.78348800  0.64824850  1
  H  2631  1  0.69323050  0.73422100  0.67291250  1
  H  2632  1  0.62225250  0.79954900  0.64759150  1
  H  2633  1  0.65436100  0.73322450  0.65756050  1
  H  2634  1  0.65895300  0.79667950  0.66021750  1
  H  2642  1  0.74217300  0.76264100  0.66292800  1
  H  2644  1  0.56478300  0.75090000  0.59420300  1
  H  2651  1  0.36981050  0.77835500  0.86331850  1
  H  2658  1  0.35843950  0.71671600  0.94336850  1
  H  2659  1  0.43237300  0.76583600  0.96523300  1
  H  2660  1  0.34152250  0.70047000  0.82895850  1
  H  2661  1  0.41798950  0.76680150  0.92734300  1
  H  2662  1  0.35705350  0.70336850  0.86853900  1
  H  2670  1  0.39398800  0.73750400  0.98583500  1
  H  2672  1  0.33688050  0.74909450  0.82009100  1
  H  2679  1  0.63070200  0.41511700  0.51299000  1
  H  2686  1  0.55048050  0.27351250  0.42170000  1
  H  2687  1  0.52847100  0.30082050  0.47361150  1
  H  2688  1  0.66487650  0.37149400  0.51935750  1
  H  2689  1  0.56642950  0.33963200  0.49722150  1
  H  2690  1  0.62524450  0.33487750  0.49535700  1
  H  2698  1  0.50792800  0.25192600  0.41464200  1
  H  2700  1  0.67385250  0.42901750  0.52336500  1
  H  2707  1  0.89585250  0.62379750  0.98702500  1
  H  2714  1  0.84553900  0.63526250  0.07839350  1
  H  2715  1  0.82076750  0.56130600  0.02641550  1
  H  2716  1  0.84622250  0.65204650  0.98084000  1
  H  2717  1  0.83608550  0.57563900  0.00286850  1
  H  2718  1  0.83355650  0.63653050  0.00488100  1
  H  2726  1  0.83085700  0.59977100  0.08539600  1
  H  2728  1  0.89952950  0.65666350  0.97666000  1
  H  2735  1  0.59149000  0.08504200  0.22181000  1
  H  2742  1  0.64189950  0.22669050  0.28336700  1
  H  2743  1  0.66657750  0.19940400  0.23411650  1
  H  2744  1  0.64138300  0.12858500  0.29963100  1
  H  2745  1  0.65128100  0.16055850  0.23318350  1
  H  2746  1  0.65402650  0.16523800  0.29667850  1
  H  2754  1  0.65652250  0.24831100  0.26246150  1
  H  2756  1  0.58791200  0.07108550  0.25104750  1
  H  2763  1  0.85714950  0.87613000  0.27841150  1
  H  2770  1  0.93709000  0.86475250  0.21662650  1
  H  2771  1  0.95897900  0.93867700  0.26580000  1
  H  2772  1  0.82271300  0.84784300  0.20052700  1
  H  2773  1  0.92110950  0.92428750  0.26679800  1
  H  2774  1  0.86227150  0.86335450  0.20337600  1
  H  2782  1  0.97955250  0.90029450  0.23740300  1
  H  2784  1  0.81390550  0.84321900  0.24918250  1
  N  1459  1  0.51054050  0.10675150  0.39434400  1
  N  1460  1  0.55186400  0.15763250  0.37349050  1
  N  1465  1  0.56106250  0.08882700  0.32746650  1
  N  1467  1  0.46338500  0.15009100  0.38779600  1
  N  1487  1  0.97684250  0.87735400  0.08967350  1
  N  1488  1  0.93543100  0.81531400  0.09943500  1
  N  1493  1  0.92638350  0.75994300  0.02159450  1
  N  1495  1  0.02415200  0.91835950  0.18021350  1
  N  1515  1  0.78126600  0.39342900  0.41009600  1
  N  1516  1  0.70952150  0.34245950  0.40046800  1
  N  1521  1  0.73232300  0.41123000  0.47851400  1
  N  1523  1  0.73147650  0.35012950  0.31960000  1
  N  1543  1  0.70608200  0.62255000  0.10577600  1
  N  1544  1  0.77784200  0.68464550  0.12640850  1
  N  1549  1  0.75523700  0.73996900  0.17258300  1
  N  1551  1  0.75577700  0.58172650  0.11216750  1
  N  1571  1  0.11622100  0.60571000  0.71246400  1
  N  1572  1  0.17837750  0.62657900  0.78424350  1
  N  1577  1  0.23362250  0.67253450  0.76143400  1
  N  1579  1  0.07557400  0.61227550  0.76231050  1
  N  1599  1  0.88730300  0.91014950  0.78767150  1
  N  1600  1  0.83610150  0.90044900  0.71593450  1
  N  1605  1  0.90486300  0.97838000  0.73852500  1
  N  1607  1  0.84399600  0.81961750  0.73805350  1
  N  1627  1  0.37095500  0.58966800  0.98299300  1
  N  1628  1  0.30886850  0.59939550  0.94168100  1
  N  1633  1  0.25354600  0.52148600  0.93256500  1
  N  1635  1  0.41184450  0.68018150  0.03031700  1
  N  1655  1  0.60034800  0.89430550  0.51692150  1
  N  1656  1  0.65149000  0.87372100  0.55844200  1
  N  1661  1  0.58266150  0.82742650  0.56746600  1
  N  1663  1  0.64368150  0.88794350  0.46972700  1
  N  1683  1  0.40372850  0.28756000  0.89335350  1
  N  1684  1  0.39414200  0.21581500  0.84246600  1
  N  1689  1  0.47222100  0.23869150  0.91124150  1
  N  1691  1  0.31323350  0.23768500  0.85000850  1
  N  1711  1  0.09956200  0.21240050  0.12257750  1
  N  1712  1  0.12019250  0.28418750  0.18461800  1
  N  1717  1  0.16639450  0.26163800  0.23998350  1
  N  1719  1  0.10588000  0.26200900  0.08165500  1
  N  1739  1  0.38797400  0.01692200  0.60670700  1
  N  1740  1  0.36717450  0.05823850  0.65766200  1
  N  1745  1  0.32107850  0.06740850  0.58886500  1
  N  1747  1  0.38153900  0.96974900  0.65003700  1
  N  1767  1  0.08332800  0.48299300  0.37728800  1
  N  1768  1  0.09301900  0.44154800  0.31519700  1
  N  1773  1  0.01518750  0.43255300  0.25987350  1
  N  1775  1  0.17386250  0.53024050  0.41821700  1
  N  1795  1  0.51053750  0.91007250  0.12248200  1
  N  1796  1  0.55186550  0.90052450  0.18466600  1
  N  1801  1  0.56105950  0.97853350  0.23987400  1
  N  1803  1  0.46339350  0.81957750  0.08188100  1
  N  1823  1  0.97683850  0.60577150  0.89345400  1
  N  1824  1  0.93542850  0.62640150  0.84228200  1
  N  1829  1  0.92638250  0.67272700  0.91107650  1
  N  1831  1  0.02414800  0.61207500  0.85022200  1
  N  1851  1  0.78126050  0.89411750  0.37745000  1
  N  1852  1  0.70951800  0.87334100  0.31533300  1
  N  1857  1  0.73232200  0.82737500  0.26008900  1
  N  1859  1  0.73146650  0.88762950  0.41815100  1
  N  1879  1  0.70608000  0.58981700  0.60658800  1
  N  1880  1  0.77783950  0.59947850  0.65771500  1
  N  1885  1  0.75523100  0.52154800  0.58893300  1
  N  1887  1  0.75578000  0.68033550  0.64989550  1
  N  1907  1  0.11622500  0.01680250  0.41004450  1
  N  1908  1  0.17837750  0.05808800  0.40041450  1
  N  1913  1  0.23363450  0.06737900  0.47846350  1
  N  1915  1  0.07557500  0.96958450  0.31955250  1
  N  1935  1  0.88730100  0.48343650  0.10591650  1
  N  1936  1  0.83609900  0.44193400  0.12645100  1
  N  1941  1  0.90485900  0.43276550  0.17262350  1
  N  1943  1  0.84399000  0.53065650  0.11222450  1
  N  1963  1  0.37096250  0.28757450  0.39424900  1
  N  1964  1  0.30887500  0.21576150  0.37347750  1
  N  1969  1  0.25355250  0.23834650  0.32726800  1
  N  1971  1  0.41185200  0.23795150  0.38781550  1
  N  1991  1  0.60034250  0.21233150  0.08971300  1
  N  1992  1  0.65148650  0.28405900  0.09933950  1
  N  1997  1  0.58266050  0.26152500  0.02148650  1
  N  1999  1  0.64367200  0.26202250  0.18024150  1
  N  2019  1  0.40372300  0.62244350  0.51664950  1
  N  2020  1  0.39414200  0.68460550  0.55795350  1
  N  2025  1  0.47223100  0.73979650  0.56726050  1
  N  2027  1  0.31322900  0.58182850  0.46950350  1
  N  2047  1  0.09956000  0.39344500  0.98326900  1
  N  2048  1  0.12019050  0.34228850  0.94186100  1
  N  2053  1  0.16639200  0.41103750  0.93269450  1
  N  2055  1  0.10588100  0.35015800  0.03051300  1
  N  2075  1  0.38798900  0.87734650  0.78756150  1
  N  2076  1  0.36718750  0.81522750  0.71580600  1
  N  2081  1  0.32108750  0.75996300  0.73850550  1
  N  2083  1  0.38155150  0.91808500  0.73779650  1
  N  2103  1  0.08333050  0.10662100  0.71232850  1
  N  2104  1  0.09302300  0.15775700  0.78411100  1
  N  2109  1  0.01519000  0.08891950  0.76160250  1
  N  2111  1  0.17386500  0.14990950  0.76193250  1
  N  2131  1  0.47689300  0.89325050  0.60565950  1
  N  2132  1  0.43556500  0.84237600  0.62651600  1
  N  2137  1  0.42637200  0.91119350  0.67252650  1
  N  2139  1  0.52403700  0.84989750  0.61220250  1
  N  2159  1  0.01059200  0.12264900  0.91033200  1
  N  2160  1  0.05200200  0.18468850  0.90056950  1
  N  2165  1  0.06104800  0.24005850  0.97840850  1
  N  2167  1  0.96328300  0.08164200  0.81979100  1
  N  2187  1  0.20616800  0.60657150  0.58990350  1
  N  2188  1  0.27791100  0.65753750  0.59952950  1
  N  2193  1  0.25510850  0.58876900  0.52148350  1
  N  2195  1  0.25596050  0.64987650  0.68039900  1
  N  2215  1  0.28134900  0.37745050  0.89422250  1
  N  2216  1  0.20959000  0.31535300  0.87359000  1
  N  2221  1  0.23219750  0.26003150  0.82741700  1
  N  2223  1  0.23164950  0.41827000  0.88782950  1
  N  2243  1  0.87120450  0.39429200  0.28753450  1
  N  2244  1  0.80905100  0.37342400  0.21575200  1
  N  2249  1  0.75379400  0.32745800  0.23854400  1
  N  2251  1  0.91185400  0.38772400  0.23769300  1
  N  2271  1  0.10012950  0.08985050  0.21233100  1
  N  2272  1  0.15133150  0.09955150  0.28406800  1
  N  2277  1  0.08257100  0.02162150  0.26148050  1
  N  2279  1  0.14344050  0.18038100  0.26194950  1
  N  2299  1  0.61646750  0.41032750  0.01700200  1
  N  2300  1  0.67855500  0.40060100  0.05831700  1
  N  2305  1  0.73387700  0.47850900  0.06743000  1
  N  2307  1  0.57557750  0.31981550  0.96967800  1
  N  2327  1  0.38708750  0.10570350  0.48308700  1
  N  2328  1  0.33594400  0.12628850  0.44156850  1
  N  2333  1  0.40477000  0.17257900  0.43254100  1
  N  2335  1  0.34375650  0.11206550  0.53028500  1
  N  2355  1  0.58370700  0.71243650  0.10664250  1
  N  2356  1  0.59328750  0.78417900  0.15752650  1
  N  2361  1  0.51519900  0.76128250  0.08874550  1
  N  2363  1  0.67420100  0.76231500  0.14998800  1
  N  2383  1  0.88786900  0.78760000  0.87742400  1
  N  2384  1  0.86724000  0.71581200  0.81538600  1
  N  2389  1  0.82103800  0.73836100  0.76001800  1
  N  2391  1  0.88155000  0.73799250  0.91834750  1
  N  2411  1  0.59944050  0.98307450  0.39328800  1
  N  2412  1  0.62024050  0.94175500  0.34233250  1
  N  2417  1  0.66634000  0.93259050  0.41113250  1
  N  2419  1  0.60588000  0.03025150  0.34996250  1
  N  2439  1  0.90409950  0.51700600  0.62271250  1
  N  2440  1  0.89440800  0.55844950  0.68480350  1
  N  2445  1  0.97224050  0.56744550  0.74012700  1
  N  2447  1  0.81356450  0.46975900  0.58178250  1
  N  2467  1  0.47688950  0.08992550  0.87752100  1
  N  2468  1  0.43556550  0.09948400  0.81534350  1
  N  2473  1  0.42636650  0.02147900  0.76012050  1
  N  2475  1  0.52404450  0.18042050  0.91812600  1
  N  2495  1  0.01058750  0.39422700  0.10654650  1
  N  2496  1  0.05199900  0.37359800  0.15771900  1
  N  2501  1  0.06104650  0.32727550  0.08892600  1
  N  2503  1  0.96327800  0.38792250  0.14977750  1
  N  2523  1  0.20616250  0.10587650  0.62254400  1
  N  2524  1  0.27790650  0.12665350  0.68466100  1
  N  2529  1  0.25510800  0.17262200  0.73990600  1
  N  2531  1  0.25595250  0.11236900  0.58183750  1
  N  2551  1  0.28134750  0.41018350  0.39340900  1
  N  2552  1  0.20958750  0.40051750  0.34228100  1
  N  2557  1  0.23219150  0.47844700  0.41106150  1
  N  2559  1  0.23165250  0.31966500  0.35010550  1
  N  2579  1  0.87121000  0.98320600  0.58995900  1
  N  2580  1  0.80905100  0.94191600  0.59957900  1
  N  2585  1  0.75381150  0.93262900  0.52152250  1
  N  2587  1  0.91185450  0.03041550  0.68045100  1
  N  2607  1  0.10012650  0.51656150  0.89408300  1
  N  2608  1  0.15132850  0.55806250  0.87354800  1
  N  2613  1  0.08256750  0.56723250  0.82737700  1
  N  2615  1  0.14343450  0.46933850  0.88777300  1
  N  2635  1  0.61647500  0.71242650  0.60575350  1
  N  2636  1  0.67856100  0.78424150  0.62652550  1
  N  2641  1  0.73388500  0.76165550  0.67273450  1
  N  2643  1  0.57558500  0.76204950  0.61218650  1
  N  2663  1  0.38708300  0.78767150  0.91028850  1
  N  2664  1  0.33594050  0.71594550  0.90066600  1
  N  2669  1  0.40476900  0.73848050  0.97851850  1
  N  2671  1  0.34375050  0.73797800  0.81976050  1
  N  2691  1  0.58370100  0.37754650  0.48334050  1
  N  2692  1  0.59328850  0.31538850  0.44204000  1
  N  2697  1  0.51520850  0.26018450  0.43273500  1
  N  2699  1  0.67419650  0.41816700  0.53048950  1
  N  2719  1  0.88786800  0.60655400  0.01673200  1
  N  2720  1  0.86723750  0.65770900  0.05813950  1
  N  2725  1  0.82103400  0.58895750  0.06730250  1
  N  2727  1  0.88154900  0.64984400  0.96949000  1
  N  2747  1  0.59945350  0.12266000  0.21244550  1
  N  2748  1  0.62025500  0.18477850  0.28420150  1
  N  2753  1  0.66635050  0.24004350  0.26150100  1
  N  2755  1  0.60589100  0.08192300  0.26221100  1
  N  2775  1  0.90410200  0.89337900  0.28767400  1
  N  2776  1  0.89441050  0.84224500  0.21589250  1
  N  2781  1  0.97224150  0.91107950  0.23840000  1
  N  2783  1  0.81356800  0.85009350  0.23806850  1
  O  27  1  0.51473050  0.25721800  0.46724150  1
  O  28  1  0.43967950  0.21006600  0.46710850  1
  O  29  1  0.43476200  0.14621700  0.35166500  1
  O  30  1  0.40436050  0.20572150  0.35167500  1
  O  57  1  0.97261450  0.94602850  0.23589700  1
  O  58  1  0.04759950  0.02113800  0.26401050  1
  O  59  1  0.05279050  0.91082950  0.20490400  1
  O  60  1  0.08309050  0.94099850  0.29476600  1
  O  87  1  0.70383200  0.24298550  0.26403550  1
  O  88  1  0.75087800  0.29000500  0.23607000  1
  O  89  1  0.69917250  0.35391750  0.29479600  1
  O  90  1  0.63971700  0.29426250  0.20489550  1
  O  117  1  0.78357150  0.55396200  0.03279450  1
  O  118  1  0.73677200  0.47892550  0.03287550  1
  O  119  1  0.78807600  0.58931400  0.14832000  1
  O  120  1  0.84782500  0.55922450  0.14835750  1
  O  147  1  0.04759800  0.53274450  0.78987650  1
  O  148  1  0.97261250  0.53286900  0.74300250  1
  O  149  1  0.08308950  0.64837600  0.79461250  1
  O  150  1  0.05278800  0.64824300  0.85417200  1
  O  177  1  0.73677800  0.76413400  0.71018300  1
  O  178  1  0.78357500  0.73589250  0.75706150  1
  O  179  1  0.84783100  0.79488500  0.70575500  1
  O  180  1  0.78808050  0.70504700  0.64604250  1
  O  207  1  0.43967500  0.73590000  0.97885500  1
  O  208  1  0.51472300  0.76377800  0.05376300  1
  O  209  1  0.40435650  0.70492100  0.05896750  1
  O  210  1  0.43477050  0.79483000  0.08938950  1
  O  237  1  0.75089200  0.96716650  0.52108250  1
  O  238  1  0.70382150  0.96713150  0.44607600  1
  O  239  1  0.63972050  0.85174600  0.44111550  1
  O  240  1  0.69916350  0.85153850  0.41065400  1
  O  267  1  0.25765350  0.21012000  0.74289850  1
  O  268  1  0.22966300  0.25710500  0.78994100  1
  O  269  1  0.28842550  0.20538750  0.85379700  1
  O  270  1  0.19852950  0.14593050  0.79414400  1
  O  297  1  0.02650850  0.28982400  0.05393950  1
  O  298  1  0.02650900  0.24297150  0.97885550  1
  O  299  1  0.14201400  0.29428450  0.08919250  1
  O  300  1  0.14201300  0.35401750  0.05910950  1
  O  327  1  0.46091600  0.02107900  0.75720100  1
  O  328  1  0.46092350  0.94614600  0.70999850  1
  O  329  1  0.34540700  0.94108650  0.64612950  1
  O  330  1  0.34541600  0.91061450  0.70557550  1
  O  357  1  0.22965650  0.47883900  0.44600050  1
  O  358  1  0.25765200  0.55381500  0.52103500  1
  O  359  1  0.19852650  0.55888300  0.41066950  1
  O  360  1  0.28842000  0.58931900  0.44090700  1
  O  747  1  0.47270700  0.74276750  0.53275350  1
  O  748  1  0.54775500  0.78993900  0.53289500  1
  O  749  1  0.55265950  0.85377250  0.64833300  1
  O  750  1  0.58307300  0.79427800  0.64832600  1
  O  777  1  0.01481800  0.05397150  0.76410550  1
  O  778  1  0.93983300  0.97886200  0.73599300  1
  O  779  1  0.93464200  0.08917000  0.79510000  1
  O  780  1  0.90434000  0.05900050  0.70523850  1
  O  807  1  0.28360500  0.75702200  0.73596800  1
  O  808  1  0.23654150  0.70999100  0.76391150  1
  O  809  1  0.28826400  0.64608850  0.70520550  1
  O  810  1  0.34771050  0.70574050  0.79511000  1
  O  837  1  0.20385550  0.44603400  0.96720250  1
  O  838  1  0.25065200  0.52107100  0.96712100  1
  O  839  1  0.19934900  0.41068000  0.85167600  1
  O  840  1  0.13959950  0.44077050  0.85163900  1
  O  867  1  0.93982900  0.46725350  0.21012450  1
  O  868  1  0.01481450  0.46712850  0.25699700  1
  O  869  1  0.90433900  0.35162300  0.20538900  1
  O  870  1  0.93463900  0.35175450  0.14582850  1
  O  897  1  0.25065750  0.23586850  0.28981900  1
  O  898  1  0.20385800  0.26410600  0.24293800  1
  O  899  1  0.13960500  0.20511500  0.29424800  1
  O  900  1  0.19935400  0.29495450  0.35395950  1
  O  927  1  0.54775050  0.26410200  0.02114450  1
  O  928  1  0.47270000  0.23620300  0.94622700  1
  O  929  1  0.58306900  0.29507500  0.94102900  1
  O  930  1  0.55266750  0.20516950  0.91061800  1
  O  957  1  0.23655250  0.03284350  0.47890700  1
  O  958  1  0.28359800  0.03287000  0.55391800  1
  O  959  1  0.34771250  0.14826100  0.55889350  1
  O  960  1  0.28825700  0.14846150  0.58933850  1
  O  987  1  0.72977700  0.78987750  0.25709750  1
  O  988  1  0.75777300  0.74289700  0.21005800  1
  O  989  1  0.69901000  0.79461500  0.14620200  1
  O  990  1  0.78890350  0.85407200  0.20585750  1
  O  1017  1  0.96092100  0.71017650  0.94606150  1
  O  1018  1  0.96092200  0.75703050  0.02114650  1
  O  1019  1  0.84541650  0.70571800  0.91081050  1
  O  1020  1  0.84541700  0.64598500  0.94089400  1
  O  1047  1  0.52650850  0.97893450  0.24279400  1
  O  1048  1  0.52651300  0.05387700  0.28999700  1
  O  1049  1  0.64201500  0.05891550  0.35387550  1
  O  1050  1  0.64202250  0.08939200  0.29443550  1
  O  1077  1  0.75776700  0.52115650  0.55399350  1
  O  1078  1  0.72977750  0.44618200  0.47896050  1
  O  1079  1  0.78889950  0.44111600  0.58932950  1
  O  1080  1  0.69900550  0.41067700  0.55908750  1
  O  1461  1  0.55327900  0.16747850  0.36013250  1
  O  1462  1  0.49414800  0.08702500  0.39073100  1
  O  1463  1  0.52446700  0.12153050  0.41750750  1
  O  1464  1  0.57301500  0.16883550  0.39262250  1
  O  1489  1  0.93400550  0.80059550  0.10793400  1
  O  1490  1  0.99325250  0.89000850  0.08627900  1
  O  1491  1  0.96296100  0.88666050  0.09045150  1
  O  1492  1  0.91427100  0.81325650  0.08940450  1
  O  1517  1  0.68631950  0.33259900  0.39204450  1
  O  1518  1  0.79737200  0.41317650  0.41345550  1
  O  1519  1  0.78967500  0.37866900  0.40924900  1
  O  1520  1  0.71747250  0.33126400  0.41041050  1
  O  1545  1  0.80105150  0.69939900  0.13971850  1
  O  1546  1  0.69003250  0.60986650  0.10951300  1
  O  1547  1  0.69758250  0.61324000  0.08259150  1
  O  1548  1  0.76987050  0.68665800  0.10727650  1
  O  1573  1  0.19314750  0.63994750  0.80744700  1
  O  1574  1  0.10345600  0.60932450  0.69634350  1
  O  1575  1  0.10697500  0.58254700  0.70408500  1
  O  1576  1  0.18039200  0.60744100  0.77633000  1
  O  1601  1  0.82617100  0.89199500  0.69272500  1
  O  1602  1  0.90710450  0.91352450  0.80370800  1
  O  1603  1  0.87264650  0.90936150  0.79620400  1
  O  1604  1  0.82497000  0.91044900  0.72394200  1
  O  1629  1  0.29414350  0.60788300  0.94028650  1
  O  1630  1  0.38365400  0.58627350  0.99937650  1
  O  1631  1  0.38023250  0.59049350  0.96909600  1
  O  1632  1  0.30680600  0.58939950  0.92051350  1
  O  1657  1  0.66141000  0.86042950  0.55989750  1
  O  1658  1  0.58055800  0.89054550  0.50048550  1
  O  1659  1  0.61501100  0.91749350  0.53079450  1
  O  1660  1  0.66261600  0.89283950  0.57958850  1
  O  1685  1  0.38573100  0.19261500  0.83262900  1
  O  1686  1  0.40706900  0.30368100  0.91307800  1
  O  1687  1  0.40287400  0.29593450  0.87856650  1
  O  1688  1  0.40406600  0.22374700  0.83125000  1
  O  1713  1  0.13349150  0.30739950  0.19935300  1
  O  1714  1  0.10329500  0.19634250  0.10990050  1
  O  1715  1  0.07637750  0.20389550  0.11328200  1
  O  1716  1  0.10106900  0.27621400  0.18664200  1
  O  1741  1  0.35383550  0.05965600  0.66753150  1
  O  1742  1  0.38433800  0.00053200  0.58696500  1
  O  1743  1  0.41114200  0.03085050  0.62146050  1
  O  1744  1  0.38629800  0.07939200  0.66884200  1
  O  1769  1  0.10150350  0.44012100  0.30046750  1
  O  1770  1  0.07995600  0.49941500  0.38996000  1
  O  1771  1  0.08410950  0.46911000  0.38659250  1
  O  1772  1  0.08298750  0.42038900  0.31313850  1
  O  1797  1  0.55328250  0.89209700  0.19944150  1
  O  1798  1  0.49414500  0.91340400  0.10970000  1
  O  1799  1  0.52446750  0.90922250  0.11324900  1
  O  1800  1  0.57301600  0.91047400  0.18668400  1
  O  1825  1  0.93400300  0.63969400  0.83235800  1
  O  1826  1  0.99324850  0.60952650  0.91325900  1
  O  1827  1  0.96295700  0.58258350  0.87879450  1
  O  1828  1  0.91426900  0.60730050  0.83115350  1
  O  1853  1  0.68631400  0.85999850  0.30055250  1
  O  1854  1  0.79736600  0.89047750  0.39019650  1
  O  1855  1  0.78966850  0.91728500  0.38670350  1
  O  1856  1  0.71746800  0.89248800  0.31334000  1
  O  1881  1  0.80104850  0.60793200  0.66761350  1
  O  1882  1  0.69003100  0.58645300  0.58680300  1
  O  1883  1  0.69758250  0.59062900  0.62127450  1
  O  1884  1  0.76986750  0.58949400  0.66887450  1
  O  1909  1  0.19314400  0.05948550  0.39197650  1
  O  1910  1  0.10346300  0.00042600  0.41340300  1
  O  1911  1  0.10697750  0.03071850  0.40917700  1
  O  1912  1  0.18039350  0.07924050  0.41034200  1
  O  1937  1  0.82616800  0.44045750  0.13972950  1
  O  1938  1  0.90710200  0.49986250  0.10968150  1
  O  1939  1  0.87264300  0.46956550  0.08272650  1
  O  1940  1  0.82496700  0.42080300  0.10731200  1
  O  1965  1  0.29415000  0.19254750  0.36014650  1
  O  1966  1  0.38366100  0.30366800  0.39056500  1
  O  1967  1  0.38023950  0.29602800  0.41742450  1
  O  1968  1  0.30681150  0.22369400  0.39258050  1
  O  1993  1  0.66140700  0.30727100  0.10780400  1
  O  1994  1  0.58055300  0.19630000  0.08636000  1
  O  1995  1  0.61500550  0.20380600  0.09050550  1
  O  1996  1  0.66261300  0.27606700  0.08932000  1
  O  2021  1  0.38573550  0.69939800  0.55938350  1
  O  2022  1  0.40706300  0.60966200  0.50026600  1
  O  2023  1  0.40286750  0.61321450  0.53058200  1
  O  2024  1  0.40406550  0.68659450  0.57909400  1
  O  2049  1  0.13349000  0.33237500  0.94042500  1
  O  2050  1  0.10329450  0.41323700  0.99967950  1
  O  2051  1  0.07637700  0.37876650  0.96938250  1
  O  2052  1  0.10106600  0.33113600  0.92071300  1
  O  2077  1  0.35384900  0.80047200  0.69259800  1
  O  2078  1  0.38435000  0.89009900  0.80366600  1
  O  2079  1  0.41115650  0.88658650  0.79597700  1
  O  2080  1  0.38631150  0.81319800  0.72374950  1
  O  2105  1  0.10150500  0.16766850  0.80732450  1
  O  2106  1  0.07995800  0.08682700  0.69628400  1
  O  2107  1  0.08411417  0.12128550  0.70380867  1
  O  2108  1  0.08299200  0.16888500  0.77613800  1
  O  2133  1  0.43414600  0.83253200  0.63987400  1
  O  2134  1  0.49328650  0.91297350  0.60927000  1
  O  2135  1  0.46296350  0.87847100  0.58249650  1
  O  2136  1  0.41441450  0.83117550  0.60738200  1
  O  2161  1  0.05342700  0.19940700  0.89207000  1
  O  2162  1  0.99418100  0.10999350  0.91372650  1
  O  2163  1  0.02447300  0.11334150  0.90955250  1
  O  2164  1  0.07316150  0.18674550  0.91059900  1
  O  2189  1  0.30111400  0.66739950  0.60795350  1
  O  2190  1  0.19006150  0.58682500  0.58654450  1
  O  2191  1  0.19775950  0.62133050  0.59075000  1
  O  2192  1  0.26996100  0.66873450  0.58958750  1
  O  2217  1  0.18638100  0.30059800  0.86028000  1
  O  2218  1  0.29739900  0.39013700  0.89048700  1
  O  2219  1  0.28984800  0.38676100  0.91740800  1
  O  2220  1  0.21756200  0.31334050  0.89272150  1
  O  2245  1  0.79428450  0.36005600  0.19254750  1
  O  2246  1  0.88396750  0.39067700  0.30365550  1
  O  2247  1  0.88045100  0.41745500  0.29591300  1
  O  2248  1  0.80703500  0.39256100  0.22366300  1
  O  2273  1  0.16126200  0.10800500  0.30727700  1
  O  2274  1  0.08032800  0.08647500  0.19629500  1
  O  2275  1  0.11478650  0.09063650  0.20379900  1
  O  2276  1  0.16246300  0.08955050  0.27605950  1
  O  2301  1  0.69328050  0.39211250  0.05971100  1
  O  2302  1  0.60376900  0.41372200  0.00061900  1
  O  2303  1  0.60719150  0.40950350  0.03090000  1
  O  2304  1  0.68061850  0.41059700  0.07948350  1
  O  2329  1  0.32602400  0.13958000  0.44011200  1
  O  2330  1  0.40687750  0.10946250  0.49952300  1
  O  2331  1  0.37242450  0.08251600  0.46921550  1
  O  2332  1  0.32481650  0.10716850  0.42042100  1
  O  2357  1  0.60169500  0.80737850  0.16736350  1
  O  2358  1  0.58036700  0.69631450  0.08691750  1
  O  2359  1  0.58456200  0.70406200  0.12142900  1
  O  2360  1  0.58336350  0.77624400  0.16874250  1
  O  2385  1  0.85394050  0.69259900  0.80065050  1
  O  2386  1  0.88413550  0.80365700  0.89009950  1
  O  2387  1  0.91105250  0.79610400  0.88672050  1
  O  2388  1  0.88636250  0.72378500  0.81336150  1
  O  2413  1  0.63357850  0.94033850  0.33246300  1
  O  2414  1  0.60307800  0.99946450  0.41303050  1
  O  2415  1  0.57627100  0.96914650  0.37853450  1
  O  2416  1  0.60111700  0.92060250  0.33115250  1
  O  2441  1  0.88592450  0.55987800  0.69953350  1
  O  2442  1  0.90747050  0.50058300  0.61004050  1
  O  2443  1  0.90331900  0.53089000  0.61340900  1
  O  2444  1  0.90443900  0.57960800  0.68686100  1
  O  2469  1  0.43415000  0.10791400  0.80057000  1
  O  2470  1  0.49328200  0.08659250  0.89030050  1
  O  2471  1  0.46296250  0.09077950  0.88675700  1
  O  2472  1  0.41441400  0.08953500  0.81332500  1
  O  2497  1  0.05342500  0.36030600  0.16764400  1
  O  2498  1  0.99417750  0.39047050  0.08674100  1
  O  2499  1  0.02446800  0.41741400  0.12120700  1
  O  2500  1  0.07315800  0.39270000  0.16884800  1
  O  2525  1  0.30111050  0.13999450  0.69944000  1
  O  2526  1  0.19005800  0.10951950  0.60979850  1
  O  2527  1  0.19775400  0.08271000  0.61328900  1
  O  2528  1  0.26995800  0.10750700  0.68665300  1
  O  2553  1  0.18637800  0.39206250  0.33238150  1
  O  2554  1  0.29739750  0.41355000  0.41319550  1
  O  2555  1  0.28984750  0.40937450  0.37872500  1
  O  2556  1  0.21755900  0.41050400  0.33112200  1
  O  2581  1  0.79428150  0.94051400  0.60801150  1
  O  2582  1  0.88397500  0.99958500  0.58660400  1
  O  2583  1  0.88045500  0.96928850  0.59082450  1
  O  2584  1  0.80703900  0.92076450  0.58965250  1
  O  2609  1  0.16125950  0.55953950  0.86026900  1
  O  2610  1  0.08032550  0.50013550  0.89031800  1
  O  2611  1  0.11478450  0.53043150  0.91727300  1
  O  2612  1  0.16246000  0.57919400  0.89268700  1
  O  2637  1  0.69328600  0.80745450  0.63985750  1
  O  2638  1  0.60377600  0.69633350  0.60943750  1
  O  2639  1  0.60719750  0.70397400  0.58257650  1
  O  2640  1  0.68062450  0.77630900  0.60742250  1
  O  2665  1  0.32602050  0.69273400  0.89220150  1
  O  2666  1  0.40687250  0.80370400  0.91364150  1
  O  2667  1  0.37242050  0.79619800  0.90949750  1
  O  2668  1  0.32481450  0.72393800  0.91068650  1
  O  2693  1  0.60169950  0.30059950  0.44061300  1
  O  2694  1  0.58036000  0.39032750  0.49972350  1
  O  2695  1  0.58455450  0.38677500  0.46940650  1
  O  2696  1  0.58336400  0.31339700  0.42089900  1
  O  2721  1  0.85393850  0.66762350  0.05957700  1
  O  2722  1  0.88413500  0.58676300  0.00032100  1
  O  2723  1  0.91105300  0.62123300  0.03061900  1
  O  2724  1  0.88636100  0.66886000  0.07928800  1
  O  2749  1  0.63359250  0.19953350  0.30741000  1
  O  2750  1  0.60309150  0.10990800  0.19634050  1
  O  2751  1  0.57628650  0.11342050  0.20403100  1
  O  2752  1  0.60113050  0.18680650  0.27625900  1
  O  2777  1  0.88592650  0.83233200  0.19267850  1
  O  2778  1  0.90747350  0.91317350  0.30371900  1
  O  2779  1  0.90332100  0.87871600  0.29619800  1
  O  2780  1  0.90444100  0.83111600  0.22386600  1
