# generated using pymatgen
data_SiH20C40(NO)4
_symmetry_space_group_name_H-M   'P 1'
_cell_length_a   43.31820000
_cell_length_b   46.79960000
_cell_length_c   46.79960000
_cell_angle_alpha   90.00000000
_cell_angle_beta   90.00000000
_cell_angle_gamma   90.02010000
_symmetry_Int_Tables_number   1
_chemical_formula_structural   SiH20C40(NO)4
_chemical_formula_sum   'Si16 H320 C640 N64 O64'
_cell_volume   94875.62670342
_cell_formula_units_Z   16
loop_
 _symmetry_equiv_pos_site_id
 _symmetry_equiv_pos_as_xyz
  1  'x, y, z'
loop_
 _atom_site_type_symbol
 _atom_site_label
 _atom_site_symmetry_multiplicity
 _atom_site_fract_x
 _atom_site_fract_y
 _atom_site_fract_z
 _atom_site_occupancy
  Si  7  1  0.15942600  0.15344900  0.15317600  1
  Si  48  1  0.15909500  0.84267700  0.84297100  1
  Si  89  1  0.83682500  0.84278100  0.15300900  1
  Si  130  1  0.83660800  0.15355200  0.84277900  1
  Si  171  1  0.83669100  0.15358000  0.15309300  1
  Si  212  1  0.83640700  0.84263200  0.84271100  1
  Si  253  1  0.15929100  0.15359300  0.84293700  1
  Si  294  1  0.15965200  0.84261300  0.15319500  1
  Si  335  1  0.65913100  0.65336900  0.65309800  1
  Si  376  1  0.65945400  0.34272800  0.34275300  1
  Si  417  1  0.33648200  0.34283500  0.65322400  1
  Si  458  1  0.33690200  0.65347600  0.34285800  1
  Si  499  1  0.33640100  0.65364900  0.65321700  1
  Si  540  1  0.33672700  0.34258700  0.34293000  1
  Si  581  1  0.65957200  0.65365000  0.34281100  1
  Si  622  1  0.65933900  0.34256300  0.65297200  1
  H  26  1  0.13382900  0.05574500  0.13839100  1
  H  27  1  0.12721200  0.10566800  0.13205100  1
  H  28  1  0.21343900  0.07058600  0.18831800  1
  H  29  1  0.20716400  0.12070500  0.18212700  1
  H  30  1  0.21374400  0.14687800  0.12018700  1
  H  31  1  0.22383800  0.15177000  0.07039100  1
  H  32  1  0.13017800  0.17219700  0.05609500  1
  H  33  1  0.11971700  0.16703700  0.10532800  1
  H  34  1  0.12847500  0.20644800  0.14747900  1
  H  35  1  0.07739000  0.22127900  0.15872100  1
  H  36  1  0.05897500  0.14019100  0.19444200  1
  H  37  1  0.10989200  0.12546200  0.18416400  1
  H  38  1  0.16722600  0.15472100  0.21288600  1
  H  39  1  0.20058400  0.20067500  0.14108400  1
  H  40  1  0.22967700  0.23044200  0.17186600  1
  H  41  1  0.19582300  0.18527500  0.24350600  1
  H  67  1  0.13340400  0.94030000  0.85798200  1
  H  68  1  0.12686900  0.89035900  0.86423600  1
  H  69  1  0.21293500  0.92570300  0.80789000  1
  H  70  1  0.20674000  0.87555600  0.81399400  1
  H  71  1  0.21348900  0.84926700  0.87584100  1
  H  72  1  0.22372400  0.84434100  0.92560200  1
  H  73  1  0.13012100  0.82377800  0.94010200  1
  H  74  1  0.11952300  0.82896100  0.89089500  1
  H  75  1  0.12810800  0.78966600  0.84868700  1
  H  76  1  0.07702000  0.77481600  0.83741100  1
  H  77  1  0.05866100  0.85590500  0.80168500  1
  H  78  1  0.10957200  0.87065000  0.81200500  1
  H  79  1  0.16681900  0.84151300  0.78324400  1
  H  80  1  0.20026100  0.79545500  0.85492600  1
  H  81  1  0.22930200  0.76575400  0.82406500  1
  H  82  1  0.19536500  0.81102200  0.75253700  1
  H  108  1  0.86237800  0.94049600  0.13822900  1
  H  109  1  0.86898700  0.89057900  0.13185000  1
  H  110  1  0.78282700  0.92562400  0.18822700  1
  H  111  1  0.78909300  0.87550800  0.18199600  1
  H  112  1  0.78246300  0.84930000  0.12007800  1
  H  113  1  0.77230500  0.84438700  0.07029700  1
  H  114  1  0.86596300  0.82402400  0.05589900  1
  H  115  1  0.87648500  0.82920400  0.10511800  1
  H  116  1  0.86787900  0.78983400  0.14726100  1
  H  117  1  0.91898900  0.77507200  0.15851000  1
  H  118  1  0.93723600  0.85615200  0.19432400  1
  H  119  1  0.88630300  0.87081300  0.18402600  1
  H  120  1  0.82909000  0.84152700  0.21272800  1
  H  121  1  0.79570400  0.79551100  0.14098200  1
  H  122  1  0.76666500  0.76574300  0.17180500  1
  H  123  1  0.80055000  0.81097400  0.24338900  1
  H  149  1  0.86233900  0.05591600  0.85767900  1
  H  150  1  0.86887600  0.10585400  0.86396500  1
  H  151  1  0.78272600  0.07054300  0.80770600  1
  H  152  1  0.78892200  0.12068300  0.81384700  1
  H  153  1  0.78231900  0.14692400  0.87581100  1
  H  154  1  0.77226600  0.15181500  0.92561300  1
  H  155  1  0.86592200  0.17238300  0.93982500  1
  H  156  1  0.87633800  0.16723100  0.89059100  1
  H  157  1  0.86753100  0.20659500  0.84842400  1
  H  158  1  0.91862900  0.22145000  0.83721700  1
  H  159  1  0.93708100  0.14035200  0.80156900  1
  H  160  1  0.88615800  0.12559600  0.81181100  1
  H  161  1  0.82874800  0.15477400  0.78306300  1
  H  162  1  0.79541100  0.20071200  0.85486700  1
  H  163  1  0.76624100  0.23040500  0.82409700  1
  H  164  1  0.80006900  0.18525700  0.75244900  1
  H  190  1  0.86590800  0.17254400  0.05603300  1
  H  191  1  0.87638600  0.16731100  0.10525900  1
  H  192  1  0.77230700  0.15179800  0.07028800  1
  H  193  1  0.78240000  0.14689200  0.12008500  1
  H  194  1  0.78893300  0.12072400  0.18193200  1
  H  195  1  0.78272800  0.07059000  0.18807900  1
  H  196  1  0.86245400  0.05594600  0.13826900  1
  H  197  1  0.86902200  0.10588000  0.13200400  1
  H  198  1  0.88605200  0.12570900  0.18436200  1
  H  199  1  0.93696100  0.14045400  0.19476300  1
  H  200  1  0.91884400  0.22136200  0.15853800  1
  H  201  1  0.86773600  0.20655100  0.14727300  1
  H  202  1  0.79555400  0.20078800  0.14098500  1
  H  203  1  0.82876400  0.15477300  0.21279100  1
  H  204  1  0.80009500  0.18526400  0.24339700  1
  H  205  1  0.76640000  0.23050100  0.17175100  1
  H  231  1  0.86571200  0.82365400  0.93973900  1
  H  232  1  0.87613200  0.82887300  0.89050400  1
  H  233  1  0.77212500  0.84445500  0.92558300  1
  H  234  1  0.78216500  0.84935100  0.87577500  1
  H  235  1  0.78870200  0.87559300  0.81396000  1
  H  236  1  0.78258900  0.92574500  0.80791500  1
  H  237  1  0.86242200  0.94020700  0.85764900  1
  H  238  1  0.86889500  0.89025600  0.86381100  1
  H  239  1  0.88585100  0.87043900  0.81146200  1
  H  240  1  0.93673000  0.85563000  0.80110300  1
  H  241  1  0.91837300  0.77472000  0.83725700  1
  H  242  1  0.86729300  0.78959900  0.84848000  1
  H  243  1  0.79517800  0.79547700  0.85481100  1
  H  244  1  0.82840600  0.84151800  0.78301300  1
  H  245  1  0.79965600  0.81106800  0.75240400  1
  H  246  1  0.76594800  0.76581100  0.82404600  1
  H  272  1  0.13032600  0.17263600  0.94004000  1
  H  273  1  0.11973000  0.16738900  0.89083700  1
  H  274  1  0.22385800  0.15180200  0.92561500  1
  H  275  1  0.21364100  0.14687200  0.87584300  1
  H  276  1  0.20692700  0.12064400  0.81406900  1
  H  277  1  0.21304600  0.07048900  0.80802400  1
  H  278  1  0.13336700  0.05601200  0.85796300  1
  H  279  1  0.12688800  0.10596300  0.86412700  1
  H  280  1  0.10979400  0.12575200  0.81179600  1
  H  281  1  0.05892900  0.14057900  0.80140200  1
  H  282  1  0.07732700  0.22152500  0.83746500  1
  H  283  1  0.12840000  0.20661800  0.84873200  1
  H  284  1  0.20048900  0.20079000  0.85493900  1
  H  285  1  0.16714800  0.15469900  0.78321900  1
  H  286  1  0.19580600  0.18516300  0.75254500  1
  H  287  1  0.22962400  0.23046800  0.82411400  1
  H  313  1  0.13043700  0.82360100  0.05614200  1
  H  314  1  0.11995700  0.82886700  0.10536400  1
  H  315  1  0.22404700  0.84431500  0.07039600  1
  H  316  1  0.21394800  0.84925900  0.12018800  1
  H  317  1  0.20738700  0.87551100  0.18201400  1
  H  318  1  0.21357100  0.92565700  0.18811200  1
  H  319  1  0.13384200  0.94022300  0.13828400  1
  H  320  1  0.12729700  0.89028200  0.13206300  1
  H  321  1  0.11027500  0.87051800  0.18440900  1
  H  322  1  0.05935800  0.85579600  0.19478200  1
  H  323  1  0.07749700  0.77482700  0.15868500  1
  H  324  1  0.12862900  0.78962600  0.14744500  1
  H  325  1  0.20077200  0.79539500  0.14112800  1
  H  326  1  0.16759800  0.84148700  0.21290100  1
  H  327  1  0.19626900  0.81101300  0.24353000  1
  H  328  1  0.22992700  0.76570500  0.17191200  1
  H  354  1  0.63354600  0.55566400  0.63830900  1
  H  355  1  0.62690200  0.60558700  0.63199300  1
  H  356  1  0.71321000  0.57051200  0.68816000  1
  H  357  1  0.70690800  0.62063300  0.68199500  1
  H  358  1  0.71347100  0.64684600  0.62014000  1
  H  359  1  0.72359800  0.65176200  0.57035600  1
  H  360  1  0.62992900  0.67211200  0.55600300  1
  H  361  1  0.61943700  0.66693600  0.60523200  1
  H  362  1  0.62815300  0.70635300  0.64738000  1
  H  363  1  0.57708000  0.72118500  0.65866600  1
  H  364  1  0.55871400  0.64011000  0.69443800  1
  H  365  1  0.60962100  0.62538300  0.68411700  1
  H  366  1  0.66697800  0.65458600  0.71280800  1
  H  367  1  0.70021500  0.70065000  0.64102700  1
  H  368  1  0.72930000  0.73041400  0.67181800  1
  H  369  1  0.69558000  0.68513200  0.74343800  1
  H  395  1  0.63371500  0.44035300  0.35772100  1
  H  396  1  0.62716500  0.39040800  0.36395400  1
  H  397  1  0.71337200  0.42576500  0.30779800  1
  H  398  1  0.70716400  0.37561800  0.31388100  1
  H  399  1  0.71378000  0.34931200  0.37572800  1
  H  400  1  0.72391000  0.34435400  0.42550600  1
  H  401  1  0.63026300  0.32382300  0.43982700  1
  H  402  1  0.61977400  0.32903500  0.39060600  1
  H  403  1  0.62851600  0.28969600  0.34841300  1
  H  404  1  0.57741500  0.27484400  0.33719500  1
  H  405  1  0.55900200  0.35593700  0.30149800  1
  H  406  1  0.60993000  0.37068200  0.31175700  1
  H  407  1  0.66733300  0.34158100  0.28304100  1
  H  408  1  0.70060100  0.29551200  0.35478700  1
  H  409  1  0.72975500  0.26584600  0.32398800  1
  H  410  1  0.69600500  0.31112800  0.25239300  1
  H  436  1  0.36212700  0.44053000  0.63846300  1
  H  437  1  0.36872900  0.39060800  0.63212500  1
  H  438  1  0.28243800  0.42571300  0.68828600  1
  H  439  1  0.28869800  0.37559300  0.68209800  1
  H  440  1  0.28219100  0.34934900  0.62018900  1
  H  441  1  0.27213900  0.34440300  0.57039200  1
  H  442  1  0.36583400  0.32406000  0.55617400  1
  H  443  1  0.37625000  0.32926800  0.60540700  1
  H  444  1  0.36747800  0.28985500  0.64753400  1
  H  445  1  0.41859500  0.27508500  0.65872400  1
  H  446  1  0.43690800  0.35616000  0.69451700  1
  H  447  1  0.38596200  0.37082900  0.68428000  1
  H  448  1  0.32858000  0.34160800  0.71292700  1
  H  449  1  0.29537400  0.29557300  0.64112100  1
  H  450  1  0.26621600  0.26584500  0.67188000  1
  H  451  1  0.29991100  0.31109800  0.74353000  1
  H  477  1  0.36261600  0.55583900  0.35776200  1
  H  478  1  0.36917900  0.60577700  0.36402700  1
  H  479  1  0.28295700  0.57047500  0.30786000  1
  H  480  1  0.28917600  0.62061400  0.31397700  1
  H  481  1  0.28258500  0.64689700  0.37585800  1
  H  482  1  0.27250000  0.65181200  0.42564900  1
  H  483  1  0.36616200  0.67230700  0.43991800  1
  H  484  1  0.37661300  0.66713700  0.39068900  1
  H  485  1  0.36785000  0.70650400  0.34852400  1
  H  486  1  0.41893700  0.72136300  0.33727200  1
  H  487  1  0.43734000  0.64027600  0.30157500  1
  H  488  1  0.38642600  0.62552000  0.31186200  1
  H  489  1  0.32900500  0.65464500  0.28314400  1
  H  490  1  0.29577100  0.70069000  0.35491800  1
  H  491  1  0.26661300  0.73037700  0.32413800  1
  H  492  1  0.30032600  0.68511600  0.25251500  1
  H  518  1  0.36588300  0.67257100  0.55621900  1
  H  519  1  0.37622300  0.66735500  0.60546900  1
  H  520  1  0.27222900  0.65188900  0.57026600  1
  H  521  1  0.28218600  0.64699500  0.62008900  1
  H  522  1  0.28860400  0.62079600  0.68200200  1
  H  523  1  0.28237800  0.57066300  0.68813200  1
  H  524  1  0.36215700  0.55601100  0.63839700  1
  H  525  1  0.36874300  0.60594600  0.63214500  1
  H  526  1  0.38573100  0.62574400  0.68450800  1
  H  527  1  0.43665200  0.64045900  0.69490800  1
  H  528  1  0.41857000  0.72140100  0.65874300  1
  H  529  1  0.36745000  0.70662300  0.64748000  1
  H  530  1  0.29523800  0.70083100  0.64105900  1
  H  531  1  0.32842300  0.65486000  0.71290400  1
  H  532  1  0.29974200  0.68536400  0.74348100  1
  H  533  1  0.26605200  0.73054600  0.67179900  1
  H  559  1  0.36584400  0.32363200  0.44001200  1
  H  560  1  0.37636300  0.32884700  0.39079200  1
  H  561  1  0.27226900  0.34436100  0.42568300  1
  H  562  1  0.28240800  0.34925500  0.37589400  1
  H  563  1  0.28903300  0.37549500  0.31410100  1
  H  564  1  0.28287200  0.42564500  0.30804300  1
  H  565  1  0.36259800  0.44019000  0.35789800  1
  H  566  1  0.36911200  0.39024300  0.36408400  1
  H  567  1  0.38613800  0.37046000  0.31170800  1
  H  568  1  0.43701900  0.35569600  0.30129500  1
  H  569  1  0.41879800  0.27477500  0.33748200  1
  H  570  1  0.36771100  0.28960700  0.34875100  1
  H  571  1  0.29552400  0.29538900  0.35495400  1
  H  572  1  0.32886600  0.34145800  0.28321800  1
  H  573  1  0.30024300  0.31096400  0.25255600  1
  H  574  1  0.26640300  0.26569100  0.32413300  1
  H  600  1  0.63033500  0.67264200  0.43985200  1
  H  601  1  0.61988000  0.66741500  0.39062500  1
  H  602  1  0.72392100  0.65187100  0.42564100  1
  H  603  1  0.71384200  0.64695600  0.37584100  1
  H  604  1  0.70726600  0.62071400  0.31401300  1
  H  605  1  0.71341800  0.57056200  0.30798400  1
  H  606  1  0.63366100  0.55605900  0.35780900  1
  H  607  1  0.62715200  0.60601000  0.36396300  1
  H  608  1  0.61010800  0.62578700  0.31163700  1
  H  609  1  0.55923300  0.64058900  0.30124600  1
  H  610  1  0.57760200  0.72156200  0.33726400  1
  H  611  1  0.62868200  0.70668100  0.34852900  1
  H  612  1  0.70080200  0.70081500  0.35487300  1
  H  613  1  0.66748800  0.65478500  0.28310300  1
  H  614  1  0.69617100  0.68525800  0.25247000  1
  H  615  1  0.72998100  0.73049400  0.32408200  1
  H  641  1  0.63031900  0.32357300  0.55586400  1
  H  642  1  0.61973700  0.32883500  0.60507000  1
  H  643  1  0.72391400  0.34421900  0.57029600  1
  H  644  1  0.71371100  0.34915600  0.62007000  1
  H  645  1  0.70705800  0.37541000  0.68186900  1
  H  646  1  0.71328800  0.42555200  0.68798300  1
  H  647  1  0.63366800  0.44019700  0.63802500  1
  H  648  1  0.62708500  0.39026100  0.63178100  1
  H  649  1  0.60998800  0.37053000  0.68415600  1
  H  650  1  0.55907200  0.35585100  0.69458300  1
  H  651  1  0.57708300  0.27487100  0.65845500  1
  H  652  1  0.62821800  0.28962500  0.64716800  1
  H  653  1  0.70044200  0.29530700  0.64099100  1
  H  654  1  0.66713000  0.34142300  0.71269400  1
  H  655  1  0.69567000  0.31090800  0.74338300  1
  H  656  1  0.72948500  0.26559000  0.67183500  1
  H  669  1  0.29133900  0.17770700  0.28776100  1
  H  670  1  0.20474100  0.31848600  0.20824700  1
  H  683  1  0.29096700  0.81857000  0.70824400  1
  H  684  1  0.20428100  0.67776500  0.78772500  1
  H  697  1  0.70491100  0.81846900  0.28760300  1
  H  698  1  0.79171500  0.67774200  0.20820800  1
  H  711  1  0.70456900  0.17760500  0.70819000  1
  H  712  1  0.79125300  0.31844100  0.78761400  1
  H  725  1  0.79116800  0.31907800  0.20879400  1
  H  726  1  0.70493400  0.17729700  0.28694300  1
  H  739  1  0.79076400  0.67726100  0.78697100  1
  H  740  1  0.70451800  0.81898000  0.70882300  1
  H  753  1  0.20467500  0.31899200  0.78700900  1
  H  754  1  0.29100400  0.17727600  0.70894400  1
  H  767  1  0.20517200  0.67715400  0.20895400  1
  H  768  1  0.29148700  0.81894000  0.28701500  1
  H  781  1  0.26176000  0.99766900  0.12499700  1
  H  782  1  0.08885900  0.99850900  0.20794200  1
  H  795  1  0.26134900  0.99864400  0.87108000  1
  H  796  1  0.08832100  0.99756100  0.78835300  1
  H  809  1  0.73474100  0.99863900  0.12464200  1
  H  810  1  0.90753700  0.99763100  0.20765900  1
  H  823  1  0.73429600  0.99760600  0.87079000  1
  H  824  1  0.90745600  0.99866500  0.78828900  1
  H  837  1  0.14628300  0.24875900  0.99763300  1
  H  838  1  0.21535800  0.08028000  0.99839800  1
  H  851  1  0.84997900  0.24877200  0.99845700  1
  H  852  1  0.78049300  0.08037200  0.99747700  1
  H  865  1  0.14596300  0.74747700  0.99862400  1
  H  866  1  0.21517300  0.91589400  0.99755000  1
  H  879  1  0.84981100  0.74747300  0.99738500  1
  H  880  1  0.78091800  0.91599000  0.99836700  1
  H  893  1  0.99743200  0.16554300  0.26712000  1
  H  894  1  0.99860800  0.20418400  0.09131500  1
  H  907  1  0.99870100  0.83078100  0.26705800  1
  H  908  1  0.99791200  0.79185500  0.09129100  1
  H  921  1  0.99867100  0.16524100  0.72907300  1
  H  922  1  0.99741100  0.20421800  0.90470000  1
  H  935  1  0.99733300  0.83046800  0.72884600  1
  H  936  1  0.99803700  0.79220900  0.90467300  1
  H  949  1  0.76146700  0.49763800  0.62473000  1
  H  950  1  0.58867800  0.49838200  0.70787400  1
  H  963  1  0.76159600  0.49870300  0.37116400  1
  H  964  1  0.58878700  0.49762100  0.28805000  1
  H  977  1  0.23449200  0.49867500  0.62460200  1
  H  978  1  0.40712600  0.49773300  0.70791000  1
  H  991  1  0.23458700  0.49757800  0.37105000  1
  H  992  1  0.40763700  0.49854700  0.28835500  1
  H  1005  1  0.64600500  0.74869900  0.49756400  1
  H  1006  1  0.71538900  0.58032700  0.49833600  1
  H  1019  1  0.35024500  0.74872700  0.49851900  1
  H  1020  1  0.28045200  0.58043600  0.49754700  1
  H  1033  1  0.64590600  0.24747900  0.49831200  1
  H  1034  1  0.71527100  0.41584100  0.49749200  1
  H  1047  1  0.34988300  0.24747700  0.49768600  1
  H  1048  1  0.28083600  0.41594100  0.49843000  1
  H  1061  1  0.49728900  0.66549900  0.76719500  1
  H  1062  1  0.49817800  0.70413400  0.59138800  1
  H  1075  1  0.49867000  0.33079700  0.76705200  1
  H  1076  1  0.49725200  0.29191800  0.59127700  1
  H  1089  1  0.49880600  0.66521100  0.22899300  1
  H  1090  1  0.49784100  0.70416400  0.40463000  1
  H  1103  1  0.49737900  0.33051500  0.22885200  1
  H  1104  1  0.49869800  0.29227800  0.40468100  1
  C  1  1  0.21590000  0.21041100  0.21056100  1
  C  2  1  0.21685200  0.21429000  0.18066500  1
  C  3  1  0.20000100  0.19625900  0.16246100  1
  C  4  1  0.18201300  0.17358100  0.17360800  1
  C  5  1  0.18073100  0.17018300  0.20368000  1
  C  6  1  0.19769200  0.18810900  0.22187400  1
  C  8  1  0.12414300  0.16378000  0.16312800  1
  C  9  1  0.10369500  0.14569700  0.17832000  1
  C  10  1  0.07365900  0.15466100  0.18522400  1
  C  11  1  0.06320900  0.18228100  0.17780300  1
  C  12  1  0.08420700  0.20113300  0.16447200  1
  C  13  1  0.11434400  0.19220100  0.15775800  1
  C  14  1  0.16597200  0.15798500  0.11837500  1
  C  15  1  0.16547800  0.11860500  0.15779400  1
  C  16  1  0.14547300  0.09886600  0.14421000  1
  C  17  1  0.14922600  0.06933100  0.14796900  1
  C  18  1  0.17381800  0.05854000  0.16455300  1
  C  19  1  0.19517100  0.07789300  0.17650600  1
  C  20  1  0.19102200  0.10752900  0.17317400  1
  C  21  1  0.19583600  0.15268300  0.10710600  1
  C  22  1  0.20192200  0.15546000  0.07771300  1
  C  23  1  0.17823600  0.16343600  0.05861000  1
  C  24  1  0.14820300  0.16773400  0.06954400  1
  C  25  1  0.14210600  0.16475900  0.09885200  1
  C  42  1  0.21548200  0.78584200  0.78541700  1
  C  43  1  0.21648200  0.78192100  0.81530600  1
  C  44  1  0.19968300  0.79993100  0.83356100  1
  C  45  1  0.18165100  0.82259800  0.82247300  1
  C  46  1  0.18034600  0.82605100  0.79240900  1
  C  47  1  0.19728700  0.80817000  0.77416300  1
  C  49  1  0.12379700  0.83233800  0.83305000  1
  C  50  1  0.10336200  0.85041700  0.81785300  1
  C  51  1  0.07333000  0.84144600  0.81092200  1
  C  52  1  0.06287500  0.81382000  0.81833400  1
  C  53  1  0.08384700  0.79496800  0.83167800  1
  C  54  1  0.11398100  0.80391400  0.83841600  1
  C  55  1  0.16572900  0.83810200  0.87775100  1
  C  56  1  0.16510600  0.87753600  0.83840900  1
  C  57  1  0.14509500  0.89721300  0.85205500  1
  C  58  1  0.14880000  0.92676200  0.84834700  1
  C  59  1  0.17334300  0.93762900  0.83174500  1
  C  60  1  0.19468600  0.91833900  0.81969700  1
  C  61  1  0.19059800  0.88868700  0.82299700  1
  C  62  1  0.19562200  0.84342100  0.88895700  1
  C  63  1  0.20179200  0.84062200  0.91833100  1
  C  64  1  0.17816700  0.83259900  0.93748500  1
  C  65  1  0.14810500  0.82828000  0.92661700  1
  C  66  1  0.14192600  0.83126500  0.89732400  1
  C  83  1  0.78045400  0.78581000  0.21047700  1
  C  84  1  0.77947500  0.78191400  0.18058300  1
  C  85  1  0.79627400  0.79996200  0.16235300  1
  C  86  1  0.81428700  0.82263700  0.17347100  1
  C  87  1  0.81558300  0.82605600  0.20354100  1
  C  88  1  0.79862700  0.80815100  0.22175800  1
  C  90  1  0.87212900  0.83249600  0.16294400  1
  C  91  1  0.89253900  0.85059400  0.17816200  1
  C  92  1  0.92258400  0.84166800  0.18507900  1
  C  93  1  0.93308500  0.81407100  0.17764100  1
  C  94  1  0.91213300  0.79520300  0.16427300  1
  C  95  1  0.88198400  0.80409500  0.15755400  1
  C  96  1  0.83024100  0.83823400  0.11821700  1
  C  97  1  0.83074700  0.87762200  0.15761900  1
  C  98  1  0.85073900  0.89737000  0.14403100  1
  C  99  1  0.84699000  0.92690300  0.14781200  1
  C  100  1  0.82242000  0.93768400  0.16442800  1
  C  101  1  0.80108500  0.91832400  0.17639700  1
  C  102  1  0.80522200  0.88868800  0.17303300  1
  C  103  1  0.80035600  0.84349800  0.10697900  1
  C  104  1  0.79423400  0.84071200  0.07759400  1
  C  105  1  0.81790000  0.83275400  0.05846600  1
  C  106  1  0.84795500  0.82848600  0.06936500  1
  C  107  1  0.85408600  0.83146600  0.09866600  1
  C  124  1  0.77999900  0.21037500  0.78540000  1
  C  125  1  0.77906900  0.21426600  0.81529600  1
  C  126  1  0.79594400  0.19626000  0.83349500  1
  C  127  1  0.81399000  0.17363400  0.82234300  1
  C  128  1  0.81522700  0.17021300  0.79227200  1
  C  129  1  0.79820900  0.18808800  0.77408400  1
  C  131  1  0.87187800  0.16392300  0.83279600  1
  C  132  1  0.89233500  0.14584900  0.81761800  1
  C  133  1  0.92238300  0.15482300  0.81075100  1
  C  134  1  0.93282600  0.18245400  0.81816300  1
  C  135  1  0.91181900  0.20129400  0.83148000  1
  C  136  1  0.88167000  0.19235400  0.83815700  1
  C  137  1  0.83008000  0.15809800  0.87758000  1
  C  138  1  0.83059700  0.11869200  0.83820000  1
  C  139  1  0.85063000  0.09900500  0.85180500  1
  C  140  1  0.84692300  0.06945900  0.84808000  1
  C  141  1  0.82235300  0.05860100  0.83150500  1
  C  142  1  0.80097700  0.07789900  0.81951800  1
  C  143  1  0.80508100  0.10754800  0.82281700  1
  C  144  1  0.80023100  0.15276600  0.88887500  1
  C  145  1  0.79416900  0.15554700  0.91827300  1
  C  146  1  0.81786600  0.16355800  0.93735500  1
  C  147  1  0.84788500  0.16788900  0.92639500  1
  C  148  1  0.85395400  0.16492400  0.89708300  1
  C  165  1  0.78009400  0.21043100  0.21044600  1
  C  166  1  0.79824800  0.18810400  0.22176300  1
  C  167  1  0.81527500  0.17023400  0.20357900  1
  C  168  1  0.81406100  0.17366900  0.17350800  1
  C  169  1  0.79608700  0.19634300  0.16235800  1
  C  170  1  0.77921200  0.21435300  0.18055400  1
  C  172  1  0.87195100  0.16394300  0.16310100  1
  C  173  1  0.88180200  0.19234500  0.15767000  1
  C  174  1  0.91195300  0.20126100  0.16438000  1
  C  175  1  0.93285400  0.18244500  0.17786800  1
  C  176  1  0.92232300  0.15488800  0.18543700  1
  C  177  1  0.89231000  0.14591100  0.17844600  1
  C  178  1  0.83068700  0.11872400  0.15769500  1
  C  179  1  0.83015100  0.15810600  0.11829100  1
  C  180  1  0.85400300  0.16497700  0.09878000  1
  C  181  1  0.84790400  0.16797100  0.06947600  1
  C  182  1  0.81787900  0.16360900  0.05853700  1
  C  183  1  0.79421000  0.15554100  0.07762000  1
  C  184  1  0.80029800  0.15275400  0.10701200  1
  C  185  1  0.80512700  0.10758700  0.17301700  1
  C  186  1  0.80103400  0.07794100  0.17633900  1
  C  187  1  0.82243600  0.05863100  0.16440300  1
  C  188  1  0.84703800  0.06948900  0.14786500  1
  C  189  1  0.85075500  0.09903400  0.14413800  1
  C  206  1  0.77964800  0.78589100  0.78535300  1
  C  207  1  0.79784200  0.80820400  0.77403900  1
  C  208  1  0.81489500  0.82606300  0.79222300  1
  C  209  1  0.81371000  0.82259900  0.82228900  1
  C  210  1  0.79569700  0.79994100  0.83344100  1
  C  211  1  0.77877400  0.78195900  0.81524400  1
  C  213  1  0.87163300  0.83220900  0.83267600  1
  C  214  1  0.88140200  0.80378700  0.83809500  1
  C  215  1  0.91154200  0.79483500  0.83142000  1
  C  216  1  0.93250300  0.81362600  0.81795800  1
  C  217  1  0.92204600  0.84119800  0.81038100  1
  C  218  1  0.89204900  0.85021800  0.81735800  1
  C  219  1  0.83049300  0.87750200  0.83814900  1
  C  220  1  0.82989500  0.83808700  0.87751600  1
  C  221  1  0.85375600  0.83118400  0.89700200  1
  C  222  1  0.84769100  0.82820400  0.92631400  1
  C  223  1  0.81769000  0.83260000  0.93728600  1
  C  224  1  0.79401200  0.84068400  0.91822600  1
  C  225  1  0.80006500  0.84346200  0.88882800  1
  C  226  1  0.80493300  0.88869700  0.82288100  1
  C  227  1  0.80088400  0.91835400  0.81963800  1
  C  228  1  0.82235100  0.93761900  0.83156900  1
  C  229  1  0.84696200  0.92670000  0.84804600  1
  C  230  1  0.85062500  0.89714500  0.85171100  1
  C  247  1  0.21585700  0.21036700  0.78545100  1
  C  248  1  0.19766400  0.18803400  0.77417600  1
  C  249  1  0.18066300  0.17016900  0.79239600  1
  C  250  1  0.18192200  0.17363500  0.82246000  1
  C  251  1  0.19995600  0.19629900  0.83357600  1
  C  252  1  0.21680000  0.21430300  0.81533800  1
  C  254  1  0.12403300  0.16399300  0.83298000  1
  C  255  1  0.11425600  0.19241100  0.83841100  1
  C  256  1  0.08414000  0.20139000  0.83167800  1
  C  257  1  0.06318400  0.18260300  0.81821200  1
  C  258  1  0.07360700  0.15499700  0.81071500  1
  C  259  1  0.10360900  0.14597900  0.81767600  1
  C  260  1  0.16520800  0.11872400  0.83836400  1
  C  261  1  0.16591700  0.15814400  0.87772200  1
  C  262  1  0.14212700  0.16506700  0.89727300  1
  C  263  1  0.14829700  0.16805900  0.92656600  1
  C  264  1  0.17833700  0.16367000  0.93744900  1
  C  265  1  0.20194700  0.15557100  0.91832200  1
  C  266  1  0.19578700  0.15277100  0.88894600  1
  C  267  1  0.19072600  0.10753600  0.82303100  1
  C  268  1  0.19476400  0.07788000  0.81976600  1
  C  269  1  0.17335200  0.05861200  0.83177200  1
  C  270  1  0.14878900  0.06952300  0.84831300  1
  C  271  1  0.14512300  0.09907900  0.85198200  1
  C  288  1  0.21623600  0.78580200  0.21059500  1
  C  289  1  0.19807400  0.80812900  0.22189700  1
  C  290  1  0.18107000  0.82600600  0.20370200  1
  C  291  1  0.18227600  0.82254300  0.17363600  1
  C  292  1  0.20024500  0.79985800  0.16249700  1
  C  293  1  0.21712100  0.78186200  0.18070600  1
  C  295  1  0.12439000  0.83225500  0.16320500  1
  C  296  1  0.11453000  0.80385600  0.15777300  1
  C  297  1  0.08437600  0.79494700  0.16447500  1
  C  298  1  0.06347300  0.81377800  0.17793400  1
  C  299  1  0.07399200  0.84134800  0.18547200  1
  C  300  1  0.10402600  0.85030400  0.17852400  1
  C  301  1  0.16564800  0.87747600  0.15775300  1
  C  302  1  0.16619300  0.83805500  0.11839700  1
  C  303  1  0.14234100  0.83118200  0.09888600  1
  C  304  1  0.14844400  0.82816200  0.06958400  1
  C  305  1  0.17847000  0.83251400  0.05864900  1
  C  306  1  0.20214300  0.84058000  0.07772900  1
  C  307  1  0.19605100  0.84338700  0.10711700  1
  C  308  1  0.19119600  0.88863600  0.17307600  1
  C  309  1  0.19528000  0.91828700  0.17636200  1
  C  310  1  0.17386600  0.93757800  0.16441500  1
  C  311  1  0.14927200  0.92669400  0.14788200  1
  C  312  1  0.14558200  0.89714500  0.14416200  1
  C  329  1  0.71557400  0.71033700  0.71050200  1
  C  330  1  0.71649500  0.71425000  0.68061100  1
  C  331  1  0.69965400  0.69621400  0.66240100  1
  C  332  1  0.68170600  0.67350300  0.67353800  1
  C  333  1  0.68045200  0.67007500  0.70360700  1
  C  334  1  0.69740800  0.68799800  0.72180600  1
  C  336  1  0.62384300  0.66369100  0.66305100  1
  C  337  1  0.60341300  0.64561200  0.67826700  1
  C  338  1  0.57338400  0.65457700  0.68519600  1
  C  339  1  0.56292500  0.68219300  0.67777700  1
  C  340  1  0.58390400  0.70104000  0.66441400  1
  C  341  1  0.61403500  0.69210700  0.65767300  1
  C  342  1  0.66569000  0.65791400  0.61830300  1
  C  343  1  0.66519100  0.61852700  0.65770700  1
  C  344  1  0.64517900  0.59878500  0.64413400  1
  C  345  1  0.64894800  0.56925200  0.64788000  1
  C  346  1  0.67356400  0.55846300  0.66443300  1
  C  347  1  0.69492400  0.57781800  0.67637100  1
  C  348  1  0.69076000  0.60745400  0.67305500  1
  C  349  1  0.69556600  0.65263800  0.60705000  1
  C  350  1  0.70167000  0.65542800  0.57766100  1
  C  351  1  0.67799200  0.66338600  0.55854600  1
  C  352  1  0.64794600  0.66765900  0.56946200  1
  C  353  1  0.64183100  0.66467400  0.59876600  1
  C  370  1  0.71603100  0.28593800  0.28531500  1
  C  371  1  0.71694300  0.28200200  0.31520200  1
  C  372  1  0.70007900  0.29999500  0.33342200  1
  C  373  1  0.68206600  0.32265800  0.32230000  1
  C  374  1  0.68084000  0.32612100  0.29223300  1
  C  375  1  0.69785200  0.30826100  0.27402400  1
  C  377  1  0.62418000  0.33236600  0.33278100  1
  C  378  1  0.60373200  0.35044300  0.31759700  1
  C  379  1  0.57368900  0.34147100  0.31070400  1
  C  380  1  0.56324100  0.31385000  0.31814000  1
  C  381  1  0.58423900  0.29499100  0.33144100  1
  C  382  1  0.61438100  0.30393700  0.33814400  1
  C  383  1  0.66601300  0.33815700  0.37754600  1
  C  384  1  0.66546300  0.37759100  0.33820200  1
  C  385  1  0.64541900  0.39726700  0.35180900  1
  C  386  1  0.64913300  0.42681500  0.34811600  1
  C  387  1  0.67371600  0.43768600  0.33156500  1
  C  388  1  0.69509100  0.41839600  0.31956100  1
  C  389  1  0.69099500  0.38874700  0.32284700  1
  C  390  1  0.69588200  0.34346400  0.38880900  1
  C  391  1  0.70199100  0.34064800  0.41819200  1
  C  392  1  0.67832200  0.33262300  0.43729900  1
  C  393  1  0.64828100  0.32832500  0.42637600  1
  C  394  1  0.64216400  0.33132500  0.39707400  1
  C  411  1  0.27991400  0.28591400  0.71057900  1
  C  412  1  0.27902100  0.28200300  0.68068600  1
  C  413  1  0.29588700  0.30003300  0.66249100  1
  C  414  1  0.31388200  0.32270500  0.67364300  1
  C  415  1  0.31509400  0.32613700  0.70371400  1
  C  416  1  0.29807800  0.30824500  0.72189700  1
  C  418  1  0.37175800  0.33251500  0.66321300  1
  C  419  1  0.39218400  0.35060700  0.67842100  1
  C  420  1  0.42223800  0.34167600  0.68530100  1
  C  421  1  0.43273000  0.31408100  0.67783700  1
  C  422  1  0.41174800  0.29521100  0.66451000  1
  C  423  1  0.38159200  0.30410700  0.65782600  1
  C  424  1  0.32997400  0.33828500  0.61842000  1
  C  425  1  0.33042200  0.37767900  0.65781800  1
  C  426  1  0.35045500  0.39741400  0.64426600  1
  C  427  1  0.34671100  0.42695000  0.64802300  1
  C  428  1  0.32210000  0.43774700  0.66457400  1
  C  429  1  0.30072600  0.41840100  0.67650600  1
  C  430  1  0.30486000  0.38876500  0.67316800  1
  C  431  1  0.30011400  0.34354500  0.60712500  1
  C  432  1  0.29405200  0.34074000  0.57773200  1
  C  433  1  0.31776200  0.33277300  0.55865000  1
  C  434  1  0.34779300  0.32852400  0.56960600  1
  C  435  1  0.35386200  0.33152200  0.59891600  1
  C  452  1  0.28032500  0.71030000  0.28545100  1
  C  453  1  0.27942300  0.71422300  0.31534300  1
  C  454  1  0.29628600  0.69621800  0.33355200  1
  C  455  1  0.31429500  0.67356100  0.32241100  1
  C  456  1  0.31551100  0.67010800  0.29234200  1
  C  457  1  0.29849800  0.68797900  0.27414800  1
  C  459  1  0.37217300  0.66383800  0.33287700  1
  C  460  1  0.39261300  0.64576800  0.31767600  1
  C  461  1  0.42265600  0.65474400  0.31078300  1
  C  462  1  0.43310900  0.68237100  0.31819100  1
  C  463  1  0.41212000  0.70120600  0.33154100  1
  C  464  1  0.38197800  0.69226500  0.33824400  1
  C  465  1  0.33035700  0.65803200  0.37765500  1
  C  466  1  0.33087900  0.61861700  0.33828900  1
  C  467  1  0.35091900  0.59892900  0.35188300  1
  C  468  1  0.34719800  0.56938300  0.34817200  1
  C  469  1  0.32260500  0.55852900  0.33162300  1
  C  470  1  0.30122200  0.57782900  0.31965000  1
  C  471  1  0.30534200  0.60747600  0.32293500  1
  C  472  1  0.30049500  0.65272700  0.38893100  1
  C  473  1  0.29441200  0.65552200  0.41832200  1
  C  474  1  0.31810200  0.66351700  0.43742100  1
  C  475  1  0.34813300  0.66782200  0.42647800  1
  C  476  1  0.35422500  0.66484500  0.39717000  1
  C  493  1  0.27972700  0.71049700  0.71051100  1
  C  494  1  0.29788600  0.68818400  0.72184400  1
  C  495  1  0.31492700  0.67030900  0.70367700  1
  C  496  1  0.31373600  0.67373200  0.67360400  1
  C  497  1  0.29575500  0.69639100  0.66243300  1
  C  498  1  0.27885700  0.71440000  0.68061500  1
  C  500  1  0.37164700  0.66400300  0.66327900  1
  C  501  1  0.38150900  0.69240600  0.65787600  1
  C  502  1  0.41166500  0.70130200  0.66458500  1
  C  503  1  0.43256100  0.68246300  0.67804500  1
  C  504  1  0.42201600  0.65490800  0.68560400  1
  C  505  1  0.39199400  0.64595100  0.67861500  1
  C  506  1  0.33037800  0.61879200  0.65779600  1
  C  507  1  0.32994600  0.65818800  0.61840100  1
  C  508  1  0.35385600  0.66503800  0.59894100  1
  C  509  1  0.34783700  0.66802100  0.56962300  1
  C  510  1  0.31784300  0.66366900  0.55861400  1
  C  511  1  0.29411600  0.65562700  0.57764800  1
  C  512  1  0.30012100  0.65284700  0.60705500  1
  C  513  1  0.30479500  0.60765600  0.67308700  1
  C  514  1  0.30067900  0.57801100  0.67638200  1
  C  515  1  0.32210200  0.55869900  0.66448000  1
  C  516  1  0.34672700  0.56955600  0.64797200  1
  C  517  1  0.35045500  0.59910200  0.64425600  1
  C  534  1  0.28017100  0.28578200  0.28546400  1
  C  535  1  0.29836600  0.30810800  0.27418400  1
  C  536  1  0.31535200  0.32599000  0.29240200  1
  C  537  1  0.31409900  0.32252800  0.32246700  1
  C  538  1  0.29608800  0.29985300  0.33358600  1
  C  539  1  0.27922600  0.28185400  0.31535500  1
  C  541  1  0.37198600  0.33222000  0.33294300  1
  C  542  1  0.38180000  0.30381300  0.33836600  1
  C  543  1  0.41194200  0.29488900  0.33166100  1
  C  544  1  0.43286200  0.31369300  0.31816300  1
  C  545  1  0.42236500  0.34125800  0.31060300  1
  C  546  1  0.39236800  0.35025000  0.31761200  1
  C  547  1  0.33077100  0.37745100  0.33836600  1
  C  548  1  0.33014500  0.33802900  0.37772300  1
  C  549  1  0.35397100  0.33114400  0.39725100  1
  C  550  1  0.34784700  0.32816500  0.42655300  1
  C  551  1  0.31782000  0.33254400  0.43747200  1
  C  552  1  0.29417400  0.34060500  0.41836700  1
  C  553  1  0.30028700  0.34338000  0.38898000  1
  C  554  1  0.30522500  0.38861800  0.32305600  1
  C  555  1  0.30115000  0.41827000  0.31980000  1
  C  556  1  0.32257300  0.43755500  0.33176400  1
  C  557  1  0.34716600  0.42666600  0.34828100  1
  C  558  1  0.35085500  0.39711300  0.35195800  1
  C  575  1  0.71623600  0.71041800  0.28540000  1
  C  576  1  0.69803400  0.68810500  0.27410100  1
  C  577  1  0.68100900  0.67023800  0.29230200  1
  C  578  1  0.68224100  0.67368900  0.32236800  1
  C  579  1  0.70028700  0.69633200  0.33350700  1
  C  580  1  0.71716200  0.71433300  0.31529300  1
  C  582  1  0.62433100  0.66404600  0.33279800  1
  C  583  1  0.61454700  0.69246600  0.33820800  1
  C  584  1  0.58442600  0.70142900  0.33147500  1
  C  585  1  0.56347200  0.68262300  0.31803300  1
  C  586  1  0.57390800  0.65502100  0.31053700  1
  C  587  1  0.60391600  0.64601800  0.31749900  1
  C  588  1  0.66550700  0.61878100  0.33825100  1
  C  589  1  0.66611000  0.65820700  0.37761000  1
  C  590  1  0.64226300  0.66510800  0.39711000  1
  C  591  1  0.64834800  0.66808600  0.42641800  1
  C  592  1  0.67835900  0.66370900  0.43737100  1
  C  593  1  0.70202800  0.65563300  0.41829600  1
  C  594  1  0.69595200  0.65284300  0.38890300  1
  C  595  1  0.69105500  0.60760200  0.32295400  1
  C  596  1  0.69511400  0.57794700  0.31969900  1
  C  597  1  0.67369100  0.55867200  0.33168000  1
  C  598  1  0.64909400  0.56957500  0.34818300  1
  C  599  1  0.64540900  0.59912900  0.35184300  1
  C  616  1  0.71571500  0.28569000  0.71049100  1
  C  617  1  0.69754200  0.30803100  0.72175600  1
  C  618  1  0.68061200  0.32593100  0.70352300  1
  C  619  1  0.68189100  0.32247000  0.67345900  1
  C  620  1  0.69986200  0.29977100  0.66235800  1
  C  621  1  0.71667700  0.28175900  0.68060200  1
  C  623  1  0.62404200  0.33225900  0.66293300  1
  C  624  1  0.61414100  0.30387300  0.65749500  1
  C  625  1  0.58398500  0.29498900  0.66422800  1
  C  626  1  0.56312300  0.31383300  0.67772400  1
  C  627  1  0.57367500  0.34139700  0.68524300  1
  C  628  1  0.60370900  0.35032700  0.67826200  1
  C  629  1  0.66537300  0.37742000  0.65753200  1
  C  630  1  0.66595000  0.33798800  0.61818700  1
  C  631  1  0.64213600  0.33113000  0.59863400  1
  C  632  1  0.64830200  0.32810000  0.56934300  1
  C  633  1  0.67835200  0.33245000  0.55846200  1
  C  634  1  0.70199100  0.34049200  0.57758800  1
  C  635  1  0.69583900  0.34329700  0.60696500  1
  C  636  1  0.69090500  0.38855300  0.67290100  1
  C  637  1  0.69501400  0.41820000  0.67619600  1
  C  638  1  0.67364200  0.43750700  0.66421500  1
  C  639  1  0.64907100  0.42665300  0.64764000  1
  C  640  1  0.64535600  0.39710600  0.64391000  1
  C  657  1  0.26413100  0.26707500  0.26702600  1
  C  658  1  0.26777400  0.23710600  0.26892300  1
  C  659  1  0.25214100  0.21883000  0.25035900  1
  C  660  1  0.23196700  0.22912000  0.22897200  1
  C  661  1  0.22832700  0.25909100  0.22707000  1
  C  662  1  0.24397600  0.27736800  0.24562600  1
  C  665  1  0.28074800  0.19491200  0.27859700  1
  C  668  1  0.21530700  0.30128000  0.21743400  1
  C  671  1  0.26364200  0.72919900  0.72890600  1
  C  672  1  0.26730500  0.75917100  0.72701700  1
  C  673  1  0.25165800  0.77744300  0.74556900  1
  C  674  1  0.23148900  0.76714400  0.76696000  1
  C  675  1  0.22782600  0.73717200  0.76885100  1
  C  676  1  0.24345200  0.71890200  0.75028200  1
  C  679  1  0.28025400  0.80137400  0.71731200  1
  C  682  1  0.21481900  0.69497800  0.77851100  1
  C  685  1  0.73229700  0.72912700  0.26698100  1
  C  686  1  0.72865400  0.75909600  0.26888700  1
  C  687  1  0.74428900  0.77737900  0.25032900  1
  C  688  1  0.76442900  0.76709300  0.22891400  1
  C  689  1  0.76807600  0.73712400  0.22700600  1
  C  690  1  0.75245400  0.71884100  0.24557700  1
  C  693  1  0.71567100  0.80128700  0.27856900  1
  C  696  1  0.78101500  0.69493100  0.21728800  1
  C  699  1  0.73174500  0.26699600  0.72894000  1
  C  700  1  0.72809500  0.23702500  0.72705100  1
  C  701  1  0.74373100  0.21876100  0.74562000  1
  C  702  1  0.76391400  0.22906800  0.76699600  1
  C  703  1  0.76756800  0.25904000  0.76888100  1
  C  704  1  0.75189600  0.27730600  0.75034200  1
  C  707  1  0.71510300  0.19482200  0.71740000  1
  C  710  1  0.78051600  0.30124300  0.77857100  1
  C  713  1  0.73210700  0.26725900  0.26689100  1
  C  714  1  0.75218000  0.27772100  0.24548700  1
  C  715  1  0.76768100  0.25908900  0.22719000  1
  C  716  1  0.76400100  0.22911800  0.22885200  1
  C  717  1  0.74392200  0.21865400  0.25025200  1
  C  718  1  0.72844100  0.23728600  0.26856200  1
  C  721  1  0.78027200  0.30217300  0.21821600  1
  C  724  1  0.71580500  0.19420700  0.27750200  1
  C  727  1  0.73165000  0.72903500  0.72891700  1
  C  728  1  0.75175000  0.71858800  0.75030200  1
  C  729  1  0.76722900  0.73723000  0.76861200  1
  C  730  1  0.76355400  0.76719900  0.76694500  1
  C  731  1  0.74347000  0.77764800  0.74554900  1
  C  732  1  0.72796600  0.75900400  0.72725400  1
  C  735  1  0.77978700  0.69415300  0.77761600  1
  C  738  1  0.71536600  0.80207700  0.71828600  1
  C  741  1  0.26382000  0.26721800  0.72898100  1
  C  742  1  0.24375200  0.27766900  0.75039100  1
  C  743  1  0.22827000  0.25902700  0.76870300  1
  C  744  1  0.23191800  0.22905600  0.76701500  1
  C  745  1  0.25197900  0.21860500  0.74560300  1
  C  746  1  0.26747900  0.23724700  0.72730600  1
  C  749  1  0.21569200  0.30210500  0.77768900  1
  C  752  1  0.28001800  0.19416700  0.71829100  1
  C  755  1  0.26423700  0.72898300  0.26703900  1
  C  756  1  0.24414700  0.71851700  0.24565000  1
  C  757  1  0.22863700  0.73714900  0.22735900  1
  C  758  1  0.23232700  0.76712100  0.22900800  1
  C  759  1  0.25242500  0.77758500  0.25039100  1
  C  760  1  0.26789200  0.75895700  0.26871800  1
  C  763  1  0.21602500  0.69406600  0.21840800  1
  C  766  1  0.28048000  0.80204100  0.27768800  1
  C  769  1  0.17658400  0.96735900  0.16855600  1
  C  770  1  0.20200900  0.98304400  0.15790900  1
  C  771  1  0.20163300  0.01291400  0.15773500  1
  C  772  1  0.17657100  0.02878400  0.16877700  1
  C  773  1  0.15200400  0.01303300  0.18091500  1
  C  774  1  0.15206800  0.98325300  0.18055200  1
  C  777  1  0.24179000  0.99742300  0.13659400  1
  C  780  1  0.11034700  0.99873700  0.19896800  1
  C  783  1  0.17605000  0.02882200  0.82769500  1
  C  784  1  0.20146400  0.01315700  0.83837300  1
  C  785  1  0.20114200  0.98329000  0.83851200  1
  C  786  1  0.17602500  0.96740100  0.82758200  1
  C  787  1  0.15143500  0.98311100  0.81545800  1
  C  788  1  0.15149300  0.01289200  0.81579400  1
  C  791  1  0.24147100  0.99884900  0.85935000  1
  C  794  1  0.10978900  0.99735900  0.79736800  1
  C  797  1  0.81969900  0.02885500  0.16857500  1
  C  798  1  0.79424500  0.01318700  0.15795000  1
  C  799  1  0.79457100  0.98331600  0.15779600  1
  C  800  1  0.81969900  0.96743500  0.16869700  1
  C  801  1  0.84426600  0.98315700  0.18086600  1
  C  802  1  0.84422200  0.01293500  0.18052000  1
  C  805  1  0.75442400  0.99885400  0.13665300  1
  C  808  1  0.88589700  0.99742100  0.19900500  1
  C  811  1  0.81965900  0.96740900  0.82748600  1
  C  812  1  0.79421700  0.98307000  0.83812100  1
  C  813  1  0.79457500  0.01294000  0.83830700  1
  C  814  1  0.81966200  0.02883200  0.82731300  1
  C  815  1  0.84425400  0.01311200  0.81520800  1
  C  816  1  0.84417300  0.98333200  0.81550500  1
  C  819  1  0.75440300  0.99739700  0.85939700  1
  C  822  1  0.88583900  0.99886700  0.79699400  1
  C  825  1  0.18366900  0.16557300  0.96723300  1
  C  826  1  0.17411500  0.18975300  0.98305600  1
  C  827  1  0.17385700  0.18940200  0.01286400  1
  C  828  1  0.18351200  0.16534800  0.02881100  1
  C  829  1  0.19488200  0.14180600  0.01303600  1
  C  830  1  0.19451900  0.14194600  0.98317100  1
  C  833  1  0.15598300  0.22887500  0.99739100  1
  C  836  1  0.20889500  0.10126300  0.99864600  1
  C  839  1  0.81262300  0.16551400  0.02874200  1
  C  840  1  0.82218700  0.18971800  0.01295600  1
  C  841  1  0.82234400  0.18944100  0.98314800  1
  C  842  1  0.81264400  0.16541900  0.96716500  1
  C  843  1  0.80131400  0.14183600  0.98291900  1
  C  844  1  0.80177500  0.14189800  0.01278100  1
  C  847  1  0.84014000  0.22893900  0.99867300  1
  C  850  1  0.78712300  0.10131500  0.99725700  1
  C  853  1  0.18375300  0.83058000  0.02886100  1
  C  854  1  0.17416200  0.80637600  0.01308000  1
  C  855  1  0.17390700  0.80667100  0.98326900  1
  C  856  1  0.18353800  0.83070800  0.96726900  1
  C  857  1  0.19492200  0.85427200  0.98301300  1
  C  858  1  0.19455200  0.85419700  0.01287300  1
  C  861  1  0.15598100  0.76723300  0.99882200  1
  C  864  1  0.20925300  0.89477000  0.99733400  1
  C  867  1  0.81248000  0.83072200  0.96709200  1
  C  868  1  0.82205100  0.80652400  0.98287800  1
  C  869  1  0.82228600  0.80683400  0.01268800  1
  C  870  1  0.81258100  0.83084600  0.02867500  1
  C  871  1  0.80129500  0.85443000  0.01290900  1
  C  872  1  0.80154900  0.85430200  0.98304700  1
  C  875  1  0.84022300  0.76740400  0.99716900  1
  C  878  1  0.78685600  0.89487500  0.99858600  1
  C  881  1  0.96470000  0.18917500  0.18016000  1
  C  882  1  0.98177300  0.18402900  0.20542200  1
  C  883  1  0.01402800  0.18366100  0.20512900  1
  C  884  1  0.03137400  0.18906300  0.18008400  1
  C  885  1  0.01429700  0.19612500  0.15527900  1
  C  886  1  0.98205300  0.19571800  0.15539700  1
  C  889  1  0.99721000  0.17218500  0.24633300  1
  C  892  1  0.99883300  0.20203500  0.11303000  1
  C  895  1  0.03161500  0.80708600  0.18018300  1
  C  896  1  0.01446200  0.81233900  0.20537800  1
  C  897  1  0.98221000  0.81269400  0.20503800  1
  C  898  1  0.96493500  0.80734800  0.17994000  1
  C  899  1  0.98205700  0.80025800  0.15517400  1
  C  900  1  0.01429900  0.80068500  0.15535700  1
  C  903  1  0.99895200  0.82396000  0.24632900  1
  C  906  1  0.99762800  0.79416900  0.11298800  1
  C  909  1  0.03136500  0.18940500  0.81589000  1
  C  910  1  0.01428200  0.18420800  0.79063300  1
  C  911  1  0.98202000  0.18388500  0.79089000  1
  C  912  1  0.96467200  0.18924100  0.81594300  1
  C  913  1  0.98174100  0.19640900  0.84071700  1
  C  914  1  0.01397600  0.19593800  0.84062900  1
  C  917  1  0.99887000  0.17232000  0.74971400  1
  C  920  1  0.99719200  0.20271700  0.88293300  1
  C  923  1  0.96434000  0.80685900  0.81574200  1
  C  924  1  0.98150600  0.81207200  0.79053900  1
  C  925  1  0.01376300  0.81242400  0.79089800  1
  C  926  1  0.03105300  0.80699400  0.81596900  1
  C  927  1  0.01387600  0.80001000  0.84073800  1
  C  928  1  0.98164000  0.80029000  0.84052700  1
  C  931  1  0.99705800  0.82397000  0.74967800  1
  C  934  1  0.99831900  0.79367500  0.88290300  1
  C  937  1  0.67636900  0.46728100  0.66838600  1
  C  938  1  0.70177400  0.48298000  0.65771500  1
  C  939  1  0.70138600  0.51285000  0.65755900  1
  C  940  1  0.67633400  0.52870500  0.66864100  1
  C  941  1  0.65179000  0.51294100  0.68079900  1
  C  942  1  0.65186200  0.48316000  0.68041800  1
  C  945  1  0.74151400  0.49738000  0.63635400  1
  C  948  1  0.61015600  0.49862100  0.69888000  1
  C  951  1  0.67640300  0.52888500  0.32759900  1
  C  952  1  0.70179700  0.51322200  0.33832100  1
  C  953  1  0.70149000  0.48335400  0.33843300  1
  C  954  1  0.67642200  0.46745900  0.32741300  1
  C  955  1  0.65184300  0.48317300  0.31527400  1
  C  956  1  0.65188200  0.51295300  0.31563700  1
  C  959  1  0.74174800  0.49891000  0.35938800  1
  C  962  1  0.61023300  0.49741800  0.29711200  1
  C  965  1  0.31936200  0.52892500  0.66865800  1
  C  966  1  0.29393400  0.51324700  0.65799700  1
  C  967  1  0.29426200  0.48337800  0.65786100  1
  C  968  1  0.31937100  0.46750500  0.66881400  1
  C  969  1  0.34391300  0.48323600  0.68101200  1
  C  970  1  0.34386700  0.51301400  0.68065100  1
  C  973  1  0.25415400  0.49889900  0.63664200  1
  C  976  1  0.38550500  0.49751400  0.69921600  1
  C  979  1  0.31987400  0.46733900  0.32765200  1
  C  980  1  0.29445300  0.48300800  0.33830600  1
  C  981  1  0.29482000  0.51288000  0.33847700  1
  C  982  1  0.31989500  0.52875800  0.32744500  1
  C  983  1  0.34446700  0.51302500  0.31532100  1
  C  984  1  0.34437900  0.48324600  0.31563500  1
  C  987  1  0.25467600  0.49735600  0.35962900  1
  C  990  1  0.38602900  0.49876000  0.29707700  1
  C  993  1  0.68360300  0.66559100  0.46717100  1
  C  994  1  0.67396100  0.68974200  0.48299800  1
  C  995  1  0.67363300  0.68936600  0.51280400  1
  C  996  1  0.68329600  0.66531500  0.52875300  1
  C  997  1  0.69474400  0.64180400  0.51297900  1
  C  998  1  0.69445600  0.64196800  0.48311500  1
  C  1001  1  0.65573300  0.72882600  0.49732700  1
  C  1004  1  0.70887900  0.60129800  0.49858600  1
  C  1007  1  0.31267400  0.66555200  0.52880400  1
  C  1008  1  0.32232800  0.68972400  0.51301300  1
  C  1009  1  0.32255700  0.68941900  0.48320700  1
  C  1010  1  0.31284700  0.66539800  0.46722400  1
  C  1011  1  0.30143700  0.64184700  0.48297700  1
  C  1012  1  0.30182400  0.64193700  0.51284000  1
  C  1015  1  0.34037900  0.72890600  0.49873100  1
  C  1018  1  0.28712600  0.60136600  0.49732300  1
  C  1021  1  0.68369800  0.33053300  0.52868200  1
  C  1022  1  0.67412200  0.30634600  0.51286600  1
  C  1023  1  0.67394000  0.30666200  0.48305600  1
  C  1024  1  0.68362900  0.33070400  0.46709200  1
  C  1025  1  0.69499800  0.35424800  0.48287400  1
  C  1026  1  0.69455700  0.35415200  0.51273300  1
  C  1029  1  0.65594100  0.26722600  0.49854500  1
  C  1032  1  0.70933400  0.39472300  0.49725200  1
  C  1035  1  0.31254700  0.33068100  0.46726900  1
  C  1036  1  0.32210400  0.30649800  0.48308800  1
  C  1037  1  0.32227100  0.30682700  0.51289800  1
  C  1038  1  0.31250800  0.33084200  0.52885100  1
  C  1039  1  0.30123300  0.35440700  0.51304900  1
  C  1040  1  0.30155900  0.35426100  0.48318800  1
  C  1043  1  0.34027700  0.26740100  0.49743600  1
  C  1046  1  0.28678900  0.39483200  0.49867300  1
  C  1049  1  0.46442100  0.68915900  0.68028800  1
  C  1050  1  0.48153400  0.68399200  0.70552100  1
  C  1051  1  0.51379000  0.68359600  0.70517700  1
  C  1052  1  0.53109500  0.68898400  0.68010400  1
  C  1053  1  0.51398000  0.69606000  0.65532600  1
  C  1054  1  0.48173500  0.69568400  0.65549700  1
  C  1057  1  0.49703500  0.67213700  0.74640800  1
  C  1060  1  0.49844100  0.70198400  0.61310200  1
  C  1063  1  0.53127300  0.30714500  0.68006600  1
  C  1064  1  0.51421100  0.31238600  0.70531600  1
  C  1065  1  0.48195600  0.31272800  0.70507900  1
  C  1066  1  0.46459000  0.30737600  0.68003600  1
  C  1067  1  0.48162600  0.30030400  0.65521300  1
  C  1068  1  0.51386900  0.30074400  0.65529400  1
  C  1071  1  0.49884500  0.32398800  0.74632100  1
  C  1074  1  0.49704700  0.29423000  0.61297600  1
  C  1077  1  0.53164200  0.68939200  0.31575900  1
  C  1078  1  0.51451500  0.68418000  0.29053300  1
  C  1079  1  0.48225400  0.68382700  0.29084000  1
  C  1080  1  0.46494700  0.68916800  0.31592400  1
  C  1081  1  0.48205600  0.69634700  0.34067000  1
  C  1082  1  0.51429100  0.69590600  0.34053100  1
  C  1085  1  0.49903900  0.67228600  0.24963700  1
  C  1088  1  0.49758000  0.70266400  0.38286200  1
  C  1091  1  0.46469100  0.30693400  0.31585500  1
  C  1092  1  0.48176700  0.31213800  0.29059900  1
  C  1093  1  0.51402800  0.31248000  0.29085500  1
  C  1094  1  0.53140400  0.30704300  0.31587500  1
  C  1095  1  0.51431500  0.30007400  0.34070000  1
  C  1096  1  0.48207400  0.30036200  0.34058900  1
  C  1099  1  0.49717600  0.32402100  0.24968600  1
  C  1102  1  0.49890500  0.29374600  0.38291200  1
  N  663  1  0.26078200  0.19230100  0.25684400  1
  N  666  1  0.23530000  0.30389300  0.23916700  1
  N  677  1  0.26032000  0.80397400  0.73909200  1
  N  680  1  0.23480200  0.69237100  0.75677200  1
  N  691  1  0.73559100  0.80390000  0.25678200  1
  N  694  1  0.76110200  0.69231500  0.23908500  1
  N  705  1  0.73509000  0.19222500  0.73913700  1
  N  708  1  0.76057800  0.30383700  0.75679500  1
  N  719  1  0.78538300  0.27505000  0.21024800  1
  N  722  1  0.71071700  0.22132700  0.28548800  1
  N  733  1  0.78492800  0.72128100  0.78555600  1
  N  736  1  0.71026700  0.77495100  0.71031000  1
  N  747  1  0.21054700  0.27497700  0.78562700  1
  N  750  1  0.28517300  0.22129500  0.71035900  1
  N  761  1  0.21092700  0.72118600  0.21042600  1
  N  764  1  0.28561900  0.77491800  0.28563500  1
  N  775  1  0.22684700  0.02145900  0.14389000  1
  N  778  1  0.12542500  0.97471800  0.19191500  1
  N  789  1  0.22644500  0.97479200  0.85223400  1
  N  792  1  0.12487400  0.02139800  0.80437500  1
  N  803  1  0.76942400  0.97481000  0.14382200  1
  N  806  1  0.87087100  0.02144900  0.19188700  1
  N  817  1  0.76931600  0.02145400  0.85208900  1
  N  820  1  0.87081300  0.97483200  0.80412700  1
  N  831  1  0.16213800  0.21428700  0.02139800  1
  N  834  1  0.20309200  0.11598500  0.97464500  1
  N  845  1  0.83401400  0.21436700  0.97464800  1
  N  848  1  0.79301500  0.11597600  0.02127900  1
  N  859  1  0.16206400  0.78180700  0.97479100  1
  N  862  1  0.20324100  0.88014700  0.02135300  1
  N  873  1  0.83400200  0.78193800  0.02119200  1
  N  876  1  0.79289500  0.88025500  0.97457100  1
  N  887  1  0.02318100  0.17588800  0.23115800  1
  N  890  1  0.97293200  0.19904400  0.12840900  1
  N  901  1  0.97301300  0.82041300  0.23106800  1
  N  904  1  0.02349700  0.79715200  0.12841900  1
  N  915  1  0.97289700  0.17595200  0.76489800  1
  N  918  1  0.02308400  0.19941500  0.86760200  1
  N  929  1  0.02298900  0.82019600  0.76488900  1
  N  932  1  0.97246800  0.79691700  0.86749500  1
  N  943  1  0.72657600  0.52140900  0.64368300  1
  N  946  1  0.62523300  0.47461100  0.69179700  1
  N  957  1  0.72675600  0.47485300  0.35221000  1
  N  960  1  0.62528900  0.52145800  0.30417200  1
  N  971  1  0.26914300  0.47486100  0.64385000  1
  N  974  1  0.37048800  0.52153700  0.69206000  1
  N  985  1  0.26958600  0.52140600  0.35228900  1
  N  988  1  0.37100500  0.47473200  0.30423800  1
  N  999  1  0.66185500  0.71423000  0.52133400  1
  N  1002  1  0.70310300  0.61602900  0.47458800  1
  N  1013  1  0.33428400  0.71432000  0.47470700  1
  N  1016  1  0.29299000  0.61603900  0.52134200  1
  N  1027  1  0.66209300  0.28181400  0.47453600  1
  N  1030  1  0.70325100  0.38008600  0.52124800  1
  N  1041  1  0.33398900  0.28194400  0.52144100  1
  N  1044  1  0.29289700  0.38020100  0.47467900  1
  N  1055  1  0.52298300  0.67581700  0.73119200  1
  N  1058  1  0.47256500  0.69901700  0.62852300  1
  N  1069  1  0.47285200  0.32043200  0.73114100  1
  N  1072  1  0.52297100  0.29721900  0.62832600  1
  N  1083  1  0.47308900  0.67589300  0.26486100  1
  N  1086  1  0.52344900  0.69938600  0.36748800  1
  N  1097  1  0.52316300  0.32024300  0.26481600  1
  N  1100  1  0.47299900  0.29699400  0.36758200  1
  O  664  1  0.28649800  0.22236000  0.28709400  1
  O  667  1  0.20959500  0.27383300  0.20890600  1
  O  678  1  0.28604600  0.77392200  0.70885700  1
  O  681  1  0.20910900  0.72242100  0.78703300  1
  O  692  1  0.70988800  0.77383100  0.28703000  1
  O  695  1  0.78680700  0.72238600  0.20883700  1
  O  706  1  0.70938000  0.22226200  0.70887600  1
  O  709  1  0.78631100  0.27379600  0.78703500  1
  O  720  1  0.75991800  0.30547000  0.24030600  1
  O  723  1  0.73618400  0.19090600  0.25543200  1
  O  734  1  0.75947700  0.69084300  0.75549200  1
  O  737  1  0.73574300  0.80539100  0.74035700  1
  O  748  1  0.23599800  0.30541100  0.75555800  1
  O  751  1  0.25972000  0.19086100  0.74042500  1
  O  762  1  0.23641300  0.69076900  0.24047000  1
  O  765  1  0.26016300  0.80533300  0.25557100  1
  O  776  1  0.22718700  0.97255900  0.14399100  1
  O  779  1  0.12539700  0.02356100  0.19233400  1
  O  790  1  0.22674100  0.02368900  0.85211200  1
  O  793  1  0.12482800  0.97255100  0.80405200  1
  O  804  1  0.76912400  0.02369500  0.14396100  1
  O  807  1  0.87091500  0.97261000  0.19218600  1
  O  818  1  0.76899200  0.97254900  0.85195200  1
  O  821  1  0.87085300  0.02367200  0.80378700  1
  O  832  1  0.16242600  0.21466800  0.97256400  1
  O  835  1  0.20347200  0.11581900  0.02348200  1
  O  846  1  0.83383100  0.21464200  0.02348300  1
  O  849  1  0.79260400  0.11589000  0.97243800  1
  O  860  1  0.16239600  0.78150600  0.02362000  1
  O  863  1  0.20343400  0.88027500  0.97253200  1
  O  874  1  0.83373200  0.78162000  0.97235700  1
  O  877  1  0.79262500  0.88037800  0.02339500  1
  O  888  1  0.97040400  0.17627100  0.23143800  1
  O  891  1  0.02558100  0.19950900  0.12828300  1
  O  902  1  0.02578600  0.81997900  0.23144400  1
  O  905  1  0.97084000  0.79681400  0.12816200  1
  O  916  1  0.02566000  0.17632700  0.76466100  1
  O  919  1  0.97046200  0.19972800  0.86772100  1
  O  930  1  0.97021000  0.81981800  0.76449600  1
  O  933  1  0.02509600  0.79659400  0.86775100  1
  O  944  1  0.72693200  0.47251000  0.64375800  1
  O  947  1  0.62519200  0.52345300  0.69225200  1
  O  958  1  0.72702900  0.52375100  0.35213100  1
  O  961  1  0.62526800  0.47261300  0.30380200  1
  O  972  1  0.26883600  0.52374600  0.64396300  1
  O  975  1  0.37053900  0.47269900  0.69238700  1
  O  986  1  0.26924500  0.47250200  0.35217800  1
  O  989  1  0.37105600  0.52357200  0.30386800  1
  O  1000  1  0.66226100  0.71464900  0.47250000  1
  O  1003  1  0.70336700  0.61582400  0.52342300  1
  O  1014  1  0.33398400  0.71464300  0.52354100  1
  O  1017  1  0.29269700  0.61590800  0.47250200  1
  O  1028  1  0.66231000  0.28147800  0.52336600  1
  O  1031  1  0.70355800  0.38025100  0.47242700  1
  O  1042  1  0.33383200  0.28159600  0.47260500  1
  O  1045  1  0.29251600  0.38035500  0.52350300  1
  O  1056  1  0.47020600  0.67624400  0.73155600  1
  O  1059  1  0.52521500  0.69943300  0.62831300  1
  O  1070  1  0.52562600  0.32002200  0.73134800  1
  O  1073  1  0.47031200  0.29686300  0.62823400  1
  O  1084  1  0.52585200  0.67631100  0.26454100  1
  O  1087  1  0.47082500  0.69965300  0.36769600  1
  O  1098  1  0.47038200  0.31988400  0.26458800  1
  O  1101  1  0.52562800  0.29665400  0.36767600  1
