# generated using pymatgen
data_H24C40N7O2
_symmetry_space_group_name_H-M   'P 1'
_cell_length_a   34.20630000
_cell_length_b   34.20630000
_cell_length_c   68.40890000
_cell_angle_alpha   90.04950000
_cell_angle_beta   89.95050000
_cell_angle_gamma   90.00000000
_symmetry_Int_Tables_number   1
_chemical_formula_structural   H24C40N7O2
_chemical_formula_sum   'H288 C480 N84 O24'
_cell_volume   80043.20753093
_cell_formula_units_Z   12
loop_
 _symmetry_equiv_pos_site_id
 _symmetry_equiv_pos_as_xyz
  1  'x, y, z'
loop_
 _atom_site_type_symbol
 _atom_site_label
 _atom_site_symmetry_multiplicity
 _atom_site_fract_x
 _atom_site_fract_y
 _atom_site_fract_z
 _atom_site_occupancy
  H  73  1  0.03693400  0.01954600  0.81507500  1
  H  74  1  0.03884700  0.01855700  0.84996800  1
  H  75  1  0.93816100  0.94574800  0.81599300  1
  H  76  1  0.93951000  0.94527600  0.85069500  1
  H  77  1  0.97943900  0.92023400  0.87834300  1
  H  78  1  0.97970900  0.91951700  0.91326900  1
  H  79  1  0.00116000  0.04182200  0.87903700  1
  H  80  1  0.00203000  0.04078900  0.91397000  1
  H  81  1  0.06949200  0.97835200  0.92352500  1
  H  82  1  0.12232300  0.97863900  0.94943300  1
  H  83  1  0.01640600  0.98012100  0.97698400  1
  H  84  1  0.96839000  0.97967300  0.00141800  1
  H  85  1  0.91187100  0.98053700  0.92371300  1
  H  86  1  0.85982300  0.97992600  0.95022500  1
  H  87  1  0.84157100  0.91781100  0.99395600  1
  H  88  1  0.77176200  0.91725400  0.99434300  1
  H  89  1  0.84064500  0.04003400  0.98592800  1
  H  90  1  0.77082600  0.03982200  0.98675600  1
  H  91  1  0.86250500  0.97843400  0.02900200  1
  H  92  1  0.91532800  0.97814100  0.05488800  1
  H  93  1  0.12493200  0.98067000  0.02818400  1
  H  94  1  0.07289000  0.98075300  0.05469700  1
  H  95  1  0.98287600  0.04040900  0.06448900  1
  H  96  1  0.98317300  0.04135500  0.09940400  1
  H  97  1  0.00494900  0.91909800  0.06511000  1
  H  98  1  0.00460800  0.91972100  0.10005300  1
  H  99  1  0.04260700  0.94404100  0.12867200  1
  H  100  1  0.04123400  0.94466200  0.16357300  1
  H  101  1  0.94306600  0.01919600  0.16231900  1
  H  102  1  0.94382000  0.01804300  0.12758800  1
  H  103  1  0.14473000  0.91906700  0.98582400  1
  H  104  1  0.21454100  0.92008900  0.98632300  1
  H  105  1  0.26917400  0.02597800  0.01132900  1
  H  106  1  0.33891600  0.02786700  0.01140100  1
  H  107  1  0.34170100  0.94089600  0.96777000  1
  H  108  1  0.27204300  0.93961300  0.96718200  1
  H  109  1  0.21235400  0.04316600  0.99151000  1
  H  110  1  0.14257700  0.04180300  0.99153700  1
  H  111  1  0.71366400  0.01854400  0.96756400  1
  H  112  1  0.64401600  0.01770800  0.96777200  1
  H  113  1  0.71488000  0.93721200  0.01398500  1
  H  114  1  0.64508900  0.93582600  0.01375900  1
  H  191  1  0.02085500  0.93923600  0.31601200  1
  H  192  1  0.01943000  0.93935100  0.35070500  1
  H  193  1  0.94498200  0.03640400  0.31501500  1
  H  194  1  0.94399100  0.03705500  0.34993000  1
  H  195  1  0.92005200  0.99797100  0.37832000  1
  H  196  1  0.91917100  0.99744100  0.41326700  1
  H  197  1  0.04202300  0.97853400  0.37908300  1
  H  198  1  0.04082500  0.97733500  0.41398900  1
  H  199  1  0.97875800  0.90853100  0.42341900  1
  H  200  1  0.97919800  0.85555500  0.44927000  1
  H  201  1  0.97974500  0.96134400  0.47694800  1
  H  202  1  0.97967600  0.00926100  0.50144200  1
  H  203  1  0.98017400  0.06613400  0.42380100  1
  H  204  1  0.97978400  0.11805600  0.45037100  1
  H  205  1  0.91796200  0.13613700  0.49416600  1
  H  206  1  0.91741600  0.20594600  0.49452700  1
  H  207  1  0.04016900  0.13703200  0.48597400  1
  H  208  1  0.03997400  0.20685100  0.48678100  1
  H  209  1  0.97866500  0.11502300  0.52914400  1
  H  210  1  0.97825900  0.06207200  0.55497400  1
  H  211  1  0.98050900  0.85259200  0.52802400  1
  H  212  1  0.98048200  0.90450900  0.55459300  1
  H  213  1  0.04005900  0.99406600  0.56465900  1
  H  214  1  0.04061500  0.99285400  0.59957400  1
  H  215  1  0.91865100  0.97250200  0.56491000  1
  H  216  1  0.91888400  0.97193800  0.59985000  1
  H  217  1  0.94275400  0.93276800  0.62810800  1
  H  218  1  0.94306100  0.93272000  0.66300800  1
  H  219  1  0.01811300  0.03053300  0.66285300  1
  H  220  1  0.01725500  0.03120700  0.62812000  1
  H  221  1  0.91922000  0.83295000  0.48568800  1
  H  222  1  0.92024800  0.76314200  0.48620800  1
  H  223  1  0.02607800  0.70855400  0.51122100  1
  H  224  1  0.02797800  0.63881300  0.51131600  1
  H  225  1  0.94112700  0.63595200  0.46770200  1
  H  226  1  0.93983100  0.70560400  0.46709100  1
  H  227  1  0.04330800  0.76534700  0.49137600  1
  H  228  1  0.04194000  0.83512500  0.49138300  1
  H  229  1  0.01871300  0.26399400  0.46761100  1
  H  230  1  0.01788500  0.33364000  0.46779200  1
  H  231  1  0.93735200  0.26285800  0.51409000  1
  H  232  1  0.93596600  0.33264900  0.51383300  1
  H  243  1  0.94092700  0.03380300  0.23083000  1
  H  248  1  0.02369500  0.95429400  0.28302800  1
  H  250  1  0.95518200  0.01936500  0.19589000  1
  H  257  1  0.03058200  0.03111900  0.73143700  1
  H  262  1  0.94949700  0.94720100  0.78266100  1
  H  264  1  0.01716300  0.01771600  0.69633600  1
  H  271  1  0.47561800  0.91317200  0.98644400  1
  H  276  1  0.58012700  0.02683900  0.98360500  1
  H  278  1  0.40569300  0.93406800  0.98440800  1
  H  285  1  0.91335300  0.50207000  0.48642400  1
  H  290  1  0.02702300  0.39755300  0.48361800  1
  H  292  1  0.93425900  0.57199200  0.48436200  1
  H  365  1  0.83229300  0.78567100  0.75660300  1
  H  366  1  0.83420600  0.78468200  0.79149600  1
  H  367  1  0.73352000  0.71187300  0.75752100  1
  H  368  1  0.73486900  0.71140100  0.79222300  1
  H  369  1  0.77479800  0.68635900  0.81987100  1
  H  370  1  0.77506800  0.68564200  0.85479700  1
  H  371  1  0.79651900  0.80794700  0.82056500  1
  H  372  1  0.79738900  0.80691400  0.85549800  1
  H  373  1  0.86485100  0.74447700  0.86505300  1
  H  374  1  0.91768230  0.74476400  0.89096100  1
  H  375  1  0.81176500  0.74624600  0.91851210  1
  H  376  1  0.76374900  0.74579800  0.94294610  1
  H  377  1  0.70723000  0.74666200  0.86524100  1
  H  378  1  0.65518200  0.74605100  0.89175300  1
  H  379  1  0.63693000  0.68393600  0.93548410  1
  H  380  1  0.56712100  0.68337900  0.93587110  1
  H  381  1  0.63600400  0.80615900  0.92745610  1
  H  382  1  0.56618500  0.80594700  0.92828410  1
  H  383  1  0.65786400  0.74455900  0.97053010  1
  H  384  1  0.71068700  0.74426600  0.99641608  1
  H  385  1  0.92029130  0.74679500  0.96971210  1
  H  386  1  0.86824900  0.74687800  0.99622508  1
  H  387  1  0.77823500  0.80653400  0.00601700  1
  H  388  1  0.77853200  0.80748000  0.04093200  1
  H  389  1  0.80030800  0.68522300  0.00663800  1
  H  390  1  0.79996700  0.68584600  0.04158100  1
  H  391  1  0.83796600  0.71016600  0.07020000  1
  H  392  1  0.83659300  0.71078700  0.10510100  1
  H  393  1  0.73842500  0.78532100  0.10384700  1
  H  394  1  0.73917900  0.78416800  0.06911600  1
  H  395  1  0.94008930  0.68519200  0.92735210  1
  H  396  1  0.00990000  0.68621400  0.92785110  1
  H  397  1  0.06453300  0.79210300  0.95285710  1
  H  398  1  0.13427500  0.79399200  0.95292910  1
  H  399  1  0.13706000  0.70702100  0.90929810  1
  H  400  1  0.06740200  0.70573800  0.90871010  1
  H  401  1  0.00771300  0.80929100  0.93303810  1
  H  402  1  0.93793630  0.80792800  0.93306510  1
  H  403  1  0.50902300  0.78466900  0.90909210  1
  H  404  1  0.43937500  0.78383300  0.90930010  1
  H  405  1  0.51023900  0.70333700  0.95551310  1
  H  406  1  0.44044800  0.70195100  0.95528710  1
  H  483  1  0.81621400  0.70536100  0.25754000  1
  H  484  1  0.81478900  0.70547600  0.29223300  1
  H  485  1  0.74034100  0.80252900  0.25654300  1
  H  486  1  0.73935000  0.80318000  0.29145800  1
  H  487  1  0.71541100  0.76409600  0.31984800  1
  H  488  1  0.71453000  0.76356600  0.35479500  1
  H  489  1  0.83738200  0.74465900  0.32061100  1
  H  490  1  0.83618400  0.74346000  0.35551700  1
  H  491  1  0.77411700  0.67465600  0.36494700  1
  H  492  1  0.77455700  0.62168000  0.39079800  1
  H  493  1  0.77510400  0.72746900  0.41847600  1
  H  494  1  0.77503500  0.77538600  0.44297000  1
  H  495  1  0.77553300  0.83225900  0.36532900  1
  H  496  1  0.77514300  0.88418100  0.39189900  1
  H  497  1  0.71332100  0.90226200  0.43569400  1
  H  498  1  0.71277500  0.97207100  0.43605500  1
  H  499  1  0.83552800  0.90315700  0.42750200  1
  H  500  1  0.83533300  0.97297600  0.42830900  1
  H  501  1  0.77402400  0.88114800  0.47067200  1
  H  502  1  0.77361800  0.82819700  0.49650200  1
  H  503  1  0.77586800  0.61871700  0.46955200  1
  H  504  1  0.77584100  0.67063400  0.49612100  1
  H  505  1  0.83541800  0.76019100  0.50618700  1
  H  506  1  0.83597400  0.75897900  0.54110200  1
  H  507  1  0.71401000  0.73862700  0.50643800  1
  H  508  1  0.71424300  0.73806300  0.54137800  1
  H  509  1  0.73811300  0.69889300  0.56963600  1
  H  510  1  0.73842000  0.69884500  0.60453600  1
  H  511  1  0.81347200  0.79665800  0.60438100  1
  H  512  1  0.81261400  0.79733200  0.56964800  1
  H  513  1  0.71457900  0.59907500  0.42721600  1
  H  514  1  0.71560700  0.52926700  0.42773600  1
  H  515  1  0.82143700  0.47467900  0.45274900  1
  H  516  1  0.82333700  0.40493800  0.45284400  1
  H  517  1  0.73648600  0.40207700  0.40923000  1
  H  518  1  0.73519000  0.47172900  0.40861900  1
  H  519  1  0.83866700  0.53147200  0.43290400  1
  H  520  1  0.83729900  0.60125000  0.43291100  1
  H  521  1  0.81407200  0.03011900  0.40913900  1
  H  522  1  0.81324400  0.09976500  0.40932000  1
  H  523  1  0.73271100  0.02898300  0.45561800  1
  H  524  1  0.73132500  0.09877400  0.45536100  1
  H  535  1  0.73628600  0.79992800  0.17235800  1
  H  540  1  0.81905400  0.72041900  0.22455600  1
  H  542  1  0.75054100  0.78549000  0.13741800  1
  H  549  1  0.82594100  0.79724400  0.67296500  1
  H  554  1  0.74485600  0.71332600  0.72418900  1
  H  556  1  0.81252200  0.78384100  0.63786400  1
  H  563  1  0.27097700  0.67929700  0.92797210  1
  H  568  1  0.37548600  0.79296400  0.92513310  1
  H  570  1  0.20105200  0.70019300  0.92593610  1
  H  577  1  0.70871200  0.26819500  0.42795200  1
  H  582  1  0.82238200  0.16367800  0.42514600  1
  H  584  1  0.72961800  0.33811700  0.42589000  1
  H  657  1  0.62765300  0.55179600  0.69813100  1
  H  658  1  0.62956600  0.55080700  0.73302400  1
  H  659  1  0.52888000  0.47799800  0.69904900  1
  H  660  1  0.53022900  0.47752600  0.73375100  1
  H  661  1  0.57015800  0.45248400  0.76139900  1
  H  662  1  0.57042800  0.45176700  0.79632500  1
  H  663  1  0.59187900  0.57407200  0.76209300  1
  H  664  1  0.59274900  0.57303900  0.79702600  1
  H  665  1  0.66021100  0.51060200  0.80658100  1
  H  666  1  0.71304200  0.51088900  0.83248900  1
  H  667  1  0.60712500  0.51237100  0.86004000  1
  H  668  1  0.55910900  0.51192300  0.88447400  1
  H  669  1  0.50259000  0.51278700  0.80676900  1
  H  670  1  0.45054200  0.51217600  0.83328100  1
  H  671  1  0.43229000  0.45006100  0.87701200  1
  H  672  1  0.36248100  0.44950400  0.87739900  1
  H  673  1  0.43136400  0.57228400  0.86898400  1
  H  674  1  0.36154500  0.57207200  0.86981200  1
  H  675  1  0.45322400  0.51068400  0.91205820  1
  H  676  1  0.50604700  0.51039100  0.93794420  1
  H  677  1  0.71565100  0.51292000  0.91124020  1
  H  678  1  0.66360900  0.51300300  0.93775320  1
  H  679  1  0.57359500  0.57265900  0.94754520  1
  H  680  1  0.57389200  0.57360500  0.98246020  1
  H  681  1  0.59566800  0.45134800  0.94816620  1
  H  682  1  0.59532700  0.45197100  0.98310920  1
  H  683  1  0.63332600  0.47629100  0.01172800  1
  H  684  1  0.63195300  0.47691200  0.04662900  1
  H  685  1  0.53378500  0.55144600  0.04537500  1
  H  686  1  0.53453900  0.55029300  0.01064400  1
  H  687  1  0.73544900  0.45131700  0.86888000  1
  H  688  1  0.80526000  0.45233900  0.86937900  1
  H  689  1  0.85989300  0.55822800  0.89438500  1
  H  690  1  0.92963470  0.56011700  0.89445700  1
  H  691  1  0.93241970  0.47314600  0.85082600  1
  H  692  1  0.86276200  0.47186300  0.85023800  1
  H  693  1  0.80307300  0.57541600  0.87456600  1
  H  694  1  0.73329600  0.57405300  0.87459300  1
  H  695  1  0.30438300  0.55079400  0.85062000  1
  H  696  1  0.23473500  0.54995800  0.85082800  1
  H  697  1  0.30559900  0.46946200  0.89704100  1
  H  698  1  0.23580800  0.46807600  0.89681500  1
  H  775  1  0.61157400  0.47148600  0.19906800  1
  H  776  1  0.61014900  0.47160100  0.23376100  1
  H  777  1  0.53570100  0.56865400  0.19807100  1
  H  778  1  0.53471000  0.56930500  0.23298600  1
  H  779  1  0.51077100  0.53022100  0.26137600  1
  H  780  1  0.50989000  0.52969100  0.29632300  1
  H  781  1  0.63274200  0.51078400  0.26213900  1
  H  782  1  0.63154400  0.50958500  0.29704500  1
  H  783  1  0.56947700  0.44078100  0.30647500  1
  H  784  1  0.56991700  0.38780500  0.33232600  1
  H  785  1  0.57046400  0.49359400  0.36000400  1
  H  786  1  0.57039500  0.54151100  0.38449800  1
  H  787  1  0.57089300  0.59838400  0.30685700  1
  H  788  1  0.57050300  0.65030600  0.33342700  1
  H  789  1  0.50868100  0.66838700  0.37722200  1
  H  790  1  0.50813500  0.73819600  0.37758300  1
  H  791  1  0.63088800  0.66928200  0.36903000  1
  H  792  1  0.63069300  0.73910100  0.36983700  1
  H  793  1  0.56938400  0.64727300  0.41220000  1
  H  794  1  0.56897800  0.59432200  0.43803000  1
  H  795  1  0.57122800  0.38484200  0.41108000  1
  H  796  1  0.57120100  0.43675900  0.43764900  1
  H  797  1  0.63077800  0.52631600  0.44771500  1
  H  798  1  0.63133400  0.52510400  0.48263000  1
  H  799  1  0.50937000  0.50475200  0.44796600  1
  H  800  1  0.50960300  0.50418800  0.48290600  1
  H  801  1  0.53347300  0.46501800  0.51116400  1
  H  802  1  0.53378000  0.46497000  0.54606400  1
  H  803  1  0.60883200  0.56278300  0.54590900  1
  H  804  1  0.60797400  0.56345700  0.51117600  1
  H  805  1  0.50993900  0.36520000  0.36874400  1
  H  806  1  0.51096700  0.29539200  0.36926400  1
  H  807  1  0.61679700  0.24080400  0.39427700  1
  H  808  1  0.61869700  0.17106300  0.39437200  1
  H  809  1  0.53184600  0.16820200  0.35075800  1
  H  810  1  0.53055000  0.23785400  0.35014700  1
  H  811  1  0.63402700  0.29759700  0.37443200  1
  H  812  1  0.63265900  0.36737500  0.37443900  1
  H  813  1  0.60943200  0.79624400  0.35066700  1
  H  814  1  0.60860400  0.86589000  0.35084800  1
  H  815  1  0.52807100  0.79510800  0.39714600  1
  H  816  1  0.52668500  0.86489900  0.39688900  1
  H  827  1  0.53164600  0.56605300  0.11388600  1
  H  832  1  0.61441400  0.48654400  0.16608400  1
  H  834  1  0.54590100  0.55161500  0.07894600  1
  H  841  1  0.62130100  0.56336900  0.61449300  1
  H  846  1  0.54021600  0.47945100  0.66571700  1
  H  848  1  0.60788200  0.54996600  0.57939200  1
  H  855  1  0.06633700  0.44542200  0.86950000  1
  H  860  1  0.17084600  0.55908900  0.86666100  1
  H  862  1  0.99641167  0.46631800  0.86746400  1
  H  869  1  0.50407200  0.03432000  0.36948000  1
  H  874  1  0.61774200  0.92980290  0.36667400  1
  H  876  1  0.52497800  0.10424200  0.36741800  1
  C  1  1  0.06419300  0.97870800  0.93822700  1
  C  2  1  0.09301900  0.97882500  0.95235500  1
  C  3  1  0.07504400  0.97922300  0.97070500  1
  C  5  1  0.02782600  0.97931600  0.94756200  1
  C  6  1  0.99099900  0.97961900  0.93782700  1
  C  7  1  0.95412300  0.97960600  0.94745000  1
  C  9  1  0.90809500  0.97944900  0.97088900  1
  C  10  1  0.88925400  0.97979100  0.95278300  1
  C  11  1  0.91755200  0.98009000  0.93837500  1
  C  12  1  0.88953900  0.97914000  0.98949700  1
  C  13  1  0.90975800  0.97889200  0.00770400  1
  C  15  1  0.95698000  0.97903000  0.03084600  1
  C  16  1  0.92062400  0.97848300  0.04018500  1
  C  17  1  0.89180100  0.97857800  0.02606300  1
  C  18  1  0.99379800  0.97926500  0.04058700  1
  C  19  1  0.03065500  0.97943500  0.03095800  1
  C  21  1  0.07666100  0.97970400  0.00752000  1
  C  22  1  0.09550400  0.98021200  0.02562600  1
  C  23  1  0.06721500  0.98020400  0.04003500  1
  C  24  1  0.09523700  0.97963100  0.98891500  1
  C  25  1  0.13705400  0.98033500  0.98858700  1
  C  26  1  0.15754400  0.01599900  0.99033400  1
  C  27  1  0.19873200  0.01661900  0.99050700  1
  C  28  1  0.22098200  0.98175100  0.98895200  1
  C  29  1  0.19998600  0.94616700  0.98709400  1
  C  30  1  0.15878700  0.94538900  0.98695100  1
  C  31  1  0.26304100  0.98244300  0.98930100  1
  C  32  1  0.28550900  0.95781600  0.97695200  1
  C  33  1  0.32670800  0.95855300  0.97723100  1
  C  34  1  0.34712700  0.98390900  0.98997700  1
  C  35  1  0.32505700  0.00892100  0.00211300  1
  C  36  1  0.28385800  0.00798000  0.00189800  1
  C  37  1  0.99385800  0.97966800  0.06150100  1
  C  38  1  0.98748200  0.01480700  0.07187400  1
  C  39  1  0.98738700  0.01518400  0.09246700  1
  C  40  1  0.99385600  0.98061400  0.10342300  1
  C  41  1  0.00046900  0.94557000  0.09283600  1
  C  42  1  0.00037000  0.94502400  0.07223800  1
  C  43  1  0.99341600  0.98108600  0.12441600  1
  C  44  1  0.96502500  0.00284500  0.13488800  1
  C  45  1  0.96440600  0.00339200  0.15547700  1
  C  46  1  0.99232900  0.98223300  0.16646000  1
  C  47  1  0.02056700  0.96033900  0.15611900  1
  C  48  1  0.02112300  0.95975400  0.13551200  1
  C  49  1  0.84771300  0.97895800  0.98988600  1
  C  50  1  0.82686700  0.94369400  0.99244100  1
  C  51  1  0.78568000  0.94354900  0.99284500  1
  C  52  1  0.76381800  0.97850300  0.99063800  1
  C  53  1  0.78513700  0.01369700  0.98806100  1
  C  54  1  0.82633000  0.01400100  0.98772700  1
  C  55  1  0.72178300  0.97822100  0.99087000  1
  C  56  1  0.69982200  0.00155900  0.97774100  1
  C  57  1  0.65862800  0.00107400  0.97779900  1
  C  58  1  0.63771700  0.97729200  0.99109400  1
  C  59  1  0.65930800  0.95359600  0.00404100  1
  C  60  1  0.70051600  0.95424600  0.00402500  1
  C  61  1  0.99095100  0.98006700  0.91691700  1
  C  62  1  0.98431000  0.94544000  0.90616400  1
  C  63  1  0.99734100  0.01520200  0.90656300  1
  C  64  1  0.99712300  0.01564000  0.88596800  1
  C  65  1  0.99025100  0.98112500  0.87501000  1
  C  66  1  0.98386800  0.94604600  0.88557600  1
  C  67  1  0.98945100  0.98168800  0.85403100  1
  C  68  1  0.96070800  0.96065400  0.84346500  1
  C  69  1  0.95974200  0.96109600  0.82288300  1
  C  70  1  0.98766300  0.98253200  0.81199800  1
  C  71  1  0.01624100  0.00371700  0.82244700  1
  C  72  1  0.01712900  0.00334300  0.84305100  1
  C  119  1  0.97902300  0.91374500  0.43813100  1
  C  120  1  0.97922700  0.88484600  0.45222400  1
  C  121  1  0.97941100  0.90272900  0.47059800  1
  C  123  1  0.97933200  0.95006600  0.44751100  1
  C  124  1  0.97941300  0.98695100  0.43782700  1
  C  125  1  0.97944300  0.02377600  0.44749400  1
  C  127  1  0.97947100  0.06968800  0.47098100  1
  C  128  1  0.97967900  0.08861500  0.45289700  1
  C  129  1  0.97985100  0.06038500  0.43845700  1
  C  130  1  0.97926700  0.08816100  0.48961000  1
  C  131  1  0.97903700  0.06786600  0.50779500  1
  C  133  1  0.97906900  0.02053800  0.53088100  1
  C  134  1  0.97859900  0.05684800  0.54026500  1
  C  135  1  0.97877700  0.08574000  0.52617400  1
  C  136  1  0.97917100  0.98367100  0.54057400  1
  C  137  1  0.97937100  0.94685800  0.53090000  1
  C  139  1  0.97973100  0.90095400  0.50741000  1
  C  140  1  0.98011800  0.88203200  0.52549700  1
  C  141  1  0.98004100  0.91025500  0.53993700  1
  C  142  1  0.97975300  0.88245700  0.48878700  1
  C  143  1  0.98048200  0.84064000  0.48842300  1
  C  144  1  0.01614200  0.82015200  0.49017800  1
  C  145  1  0.01676800  0.77896400  0.49036800  1
  C  146  1  0.98190300  0.75670900  0.48883100  1
  C  147  1  0.94632200  0.77770000  0.48698000  1
  C  148  1  0.94554300  0.81889800  0.48680300  1
  C  149  1  0.98259400  0.71465000  0.48920200  1
  C  150  1  0.95799100  0.69215900  0.47687200  1
  C  151  1  0.95874100  0.65095900  0.47716300  1
  C  152  1  0.98410100  0.63056400  0.48989300  1
  C  153  1  0.00905900  0.65265700  0.50202600  1
  C  154  1  0.00809500  0.69385400  0.50180400  1
  C  155  1  0.97930000  0.98347100  0.56148600  1
  C  156  1  0.01434600  0.98945400  0.57196600  1
  C  157  1  0.01449800  0.98899200  0.59255800  1
  C  158  1  0.97978700  0.98232600  0.60340500  1
  C  159  1  0.94482300  0.97620500  0.59271000  1
  C  160  1  0.94450400  0.97686000  0.57211500  1
  C  161  1  0.98005800  0.98195300  0.62439600  1
  C  162  1  0.00187100  0.00979900  0.63518300  1
  C  163  1  0.00223300  0.00957700  0.65577700  1
  C  164  1  0.98082100  0.98133100  0.66644500  1
  C  165  1  0.95890000  0.95361600  0.65579000  1
  C  166  1  0.95851600  0.95388800  0.63518300  1
  C  167  1  0.97910500  0.12998200  0.49003400  1
  C  168  1  0.94384700  0.15083600  0.49262100  1
  C  169  1  0.94370600  0.19202200  0.49299200  1
  C  170  1  0.97866100  0.21387700  0.49074000  1
  C  171  1  0.01384800  0.19254900  0.48812900  1
  C  172  1  0.01414700  0.15135400  0.48781200  1
  C  173  1  0.97838800  0.25591300  0.49095500  1
  C  174  1  0.00174500  0.27785100  0.47780600  1
  C  175  1  0.00124800  0.31904600  0.47784100  1
  C  176  1  0.97744700  0.33998000  0.49113700  1
  C  177  1  0.95374400  0.31841300  0.50411100  1
  C  178  1  0.95440800  0.27720400  0.50411800  1
  C  179  1  0.97987500  0.98716600  0.41692000  1
  C  180  1  0.94520700  0.99339700  0.40616100  1
  C  181  1  0.01519300  0.98164000  0.40658100  1
  C  182  1  0.01572900  0.98210200  0.38599600  1
  C  183  1  0.98113800  0.98831600  0.37501500  1
  C  184  1  0.94590600  0.99406600  0.38556600  1
  C  185  1  0.98178800  0.98839000  0.35402900  1
  C  186  1  0.96012800  0.01598600  0.34301900  1
  C  187  1  0.96091000  0.01584500  0.32240800  1
  C  188  1  0.98337600  0.98818200  0.31198500  1
  C  189  1  0.00478100  0.96031800  0.32289600  1
  C  190  1  0.00405900  0.96053200  0.34347800  1
  C  237  1  0.99618600  0.97839900  0.25916300  1
  C  239  1  0.96148700  0.01313100  0.23409700  1
  C  240  1  0.98179800  0.99269100  0.21928500  1
  C  242  1  0.01670200  0.95762900  0.24437400  1
  C  247  1  0.00251900  0.97242200  0.27903600  1
  C  249  1  0.97498800  0.99945400  0.19956400  1
  C  251  1  0.97588400  0.97370400  0.75908100  1
  C  253  1  0.01032400  0.00998800  0.73444700  1
  C  254  1  0.99056100  0.98979000  0.71938900  1
  C  256  1  0.95584900  0.95323700  0.74404000  1
  C  261  1  0.96950900  0.96678000  0.77888100  1
  C  263  1  0.99748000  0.99749500  0.69975800  1
  C  265  1  0.53239000  0.99131600  0.98835300  1
  C  267  1  0.48220600  0.94226900  0.98734600  1
  C  268  1  0.45262800  0.97104100  0.98820300  1
  C  270  1  0.50290300  0.02046700  0.98933700  1
  C  275  1  0.57207800  0.99998800  0.98743200  1
  C  277  1  0.41317700  0.96154300  0.98738500  1
  C  279  1  0.99148900  0.44529800  0.48835300  1
  C  281  1  0.94244600  0.49548000  0.48732800  1
  C  282  1  0.97121700  0.52506000  0.48817600  1
  C  284  1  0.02063700  0.47478500  0.48932600  1
  C  289  1  0.00015900  0.40561000  0.48744300  1
  C  291  1  0.96172400  0.56451100  0.48734100  1
  C  293  1  0.85955200  0.74483300  0.87975500  1
  C  294  1  0.88837800  0.74495000  0.89388300  1
  C  295  1  0.87040300  0.74534800  0.91223310  1
  C  297  1  0.82318500  0.74544100  0.88909000  1
  C  298  1  0.78635800  0.74574400  0.87935500  1
  C  299  1  0.74948200  0.74573100  0.88897800  1
  C  301  1  0.70345400  0.74557400  0.91241710  1
  C  302  1  0.68461300  0.74591600  0.89431100  1
  C  303  1  0.71291100  0.74621500  0.87990300  1
  C  304  1  0.68489800  0.74526500  0.93102510  1
  C  305  1  0.70511700  0.74501700  0.94923210  1
  C  307  1  0.75233900  0.74515500  0.97237410  1
  C  308  1  0.71598300  0.74460800  0.98171310  1
  C  309  1  0.68716000  0.74470300  0.96759110  1
  C  310  1  0.78915700  0.74539000  0.98211510  1
  C  311  1  0.82601400  0.74556000  0.97248610  1
  C  313  1  0.87202000  0.74582900  0.94904810  1
  C  314  1  0.89086300  0.74633700  0.96715410  1
  C  315  1  0.86257400  0.74632900  0.98156310  1
  C  316  1  0.89059600  0.74575600  0.93044310  1
  C  317  1  0.93241330  0.74646000  0.93011510  1
  C  318  1  0.95290330  0.78212400  0.93186210  1
  C  319  1  0.99409133  0.78274400  0.93203510  1
  C  320  1  0.01634100  0.74787600  0.93048010  1
  C  321  1  0.99534533  0.71229200  0.92862210  1
  C  322  1  0.95414630  0.71151400  0.92847910  1
  C  323  1  0.05840000  0.74856800  0.93082910  1
  C  324  1  0.08086800  0.72394100  0.91848010  1
  C  325  1  0.12206700  0.72467800  0.91875910  1
  C  326  1  0.14248600  0.75003400  0.93150510  1
  C  327  1  0.12041600  0.77504600  0.94364110  1
  C  328  1  0.07921700  0.77410500  0.94342610  1
  C  329  1  0.78921700  0.74579300  0.00302900  1
  C  330  1  0.78284100  0.78093200  0.01340200  1
  C  331  1  0.78274600  0.78130900  0.03399500  1
  C  332  1  0.78921500  0.74673900  0.04495100  1
  C  333  1  0.79582800  0.71169500  0.03436400  1
  C  334  1  0.79572900  0.71114900  0.01376600  1
  C  335  1  0.78877500  0.74721100  0.06594400  1
  C  336  1  0.76038400  0.76897000  0.07641600  1
  C  337  1  0.75976500  0.76951700  0.09700500  1
  C  338  1  0.78768800  0.74835800  0.10798800  1
  C  339  1  0.81592600  0.72646400  0.09764700  1
  C  340  1  0.81648200  0.72587900  0.07704000  1
  C  341  1  0.64307200  0.74508300  0.93141410  1
  C  342  1  0.62222600  0.70981900  0.93396910  1
  C  343  1  0.58103900  0.70967400  0.93437310  1
  C  344  1  0.55917700  0.74462800  0.93216610  1
  C  345  1  0.58049600  0.77982200  0.92958910  1
  C  346  1  0.62168900  0.78012600  0.92925510  1
  C  347  1  0.51714200  0.74434600  0.93239810  1
  C  348  1  0.49518100  0.76768400  0.91926910  1
  C  349  1  0.45398700  0.76719900  0.91932710  1
  C  350  1  0.43307600  0.74341700  0.93262210  1
  C  351  1  0.45466700  0.71972100  0.94556910  1
  C  352  1  0.49587500  0.72037100  0.94555310  1
  C  353  1  0.78631000  0.74619200  0.85844500  1
  C  354  1  0.77966900  0.71156500  0.84769200  1
  C  355  1  0.79270000  0.78132700  0.84809100  1
  C  356  1  0.79248200  0.78176500  0.82749600  1
  C  357  1  0.78561000  0.74725000  0.81653800  1
  C  358  1  0.77922700  0.71217100  0.82710400  1
  C  359  1  0.78481000  0.74781300  0.79555900  1
  C  360  1  0.75606700  0.72677900  0.78499300  1
  C  361  1  0.75510100  0.72722100  0.76441100  1
  C  362  1  0.78302200  0.74865700  0.75352600  1
  C  363  1  0.81160000  0.76984200  0.76397500  1
  C  364  1  0.81248800  0.76946800  0.78457900  1
  C  411  1  0.77438200  0.67987000  0.37965900  1
  C  412  1  0.77458600  0.65097100  0.39375200  1
  C  413  1  0.77477000  0.66885400  0.41212600  1
  C  415  1  0.77469100  0.71619100  0.38903900  1
  C  416  1  0.77477200  0.75307600  0.37935500  1
  C  417  1  0.77480200  0.78990100  0.38902200  1
  C  419  1  0.77483000  0.83581300  0.41250900  1
  C  420  1  0.77503800  0.85474000  0.39442500  1
  C  421  1  0.77521000  0.82651000  0.37998500  1
  C  422  1  0.77462600  0.85428600  0.43113800  1
  C  423  1  0.77439600  0.83399100  0.44932300  1
  C  425  1  0.77442800  0.78666300  0.47240900  1
  C  426  1  0.77395800  0.82297300  0.48179300  1
  C  427  1  0.77413600  0.85186500  0.46770200  1
  C  428  1  0.77453000  0.74979600  0.48210200  1
  C  429  1  0.77473000  0.71298300  0.47242800  1
  C  431  1  0.77509000  0.66707900  0.44893800  1
  C  432  1  0.77547700  0.64815700  0.46702500  1
  C  433  1  0.77540000  0.67638000  0.48146500  1
  C  434  1  0.77511200  0.64858200  0.43031500  1
  C  435  1  0.77584100  0.60676500  0.42995100  1
  C  436  1  0.81150100  0.58627700  0.43170600  1
  C  437  1  0.81212700  0.54508900  0.43189600  1
  C  438  1  0.77726200  0.52283400  0.43035900  1
  C  439  1  0.74168100  0.54382500  0.42850800  1
  C  440  1  0.74090200  0.58502300  0.42833100  1
  C  441  1  0.77795300  0.48077500  0.43073000  1
  C  442  1  0.75335000  0.45828400  0.41840000  1
  C  443  1  0.75410000  0.41708400  0.41869100  1
  C  444  1  0.77946000  0.39668900  0.43142100  1
  C  445  1  0.80441800  0.41878200  0.44355400  1
  C  446  1  0.80345400  0.45997900  0.44333200  1
  C  447  1  0.77465900  0.74959600  0.50301400  1
  C  448  1  0.80970500  0.75557900  0.51349400  1
  C  449  1  0.80985700  0.75511700  0.53408600  1
  C  450  1  0.77514600  0.74845100  0.54493300  1
  C  451  1  0.74018200  0.74233000  0.53423800  1
  C  452  1  0.73986300  0.74298500  0.51364300  1
  C  453  1  0.77541700  0.74807800  0.56592400  1
  C  454  1  0.79723000  0.77592400  0.57671100  1
  C  455  1  0.79759200  0.77570200  0.59730500  1
  C  456  1  0.77618000  0.74745600  0.60797300  1
  C  457  1  0.75425900  0.71974100  0.59731800  1
  C  458  1  0.75387500  0.72001300  0.57671100  1
  C  459  1  0.77446400  0.89610700  0.43156200  1
  C  460  1  0.73920600  0.91696100  0.43414900  1
  C  461  1  0.73906500  0.95814700  0.43452000  1
  C  462  1  0.77402000  0.98000200  0.43226800  1
  C  463  1  0.80920700  0.95867400  0.42965700  1
  C  464  1  0.80950600  0.91747900  0.42934000  1
  C  465  1  0.77374700  0.02203800  0.43248300  1
  C  466  1  0.79710400  0.04397600  0.41933400  1
  C  467  1  0.79660700  0.08517100  0.41936900  1
  C  468  1  0.77280600  0.10610500  0.43266500  1
  C  469  1  0.74910300  0.08453800  0.44563900  1
  C  470  1  0.74976700  0.04332900  0.44564600  1
  C  471  1  0.77523400  0.75329100  0.35844800  1
  C  472  1  0.74056600  0.75952200  0.34768900  1
  C  473  1  0.81055200  0.74776500  0.34810900  1
  C  474  1  0.81108800  0.74822700  0.32752400  1
  C  475  1  0.77649700  0.75444100  0.31654300  1
  C  476  1  0.74126500  0.76019100  0.32709400  1
  C  477  1  0.77714700  0.75451500  0.29555700  1
  C  478  1  0.75548700  0.78211100  0.28454700  1
  C  479  1  0.75626900  0.78197000  0.26393600  1
  C  480  1  0.77873500  0.75430700  0.25351300  1
  C  481  1  0.80014000  0.72644300  0.26442400  1
  C  482  1  0.79941800  0.72665700  0.28500600  1
  C  529  1  0.79154500  0.74452400  0.20069100  1
  C  531  1  0.75684600  0.77925600  0.17562500  1
  C  532  1  0.77715700  0.75881600  0.16081300  1
  C  534  1  0.81206100  0.72375400  0.18590200  1
  C  539  1  0.79787800  0.73854700  0.22056400  1
  C  541  1  0.77034700  0.76557900  0.14109200  1
  C  543  1  0.77124300  0.73982900  0.70060900  1
  C  545  1  0.80568300  0.77611300  0.67597500  1
  C  546  1  0.78592000  0.75591500  0.66091700  1
  C  548  1  0.75120800  0.71936200  0.68556800  1
  C  553  1  0.76486800  0.73290500  0.72040900  1
  C  555  1  0.79283900  0.76362000  0.64128600  1
  C  557  1  0.32774900  0.75744100  0.92988110  1
  C  559  1  0.27756500  0.70839400  0.92887410  1
  C  560  1  0.24798700  0.73716600  0.92973110  1
  C  562  1  0.29826200  0.78659200  0.93086510  1
  C  567  1  0.36743700  0.76611300  0.92896010  1
  C  569  1  0.20853600  0.72766800  0.92891310  1
  C  571  1  0.78684800  0.21142300  0.42988100  1
  C  573  1  0.73780500  0.26160500  0.42885600  1
  C  574  1  0.76657600  0.29118500  0.42970400  1
  C  576  1  0.81599600  0.24091000  0.43085400  1
  C  581  1  0.79551800  0.17173500  0.42897100  1
  C  583  1  0.75708300  0.33063600  0.42886900  1
  C  585  1  0.65491200  0.51095800  0.82128300  1
  C  586  1  0.68373800  0.51107500  0.83541100  1
  C  587  1  0.66576300  0.51147300  0.85376100  1
  C  589  1  0.61854500  0.51156600  0.83061800  1
  C  590  1  0.58171800  0.51186900  0.82088300  1
  C  591  1  0.54484200  0.51185600  0.83050600  1
  C  593  1  0.49881400  0.51169900  0.85394500  1
  C  594  1  0.47997300  0.51204100  0.83583900  1
  C  595  1  0.50827100  0.51234000  0.82143100  1
  C  596  1  0.48025800  0.51139000  0.87255300  1
  C  597  1  0.50047700  0.51114200  0.89076000  1
  C  599  1  0.54769900  0.51128000  0.91390220  1
  C  600  1  0.51134300  0.51073300  0.92324120  1
  C  601  1  0.48252000  0.51082800  0.90911920  1
  C  602  1  0.58451700  0.51151500  0.92364320  1
  C  603  1  0.62137400  0.51168500  0.91401420  1
  C  605  1  0.66738000  0.51195400  0.89057600  1
  C  606  1  0.68622300  0.51246200  0.90868220  1
  C  607  1  0.65793400  0.51245400  0.92309120  1
  C  608  1  0.68595600  0.51188100  0.87197100  1
  C  609  1  0.72777300  0.51258500  0.87164300  1
  C  610  1  0.74826300  0.54824900  0.87339000  1
  C  611  1  0.78945100  0.54886900  0.87356300  1
  C  612  1  0.81170100  0.51400100  0.87200800  1
  C  613  1  0.79070500  0.47841700  0.87015000  1
  C  614  1  0.74950600  0.47763900  0.87000700  1
  C  615  1  0.85376000  0.51469300  0.87235700  1
  C  616  1  0.87622800  0.49006600  0.86000800  1
  C  617  1  0.91742670  0.49080300  0.86028700  1
  C  618  1  0.93784570  0.51615900  0.87303300  1
  C  619  1  0.91577570  0.54117100  0.88516900  1
  C  620  1  0.87457700  0.54023000  0.88495400  1
  C  621  1  0.58457700  0.51191800  0.94455720  1
  C  622  1  0.57820100  0.54705700  0.95493020  1
  C  623  1  0.57810600  0.54743400  0.97552320  1
  C  624  1  0.58457500  0.51286400  0.98647920  1
  C  625  1  0.59118800  0.47782000  0.97589220  1
  C  626  1  0.59108900  0.47727400  0.95529420  1
  C  627  1  0.58413500  0.51333600  0.00747200  1
  C  628  1  0.55574400  0.53509500  0.01794400  1
  C  629  1  0.55512500  0.53564200  0.03853300  1
  C  630  1  0.58304800  0.51448300  0.04951600  1
  C  631  1  0.61128600  0.49258900  0.03917500  1
  C  632  1  0.61184200  0.49200400  0.01856800  1
  C  633  1  0.43843200  0.51120800  0.87294200  1
  C  634  1  0.41758600  0.47594400  0.87549700  1
  C  635  1  0.37639900  0.47579900  0.87590100  1
  C  636  1  0.35453700  0.51075300  0.87369400  1
  C  637  1  0.37585600  0.54594700  0.87111700  1
  C  638  1  0.41704900  0.54625100  0.87078300  1
  C  639  1  0.31250200  0.51047100  0.87392600  1
  C  640  1  0.29054100  0.53380900  0.86079700  1
  C  641  1  0.24934700  0.53332400  0.86085500  1
  C  642  1  0.22843600  0.50954200  0.87415000  1
  C  643  1  0.25002700  0.48584600  0.88709700  1
  C  644  1  0.29123500  0.48649600  0.88708100  1
  C  645  1  0.58167000  0.51231700  0.79997300  1
  C  646  1  0.57502900  0.47769000  0.78922000  1
  C  647  1  0.58806000  0.54745200  0.78961900  1
  C  648  1  0.58784200  0.54789000  0.76902400  1
  C  649  1  0.58097000  0.51337500  0.75806600  1
  C  650  1  0.57458700  0.47829600  0.76863200  1
  C  651  1  0.58017000  0.51393800  0.73708700  1
  C  652  1  0.55142700  0.49290400  0.72652100  1
  C  653  1  0.55046100  0.49334600  0.70593900  1
  C  654  1  0.57838200  0.51478200  0.69505400  1
  C  655  1  0.60696000  0.53596700  0.70550300  1
  C  656  1  0.60784800  0.53559300  0.72610700  1
  C  703  1  0.56974200  0.44599500  0.32118700  1
  C  704  1  0.56994600  0.41709600  0.33528000  1
  C  705  1  0.57013000  0.43497900  0.35365400  1
  C  707  1  0.57005100  0.48231600  0.33056700  1
  C  708  1  0.57013200  0.51920100  0.32088300  1
  C  709  1  0.57016200  0.55602600  0.33055000  1
  C  711  1  0.57019000  0.60193800  0.35403700  1
  C  712  1  0.57039800  0.62086500  0.33595300  1
  C  713  1  0.57057000  0.59263500  0.32151300  1
  C  714  1  0.56998600  0.62041100  0.37266600  1
  C  715  1  0.56975600  0.60011600  0.39085100  1
  C  717  1  0.56978800  0.55278800  0.41393700  1
  C  718  1  0.56931800  0.58909800  0.42332100  1
  C  719  1  0.56949600  0.61799000  0.40923000  1
  C  720  1  0.56989000  0.51592100  0.42363000  1
  C  721  1  0.57009000  0.47910800  0.41395600  1
  C  723  1  0.57045000  0.43320400  0.39046600  1
  C  724  1  0.57083700  0.41428200  0.40855300  1
  C  725  1  0.57076000  0.44250500  0.42299300  1
  C  726  1  0.57047200  0.41470700  0.37184300  1
  C  727  1  0.57120100  0.37289000  0.37147900  1
  C  728  1  0.60686100  0.35240200  0.37323400  1
  C  729  1  0.60748700  0.31121400  0.37342400  1
  C  730  1  0.57262200  0.28895900  0.37188700  1
  C  731  1  0.53704100  0.30995000  0.37003600  1
  C  732  1  0.53626200  0.35114800  0.36985900  1
  C  733  1  0.57331300  0.24690000  0.37225800  1
  C  734  1  0.54871000  0.22440900  0.35992800  1
  C  735  1  0.54946000  0.18320900  0.36021900  1
  C  736  1  0.57482000  0.16281400  0.37294900  1
  C  737  1  0.59977800  0.18490700  0.38508200  1
  C  738  1  0.59881400  0.22610400  0.38486000  1
  C  739  1  0.57001900  0.51572100  0.44454200  1
  C  740  1  0.60506500  0.52170400  0.45502200  1
  C  741  1  0.60521700  0.52124200  0.47561400  1
  C  742  1  0.57050600  0.51457600  0.48646100  1
  C  743  1  0.53554200  0.50845500  0.47576600  1
  C  744  1  0.53522300  0.50911000  0.45517100  1
  C  745  1  0.57077700  0.51420300  0.50745200  1
  C  746  1  0.59259000  0.54204900  0.51823900  1
  C  747  1  0.59295200  0.54182700  0.53883300  1
  C  748  1  0.57154000  0.51358100  0.54950100  1
  C  749  1  0.54961900  0.48586600  0.53884600  1
  C  750  1  0.54923500  0.48613800  0.51823900  1
  C  751  1  0.56982400  0.66223200  0.37309000  1
  C  752  1  0.53456600  0.68308600  0.37567700  1
  C  753  1  0.53442500  0.72427200  0.37604800  1
  C  754  1  0.56938000  0.74612700  0.37379600  1
  C  755  1  0.60456700  0.72479900  0.37118500  1
  C  756  1  0.60486600  0.68360400  0.37086800  1
  C  757  1  0.56910700  0.78816300  0.37401100  1
  C  758  1  0.59246400  0.81010100  0.36086200  1
  C  759  1  0.59196700  0.85129600  0.36089700  1
  C  760  1  0.56816600  0.87223000  0.37419300  1
  C  761  1  0.54446300  0.85066300  0.38716700  1
  C  762  1  0.54512700  0.80945400  0.38717400  1
  C  763  1  0.57059400  0.51941600  0.29997600  1
  C  764  1  0.53592600  0.52564700  0.28921700  1
  C  765  1  0.60591200  0.51389000  0.28963700  1
  C  766  1  0.60644800  0.51435200  0.26905200  1
  C  767  1  0.57185700  0.52056600  0.25807100  1
  C  768  1  0.53662500  0.52631600  0.26862200  1
  C  769  1  0.57250700  0.52064000  0.23708500  1
  C  770  1  0.55084700  0.54823600  0.22607500  1
  C  771  1  0.55162900  0.54809500  0.20546400  1
  C  772  1  0.57409500  0.52043200  0.19504100  1
  C  773  1  0.59550000  0.49256800  0.20595200  1
  C  774  1  0.59477800  0.49278200  0.22653400  1
  C  821  1  0.58690500  0.51064900  0.14221900  1
  C  823  1  0.55220600  0.54538100  0.11715300  1
  C  824  1  0.57251700  0.52494100  0.10234100  1
  C  826  1  0.60742100  0.48987900  0.12743000  1
  C  831  1  0.59323800  0.50467200  0.16209200  1
  C  833  1  0.56570700  0.53170400  0.08262000  1
  C  835  1  0.56660300  0.50595400  0.64213700  1
  C  837  1  0.60104300  0.54223800  0.61750300  1
  C  838  1  0.58128000  0.52204000  0.60244500  1
  C  840  1  0.54656800  0.48548700  0.62709600  1
  C  845  1  0.56022800  0.49903000  0.66193700  1
  C  847  1  0.58819900  0.52974500  0.58281400  1
  C  849  1  0.12310900  0.52356600  0.87140900  1
  C  851  1  0.07292500  0.47451900  0.87040200  1
  C  852  1  0.04334700  0.50329100  0.87125900  1
  C  854  1  0.09362200  0.55271700  0.87239300  1
  C  859  1  0.16279700  0.53223800  0.87048800  1
  C  861  1  0.00389600  0.49379300  0.87044100  1
  C  863  1  0.58220800  0.97754790  0.37140900  1
  C  865  1  0.53316500  0.02773000  0.37038400  1
  C  866  1  0.56193600  0.05731000  0.37123200  1
  C  868  1  0.61135600  0.00703500  0.37238200  1
  C  873  1  0.59087800  0.93785990  0.37049900  1
  C  875  1  0.55244300  0.09676100  0.37039700  1
  N  4  1  0.03605700  0.97942600  0.96697400  1
  N  8  1  0.94685000  0.97927400  0.96689500  1
  N  14  1  0.94874400  0.97916300  0.01143200  1
  N  20  1  0.03791300  0.97917200  0.01151200  1
  N  115  1  0.38606900  0.98698400  0.99042100  1
  N  116  1  0.98872100  0.98445500  0.79246100  1
  N  117  1  0.59873000  0.97463400  0.99144300  1
  N  118  1  0.99358400  0.98105000  0.18599800  1
  N  122  1  0.97942100  0.94173500  0.46691200  1
  N  126  1  0.97927300  0.03095100  0.46694700  1
  N  132  1  0.97925100  0.02886200  0.51147800  1
  N  138  1  0.97923600  0.93968600  0.51144600  1
  N  233  1  0.98716000  0.59162200  0.49035800  1
  N  234  1  0.98236700  0.98965800  0.29243300  1
  N  235  1  0.97479300  0.37896400  0.49147100  1
  N  236  1  0.97945400  0.97925500  0.68596300  1
  N  238  1  0.96941100  0.00528300  0.25314000  1
  N  241  1  0.00849600  0.96580000  0.22528600  1
  N  244  1  0.04493400  0.92904000  0.24899000  1
  N  252  1  0.00228900  0.00125300  0.75338600  1
  N  255  1  0.96417400  0.96228300  0.72505600  1
  N  258  1  0.92793500  0.92411000  0.74830900  1
  N  266  1  0.52031000  0.95342400  0.98737600  1
  N  269  1  0.46469400  0.00889900  0.98917400  1
  N  272  1  0.51235300  0.06054400  0.99038600  1
  N  280  1  0.95360000  0.45737800  0.48737200  1
  N  283  1  0.00906900  0.51299400  0.48915100  1
  N  286  1  0.06071000  0.46533500  0.49038000  1
  N  296  1  0.83141600  0.74555100  0.90850210  1
  N  300  1  0.74220900  0.74539900  0.90842310  1
  N  306  1  0.74410300  0.74528800  0.95296010  1
  N  312  1  0.83327200  0.74529700  0.95304010  1
  N  407  1  0.18142800  0.75310900  0.93194910  1
  N  408  1  0.78408000  0.75058000  0.73398900  1
  N  409  1  0.39408900  0.74075900  0.93297110  1
  N  410  1  0.78894300  0.74717500  0.12752600  1
  N  414  1  0.77478000  0.70786000  0.40844000  1
  N  418  1  0.77463200  0.79707600  0.40847500  1
  N  424  1  0.77461000  0.79498700  0.45300600  1
  N  430  1  0.77459500  0.70581100  0.45297400  1
  N  525  1  0.78251900  0.35774700  0.43188600  1
  N  526  1  0.77772600  0.75578300  0.23396100  1
  N  527  1  0.77015200  0.14508900  0.43299900  1
  N  528  1  0.77481300  0.74538000  0.62749100  1
  N  530  1  0.76477000  0.77140800  0.19466800  1
  N  533  1  0.80385500  0.73192500  0.16681400  1
  N  536  1  0.84029300  0.69516500  0.19051800  1
  N  544  1  0.79764800  0.76737800  0.69491400  1
  N  547  1  0.75953300  0.72840800  0.66658400  1
  N  550  1  0.72329400  0.69023500  0.68983700  1
  N  558  1  0.31566900  0.71954900  0.92890410  1
  N  561  1  0.26005300  0.77502400  0.93070210  1
  N  564  1  0.30771200  0.82666900  0.93191410  1
  N  572  1  0.74895900  0.22350300  0.42890000  1
  N  575  1  0.80442800  0.27911900  0.43067900  1
  N  578  1  0.85606900  0.23146000  0.43190800  1
  N  588  1  0.62677600  0.51167600  0.85003000  1
  N  592  1  0.53756900  0.51152400  0.84995100  1
  N  598  1  0.53946300  0.51141300  0.89448800  1
  N  604  1  0.62863200  0.51142200  0.89456800  1
  N  699  1  0.97678770  0.51923400  0.87347700  1
  N  700  1  0.57944000  0.51670500  0.67551700  1
  N  701  1  0.18944900  0.50688400  0.87449900  1
  N  702  1  0.58430300  0.51330000  0.06905400  1
  N  706  1  0.57014000  0.47398500  0.34996800  1
  N  710  1  0.56999200  0.56320100  0.35000300  1
  N  716  1  0.56997000  0.56111200  0.39453400  1
  N  722  1  0.56995500  0.47193600  0.39450200  1
  N  817  1  0.57787900  0.12387200  0.37341400  1
  N  818  1  0.57308600  0.52190800  0.17548900  1
  N  819  1  0.56551200  0.91121390  0.37452700  1
  N  820  1  0.57017300  0.51150500  0.56901900  1
  N  822  1  0.56013000  0.53753300  0.13619600  1
  N  825  1  0.59921500  0.49805000  0.10834200  1
  N  828  1  0.63565300  0.46129000  0.13204600  1
  N  836  1  0.59300800  0.53350300  0.63644200  1
  N  839  1  0.55489300  0.49453300  0.60811200  1
  N  842  1  0.51865400  0.45636000  0.63136500  1
  N  850  1  0.11102900  0.48567400  0.87043200  1
  N  853  1  0.05541300  0.54114900  0.87223000  1
  N  856  1  0.10307200  0.59279400  0.87344200  1
  N  864  1  0.54431900  0.98962790  0.37042800  1
  N  867  1  0.59978800  0.04524400  0.37220700  1
  N  870  1  0.65142900  0.99758491  0.37343600  1
  O  245  1  0.07758000  0.93829000  0.24197600  1
  O  246  1  0.03523700  0.89649100  0.24201400  1
  O  259  1  0.89526800  0.93318300  0.74129100  1
  O  260  1  0.93817200  0.89196300  0.74105800  1
  O  273  1  0.49815800  0.07849800  0.97604900  1
  O  274  1  0.49864700  0.07530100  0.00574400  1
  O  287  1  0.07871400  0.47951000  0.47603800  1
  O  288  1  0.07541200  0.47906100  0.50573300  1
  O  537  1  0.87293900  0.70441500  0.18350400  1
  O  538  1  0.83059600  0.66261600  0.18354200  1
  O  551  1  0.69062700  0.69930800  0.68281900  1
  O  552  1  0.73353100  0.65808800  0.68258600  1
  O  565  1  0.29351700  0.84462300  0.91757710  1
  O  566  1  0.29400600  0.84142600  0.94727210  1
  O  579  1  0.87407300  0.24563500  0.41756600  1
  O  580  1  0.87077100  0.24518600  0.44726100  1
  O  829  1  0.66829900  0.47054000  0.12503200  1
  O  830  1  0.62595600  0.42874100  0.12507000  1
  O  843  1  0.48598700  0.46543300  0.62434700  1
  O  844  1  0.52889100  0.42421300  0.62411400  1
  O  857  1  0.08887700  0.61074800  0.85910500  1
  O  858  1  0.08936600  0.60755100  0.88880000  1
  O  871  1  0.66943300  0.01176000  0.35909400  1
  O  872  1  0.66613100  0.01131100  0.38878900  1
