# generated using pymatgen
data_H17C28(NO)2
_symmetry_space_group_name_H-M   'P 1'
_cell_length_a   18.85430000
_cell_length_b   25.73360000
_cell_length_c   59.20840000
_cell_angle_alpha   89.99490000
_cell_angle_beta   90.00310000
_cell_angle_gamma   90.01980000
_symmetry_Int_Tables_number   1
_chemical_formula_structural   H17C28(NO)2
_chemical_formula_sum   'H272 C448 N32 O32'
_cell_volume   28727.26337380
_cell_formula_units_Z   16
loop_
 _symmetry_equiv_pos_site_id
 _symmetry_equiv_pos_as_xyz
  1  'x, y, z'
loop_
 _atom_site_type_symbol
 _atom_site_label
 _atom_site_symmetry_multiplicity
 _atom_site_fract_x
 _atom_site_fract_y
 _atom_site_fract_z
 _atom_site_occupancy
  C  1  1  0.60602100  0.27152150  0.81178950  1
  C  2  1  0.56710600  0.22607700  0.81184150  1
  C  3  1  0.55187900  0.21311950  0.83425400  1
  C  5  1  0.61638800  0.28691250  0.83418300  1
  C  6  1  0.65419500  0.33200350  0.84110400  1
  C  7  1  0.66789400  0.34613250  0.86384100  1
  C  9  1  0.67124200  0.34471850  0.90160100  1
  C  10  1  0.70675000  0.38936950  0.89431500  1
  C  11  1  0.70453800  0.39030550  0.87103400  1
  C  12  1  0.66069100  0.32932350  0.92438500  1
  C  13  1  0.62010200  0.28562350  0.93141400  1
  C  15  1  0.55017500  0.21449250  0.93151000  1
  C  16  1  0.56533300  0.22760000  0.95390200  1
  C  17  1  0.60875500  0.27082650  0.95383600  1
  C  18  1  0.50738900  0.17185250  0.92457500  1
  C  19  1  0.49449600  0.15731950  0.90180200  1
  C  21  1  0.49675600  0.15595250  0.86402300  1
  C  22  1  0.45678600  0.11341450  0.87128700  1
  C  23  1  0.45535400  0.11427650  0.89457400  1
  C  24  1  0.51172400  0.16917050  0.84125700  1
  C  25  1  0.48808300  0.13405300  0.82429600  1
  C  26  1  0.52870000  0.08937850  0.81943800  1
  C  27  1  0.50795700  0.05542150  0.80208650  1
  C  28  1  0.44627400  0.06530350  0.78917150  1
  C  29  1  0.40560400  0.11004400  0.79414550  1
  C  30  1  0.42594400  0.14390350  0.81167000  1
  C  31  1  0.47508900  0.14078800  0.94159200  1
  C  32  1  0.51387500  0.10114150  0.95250400  1
  C  33  1  0.47993700  0.06729750  0.96771300  1
  C  34  1  0.40645300  0.07189550  0.97213800  1
  C  35  1  0.36827100  0.11240300  0.96149700  1
  C  36  1  0.40214100  0.14648750  0.94639600  1
  C  37  1  0.69312900  0.36057900  0.94131100  1
  C  38  1  0.65349300  0.39870200  0.95291400  1
  C  39  1  0.68715800  0.43267400  0.96812900  1
  C  40  1  0.76114200  0.42963850  0.97192000  1
  C  41  1  0.80024600  0.39064250  0.96058300  1
  C  42  1  0.76669400  0.35651750  0.94542700  1
  C  43  1  0.67653400  0.36730550  0.82405600  1
  C  44  1  0.63120600  0.40839550  0.81769600  1
  C  45  1  0.74259300  0.36159050  0.81308050  1
  C  46  1  0.76245700  0.39611850  0.79573900  1
  C  47  1  0.71729400  0.43747100  0.78936800  1
  C  48  1  0.65140300  0.44303250  0.80053650  1
  C  75  1  0.59925700  0.72609700  0.68963650  1
  C  76  1  0.56042800  0.77156000  0.68967900  1
  C  77  1  0.55036000  0.78706000  0.66728500  1
  C  79  1  0.61490900  0.71332300  0.66723600  1
  C  80  1  0.65529100  0.66949300  0.66025100  1
  C  81  1  0.67029700  0.65627800  0.63748800  1
  C  83  1  0.67243300  0.65754400  0.59970800  1
  C  84  1  0.71168800  0.61458600  0.60694900  1
  C  85  1  0.71036800  0.61380600  0.63023800  1
  C  86  1  0.65953700  0.67204700  0.57693000  1
  C  87  1  0.61676600  0.71466400  0.56998300  1
  C  89  1  0.54682900  0.78575600  0.57005750  1
  C  90  1  0.55823300  0.77097000  0.54763800  1
  C  91  1  0.60170700  0.72779500  0.54758550  1
  C  92  1  0.50622800  0.82943500  0.57707450  1
  C  93  1  0.49572500  0.84486700  0.59985500  1
  C  95  1  0.49911400  0.84633900  0.63761150  1
  C  96  1  0.46252800  0.89051200  0.63040750  1
  C  97  1  0.46029800  0.88954400  0.60712600  1
  C  98  1  0.51272000  0.83219700  0.66035300  1
  C  99  1  0.49027500  0.86745500  0.67739500  1
  C  100  1  0.53553800  0.90858400  0.68378200  1
  C  101  1  0.51523000  0.94318200  0.70093500  1
  C  102  1  0.44928700  0.93754800  0.71207100  1
  C  103  1  0.40420200  0.89614700  0.70567750  1
  C  104  1  0.42416200  0.86167200  0.68833550  1
  C  105  1  0.47374200  0.86063500  0.56014350  1
  C  106  1  0.51327100  0.89884600  0.54854300  1
  C  107  1  0.47950700  0.93277500  0.53333550  1
  C  108  1  0.40552000  0.92963300  0.52956300  1
  C  109  1  0.36652000  0.89054300  0.54089150  1
  C  110  1  0.40016800  0.85647800  0.55604650  1
  C  111  1  0.69177800  0.64095100  0.55992100  1
  C  112  1  0.65289500  0.60132000  0.54902300  1
  C  113  1  0.68674400  0.56744300  0.53381900  1
  C  114  1  0.76023300  0.57200050  0.52938200  1
  C  115  1  0.79849500  0.61253200  0.53998600  1
  C  116  1  0.76472500  0.64662100  0.55509800  1
  C  117  1  0.67883600  0.63436100  0.67721850  1
  C  118  1  0.63825500  0.58961400  0.68202300  1
  C  119  1  0.74084700  0.64426300  0.68990400  1
  C  120  1  0.76112000  0.61036300  0.70742250  1
  C  121  1  0.72051900  0.56553200  0.71233000  1
  C  122  1  0.65892500  0.55562650  0.69937050  1
  C  149  1  0.06021400  0.73028450  0.18975250  1
  C  150  1  0.09913800  0.77572100  0.18969650  1
  C  151  1  0.11453000  0.78859500  0.16728650  1
  C  153  1  0.04990300  0.71485650  0.16736050  1
  C  154  1  0.01210200  0.66976450  0.16044150  1
  C  155  1  0.99848700  0.65558700  0.13770550  1
  C  157  1  0.99511800  0.65699800  0.09994650  1
  C  158  1  0.95963800  0.61233600  0.10723450  1
  C  159  1  0.96184900  0.61140700  0.13051600  1
  C  160  1  0.00569000  0.67237600  0.07716100  1
  C  161  1  0.04631500  0.71605400  0.07012900  1
  C  163  1  0.11630200  0.78715900  0.07003100  1
  C  164  1  0.10131800  0.77395300  0.04763750  1
  C  165  1  0.05784000  0.73075900  0.04770400  1
  C  166  1  0.15905600  0.82981500  0.07696400  1
  C  167  1  0.17189400  0.84438600  0.09973500  1
  C  169  1  0.16974300  0.84571100  0.13751500  1
  C  170  1  0.20978200  0.88820850  0.13025000  1
  C  171  1  0.21110800  0.88739500  0.10696150  1
  C  172  1  0.15483600  0.83247000  0.16028400  1
  C  173  1  0.17849400  0.86758500  0.17724350  1
  C  174  1  0.13793300  0.91229700  0.18208550  1
  C  175  1  0.15869200  0.94624900  0.19943700  1
  C  176  1  0.22036800  0.93635600  0.21235650  1
  C  177  1  0.26092100  0.89154500  0.20741350  1
  C  178  1  0.24058600  0.85769400  0.18988500  1
  C  179  1  0.19139800  0.86085200  0.05994650  1
  C  180  1  0.15262800  0.90048900  0.04902250  1
  C  181  1  0.18657700  0.93429100  0.03380000  1
  C  182  1  0.26007200  0.92969200  0.02939000  1
  C  183  1  0.29823400  0.88918600  0.04003950  1
  C  184  1  0.26433700  0.85510800  0.05513800  1
  C  185  1  0.97326800  0.64111100  0.06023500  1
  C  186  1  0.01287700  0.60293800  0.04865250  1
  C  187  1  0.97920700  0.56898600  0.03343100  1
  C  188  1  0.90522500  0.57203350  0.02963900  1
  C  189  1  0.86614500  0.61107750  0.04095350  1
  C  190  1  0.89970300  0.64518100  0.05611600  1
  C  191  1  0.98981100  0.63445300  0.17749300  1
  C  192  1  0.03519000  0.59339200  0.18385850  1
  C  193  1  0.92374000  0.64012900  0.18846450  1
  C  194  1  0.90391500  0.60560550  0.20581100  1
  C  195  1  0.94911000  0.56427250  0.21218050  1
  C  196  1  0.01504900  0.55877450  0.20103300  1
  C  223  1  0.06663600  0.27534100  0.31188350  1
  C  224  1  0.10555300  0.22991800  0.31183900  1
  C  225  1  0.11598300  0.21456900  0.33423700  1
  C  227  1  0.05138800  0.28829300  0.33429350  1
  C  228  1  0.01125900  0.33223700  0.34128850  1
  C  229  1  0.99632300  0.34546950  0.36405450  1
  C  231  1  0.99406400  0.34411650  0.40183450  1
  C  232  1  0.95497600  0.38716300  0.39460100  1
  C  233  1  0.95641100  0.38801850  0.37131350  1
  C  234  1  0.00686800  0.32954650  0.42460950  1
  C  235  1  0.04955800  0.28688200  0.43155250  1
  C  237  1  0.11954800  0.21581350  0.43147300  1
  C  238  1  0.10793800  0.23048800  0.45389450  1
  C  239  1  0.06445900  0.27366150  0.45395050  1
  C  240  1  0.16026500  0.17220000  0.42445100  1
  C  241  1  0.17093600  0.15685700  0.40166600  1
  C  243  1  0.16763000  0.15544950  0.36390600  1
  C  244  1  0.20436600  0.11133750  0.37110350  1
  C  245  1  0.20658400  0.11228250  0.39438450  1
  C  246  1  0.15394600  0.16957550  0.34116700  1
  C  247  1  0.17633600  0.13429650  0.32412400  1
  C  248  1  0.13106800  0.09315600  0.31775650  1
  C  249  1  0.15130700  0.05858750  0.30058250  1
  C  250  1  0.21724400  0.06419800  0.28944300  1
  C  251  1  0.26235800  0.10558950  0.29582800  1
  C  252  1  0.24241600  0.14008750  0.31316450  1
  C  253  1  0.19275600  0.14099450  0.44137900  1
  C  254  1  0.15323200  0.10275400  0.45296450  1
  C  255  1  0.18699100  0.06880900  0.46816500  1
  C  256  1  0.26096900  0.07197150  0.47195300  1
  C  257  1  0.29996200  0.11107800  0.46063300  1
  C  258  1  0.26631000  0.14519600  0.44550300  1
  C  259  1  0.97460900  0.36062500  0.44162100  1
  C  260  1  0.01351000  0.40021100  0.45254350  1
  C  261  1  0.97965900  0.43408850  0.46774600  1
  C  262  1  0.90615300  0.42957800  0.47215900  1
  C  263  1  0.86786300  0.38910350  0.46152200  1
  C  264  1  0.90165100  0.35497750  0.44643000  1
  C  265  1  0.98769500  0.36737250  0.32432300  1
  C  266  1  0.02831900  0.41209050  0.31950500  1
  C  267  1  0.92560900  0.35752550  0.31166900  1
  C  268  1  0.90534600  0.39142150  0.29414800  1
  C  269  1  0.94598600  0.43622500  0.28921950  1
  C  270  1  0.00767900  0.44605250  0.30214400  1
  C  297  1  0.73938500  0.44768500  0.74896100  1
  C  298  1  0.74050900  0.47897700  0.72945600  1
  C  299  1  0.73546400  0.53378350  0.73137600  1
  C  300  1  0.73439400  0.55622450  0.75316600  1
  C  301  1  0.73212400  0.52489150  0.77268800  1
  C  302  1  0.73324200  0.47003350  0.77068000  1
  C  309  1  0.42731800  0.94761300  0.75247650  1
  C  310  1  0.42623100  0.97883100  0.77200150  1
  C  311  1  0.43127000  0.03364850  0.77010250  1
  C  312  1  0.43210500  0.05617950  0.74832950  1
  C  313  1  0.43434600  0.02490950  0.72879100  1
  C  314  1  0.43327700  0.97004500  0.73076800  1
  C  321  1  0.92707200  0.55404850  0.25259400  1
  C  322  1  0.92597400  0.52276050  0.27209950  1
  C  323  1  0.93106000  0.46796200  0.27016900  1
  C  324  1  0.93211600  0.44550550  0.24838400  1
  C  325  1  0.93436800  0.47685000  0.22886450  1
  C  326  1  0.93322400  0.53171200  0.23087300  1
  C  333  1  0.23927400  0.05407100  0.24904600  1
  C  334  1  0.24039500  0.02283950  0.22952500  1
  C  335  1  0.23533600  0.96802700  0.23142350  1
  C  336  1  0.23439600  0.94551800  0.25320200  1
  C  337  1  0.23212600  0.97680100  0.27273650  1
  C  338  1  0.23327200  0.03166300  0.27076000  1
  C  345  1  0.82696200  0.55450550  0.99741300  1
  C  346  1  0.78977700  0.52000200  0.98320300  1
  C  347  1  0.79612500  0.46560200  0.98637000  1
  C  348  1  0.83937700  0.44716050  0.00415200  1
  C  349  1  0.87657400  0.48166550  0.01835900  1
  C  350  1  0.87022500  0.53606350  0.01519300  1
  C  357  1  0.82919900  0.44720450  0.50469000  1
  C  358  1  0.79154100  0.48166750  0.51878100  1
  C  359  1  0.79564900  0.53600200  0.51505550  1
  C  360  1  0.83717700  0.55437400  0.49684450  1
  C  361  1  0.87483300  0.51990700  0.48275550  1
  C  362  1  0.87073300  0.46557450  0.48648100  1
  C  369  1  0.33937000  0.05447150  0.50414750  1
  C  370  1  0.37667700  0.01998700  0.51832700  1
  C  371  1  0.37041600  0.96558600  0.51514050  1
  C  372  1  0.32713200  0.94712900  0.49736600  1
  C  373  1  0.28981400  0.98161400  0.48318900  1
  C  374  1  0.29607000  0.03601550  0.48637700  1
  C  381  1  0.33713700  0.94720000  0.99686600  1
  C  382  1  0.37491400  0.98161000  0.98277100  1
  C  383  1  0.37093800  0.03595300  0.98647600  1
  C  384  1  0.32942800  0.05438900  0.00467200  1
  C  385  1  0.29165700  0.01997700  0.01876700  1
  C  386  1  0.29561400  0.96563500  0.01506050  1
  C  785  1  0.18171500  0.27152150  0.81178950  1
  C  786  1  0.14280000  0.22607700  0.81184150  1
  C  787  1  0.12757300  0.21311950  0.83425400  1
  C  789  1  0.19208200  0.28691250  0.83418300  1
  C  790  1  0.22988900  0.33200350  0.84110400  1
  C  791  1  0.24358800  0.34613250  0.86384100  1
  C  793  1  0.24693600  0.34471850  0.90160100  1
  C  794  1  0.28244400  0.38936950  0.89431500  1
  C  795  1  0.28023200  0.39030550  0.87103400  1
  C  796  1  0.23638500  0.32932350  0.92438500  1
  C  797  1  0.19579600  0.28562350  0.93141400  1
  C  799  1  0.12586900  0.21449250  0.93151000  1
  C  800  1  0.14102700  0.22760000  0.95390200  1
  C  801  1  0.18444900  0.27082650  0.95383600  1
  C  802  1  0.08308300  0.17185250  0.92457500  1
  C  803  1  0.07019000  0.15731950  0.90180200  1
  C  805  1  0.07245000  0.15595250  0.86402300  1
  C  806  1  0.03248000  0.11341450  0.87128700  1
  C  807  1  0.03104800  0.11427650  0.89457400  1
  C  808  1  0.08741800  0.16917050  0.84125700  1
  C  809  1  0.06377700  0.13405300  0.82429600  1
  C  810  1  0.10439400  0.08937850  0.81943800  1
  C  811  1  0.08365100  0.05542150  0.80208650  1
  C  812  1  0.02196800  0.06530350  0.78917150  1
  C  813  1  0.98129780  0.11004400  0.79414550  1
  C  814  1  0.00163800  0.14390350  0.81167000  1
  C  815  1  0.05078300  0.14078800  0.94159200  1
  C  816  1  0.08956900  0.10114150  0.95250400  1
  C  817  1  0.05563100  0.06729750  0.96771300  1
  C  818  1  0.98214680  0.07189550  0.97213800  1
  C  819  1  0.94396480  0.11240300  0.96149700  1
  C  820  1  0.97783480  0.14648750  0.94639600  1
  C  821  1  0.26882300  0.36057900  0.94131100  1
  C  822  1  0.22918700  0.39870200  0.95291400  1
  C  823  1  0.26285200  0.43267400  0.96812900  1
  C  824  1  0.33683600  0.42963850  0.97192000  1
  C  825  1  0.37594000  0.39064250  0.96058300  1
  C  826  1  0.34238800  0.35651750  0.94542700  1
  C  827  1  0.25222800  0.36730550  0.82405600  1
  C  828  1  0.20690000  0.40839550  0.81769600  1
  C  829  1  0.31828700  0.36159050  0.81308050  1
  C  830  1  0.33815100  0.39611850  0.79573900  1
  C  831  1  0.29298800  0.43747100  0.78936800  1
  C  832  1  0.22709700  0.44303250  0.80053650  1
  C  859  1  0.17495100  0.72609700  0.68963650  1
  C  860  1  0.13612200  0.77156000  0.68967900  1
  C  861  1  0.12605400  0.78706000  0.66728500  1
  C  863  1  0.19060300  0.71332300  0.66723600  1
  C  864  1  0.23098500  0.66949300  0.66025100  1
  C  865  1  0.24599100  0.65627800  0.63748800  1
  C  867  1  0.24812700  0.65754400  0.59970800  1
  C  868  1  0.28738200  0.61458600  0.60694900  1
  C  869  1  0.28606200  0.61380600  0.63023800  1
  C  870  1  0.23523100  0.67204700  0.57693000  1
  C  871  1  0.19246000  0.71466400  0.56998300  1
  C  873  1  0.12252300  0.78575600  0.57005750  1
  C  874  1  0.13392700  0.77097000  0.54763800  1
  C  875  1  0.17740100  0.72779500  0.54758550  1
  C  876  1  0.08192200  0.82943500  0.57707450  1
  C  877  1  0.07141900  0.84486700  0.59985500  1
  C  879  1  0.07480800  0.84633900  0.63761150  1
  C  880  1  0.03822200  0.89051200  0.63040750  1
  C  881  1  0.03599200  0.88954400  0.60712600  1
  C  882  1  0.08841400  0.83219700  0.66035300  1
  C  883  1  0.06596900  0.86745500  0.67739500  1
  C  884  1  0.11123200  0.90858400  0.68378200  1
  C  885  1  0.09092400  0.94318200  0.70093500  1
  C  886  1  0.02498100  0.93754800  0.71207100  1
  C  887  1  0.97989580  0.89614700  0.70567750  1
  C  888  1  0.99985580  0.86167200  0.68833550  1
  C  889  1  0.04943600  0.86063500  0.56014350  1
  C  890  1  0.08896500  0.89884600  0.54854300  1
  C  891  1  0.05520100  0.93277500  0.53333550  1
  C  892  1  0.98121380  0.92963300  0.52956300  1
  C  893  1  0.94221380  0.89054300  0.54089150  1
  C  894  1  0.97586180  0.85647800  0.55604650  1
  C  895  1  0.26747200  0.64095100  0.55992100  1
  C  896  1  0.22858900  0.60132000  0.54902300  1
  C  897  1  0.26243800  0.56744300  0.53381900  1
  C  898  1  0.33592700  0.57200050  0.52938200  1
  C  899  1  0.37418900  0.61253200  0.53998600  1
  C  900  1  0.34041900  0.64662100  0.55509800  1
  C  901  1  0.25453000  0.63436100  0.67721850  1
  C  902  1  0.21394900  0.58961400  0.68202300  1
  C  903  1  0.31654100  0.64426300  0.68990400  1
  C  904  1  0.33681400  0.61036300  0.70742250  1
  C  905  1  0.29621300  0.56553200  0.71233000  1
  C  906  1  0.23461900  0.55562650  0.69937050  1
  C  933  1  0.63590800  0.73028450  0.18975250  1
  C  934  1  0.67483200  0.77572100  0.18969650  1
  C  935  1  0.69022400  0.78859500  0.16728650  1
  C  937  1  0.62559700  0.71485650  0.16736050  1
  C  938  1  0.58779600  0.66976450  0.16044150  1
  C  939  1  0.57418100  0.65558700  0.13770550  1
  C  941  1  0.57081200  0.65699800  0.09994650  1
  C  942  1  0.53533200  0.61233600  0.10723450  1
  C  943  1  0.53754300  0.61140700  0.13051600  1
  C  944  1  0.58138400  0.67237600  0.07716100  1
  C  945  1  0.62200900  0.71605400  0.07012900  1
  C  947  1  0.69199600  0.78715900  0.07003100  1
  C  948  1  0.67701200  0.77395300  0.04763750  1
  C  949  1  0.63353400  0.73075900  0.04770400  1
  C  950  1  0.73475000  0.82981500  0.07696400  1
  C  951  1  0.74758800  0.84438600  0.09973500  1
  C  953  1  0.74543700  0.84571100  0.13751500  1
  C  954  1  0.78547600  0.88820850  0.13025000  1
  C  955  1  0.78680200  0.88739500  0.10696150  1
  C  956  1  0.73053000  0.83247000  0.16028400  1
  C  957  1  0.75418800  0.86758500  0.17724350  1
  C  958  1  0.71362700  0.91229700  0.18208550  1
  C  959  1  0.73438600  0.94624900  0.19943700  1
  C  960  1  0.79606200  0.93635600  0.21235650  1
  C  961  1  0.83661480  0.89154500  0.20741350  1
  C  962  1  0.81627980  0.85769400  0.18988500  1
  C  963  1  0.76709200  0.86085200  0.05994650  1
  C  964  1  0.72832200  0.90048900  0.04902250  1
  C  965  1  0.76227100  0.93429100  0.03380000  1
  C  966  1  0.83576580  0.92969200  0.02939000  1
  C  967  1  0.87392780  0.88918600  0.04003950  1
  C  968  1  0.84003080  0.85510800  0.05513800  1
  C  969  1  0.54896200  0.64111100  0.06023500  1
  C  970  1  0.58857100  0.60293800  0.04865250  1
  C  971  1  0.55490100  0.56898600  0.03343100  1
  C  972  1  0.48091900  0.57203350  0.02963900  1
  C  973  1  0.44183900  0.61107750  0.04095350  1
  C  974  1  0.47539700  0.64518100  0.05611600  1
  C  975  1  0.56550500  0.63445300  0.17749300  1
  C  976  1  0.61088400  0.59339200  0.18385850  1
  C  977  1  0.49943400  0.64012900  0.18846450  1
  C  978  1  0.47960900  0.60560550  0.20581100  1
  C  979  1  0.52480400  0.56427250  0.21218050  1
  C  980  1  0.59074300  0.55877450  0.20103300  1
  C  1007  1  0.64233000  0.27534100  0.31188350  1
  C  1008  1  0.68124700  0.22991800  0.31183900  1
  C  1009  1  0.69167700  0.21456900  0.33423700  1
  C  1011  1  0.62708200  0.28829300  0.33429350  1
  C  1012  1  0.58695300  0.33223700  0.34128850  1
  C  1013  1  0.57201700  0.34546950  0.36405450  1
  C  1015  1  0.56975800  0.34411650  0.40183450  1
  C  1016  1  0.53067000  0.38716300  0.39460100  1
  C  1017  1  0.53210500  0.38801850  0.37131350  1
  C  1018  1  0.58256200  0.32954650  0.42460950  1
  C  1019  1  0.62525200  0.28688200  0.43155250  1
  C  1021  1  0.69524200  0.21581350  0.43147300  1
  C  1022  1  0.68363200  0.23048800  0.45389450  1
  C  1023  1  0.64015300  0.27366150  0.45395050  1
  C  1024  1  0.73595900  0.17220000  0.42445100  1
  C  1025  1  0.74663000  0.15685700  0.40166600  1
  C  1027  1  0.74332400  0.15544950  0.36390600  1
  C  1028  1  0.78006000  0.11133750  0.37110350  1
  C  1029  1  0.78227800  0.11228250  0.39438450  1
  C  1030  1  0.72964000  0.16957550  0.34116700  1
  C  1031  1  0.75203000  0.13429650  0.32412400  1
  C  1032  1  0.70676200  0.09315600  0.31775650  1
  C  1033  1  0.72700100  0.05858750  0.30058250  1
  C  1034  1  0.79293800  0.06419800  0.28944300  1
  C  1035  1  0.83805180  0.10558950  0.29582800  1
  C  1036  1  0.81810980  0.14008750  0.31316450  1
  C  1037  1  0.76845000  0.14099450  0.44137900  1
  C  1038  1  0.72892600  0.10275400  0.45296450  1
  C  1039  1  0.76268500  0.06880900  0.46816500  1
  C  1040  1  0.83666280  0.07197150  0.47195300  1
  C  1041  1  0.87565580  0.11107800  0.46063300  1
  C  1042  1  0.84200380  0.14519600  0.44550300  1
  C  1043  1  0.55030300  0.36062500  0.44162100  1
  C  1044  1  0.58920400  0.40021100  0.45254350  1
  C  1045  1  0.55535300  0.43408850  0.46774600  1
  C  1046  1  0.48184700  0.42957800  0.47215900  1
  C  1047  1  0.44355700  0.38910350  0.46152200  1
  C  1048  1  0.47734500  0.35497750  0.44643000  1
  C  1049  1  0.56338900  0.36737250  0.32432300  1
  C  1050  1  0.60401300  0.41209050  0.31950500  1
  C  1051  1  0.50130300  0.35752550  0.31166900  1
  C  1052  1  0.48104000  0.39142150  0.29414800  1
  C  1053  1  0.52168000  0.43622500  0.28921950  1
  C  1054  1  0.58337300  0.44605250  0.30214400  1
  C  1081  1  0.31507900  0.44768500  0.74896100  1
  C  1082  1  0.31620300  0.47897700  0.72945600  1
  C  1083  1  0.31115800  0.53378350  0.73137600  1
  C  1084  1  0.31008800  0.55622450  0.75316600  1
  C  1085  1  0.30781800  0.52489150  0.77268800  1
  C  1086  1  0.30893600  0.47003350  0.77068000  1
  C  1093  1  0.00301200  0.94761300  0.75247650  1
  C  1094  1  0.00192500  0.97883100  0.77200150  1
  C  1095  1  0.00696400  0.03364850  0.77010250  1
  C  1096  1  0.00779900  0.05617950  0.74832950  1
  C  1097  1  0.01004000  0.02490950  0.72879100  1
  C  1098  1  0.00897100  0.97004500  0.73076800  1
  C  1105  1  0.50276600  0.55404850  0.25259400  1
  C  1106  1  0.50166800  0.52276050  0.27209950  1
  C  1107  1  0.50675400  0.46796200  0.27016900  1
  C  1108  1  0.50781000  0.44550550  0.24838400  1
  C  1109  1  0.51006200  0.47685000  0.22886450  1
  C  1110  1  0.50891800  0.53171200  0.23087300  1
  C  1117  1  0.81496780  0.05407100  0.24904600  1
  C  1118  1  0.81608880  0.02283950  0.22952500  1
  C  1119  1  0.81102980  0.96802700  0.23142350  1
  C  1120  1  0.81008980  0.94551800  0.25320200  1
  C  1121  1  0.80781980  0.97680100  0.27273650  1
  C  1122  1  0.80896580  0.03166300  0.27076000  1
  C  1129  1  0.40265600  0.55450550  0.99741300  1
  C  1130  1  0.36547100  0.52000200  0.98320300  1
  C  1131  1  0.37181900  0.46560200  0.98637000  1
  C  1132  1  0.41507100  0.44716050  0.00415200  1
  C  1133  1  0.45226800  0.48166550  0.01835900  1
  C  1134  1  0.44591900  0.53606350  0.01519300  1
  C  1141  1  0.40489300  0.44720450  0.50469000  1
  C  1142  1  0.36723500  0.48166750  0.51878100  1
  C  1143  1  0.37134300  0.53600200  0.51505550  1
  C  1144  1  0.41287100  0.55437400  0.49684450  1
  C  1145  1  0.45052700  0.51990700  0.48275550  1
  C  1146  1  0.44642700  0.46557450  0.48648100  1
  C  1153  1  0.91506380  0.05447150  0.50414750  1
  C  1154  1  0.95237080  0.01998700  0.51832700  1
  C  1155  1  0.94610980  0.96558600  0.51514050  1
  C  1156  1  0.90282580  0.94712900  0.49736600  1
  C  1157  1  0.86550780  0.98161400  0.48318900  1
  C  1158  1  0.87176380  0.03601550  0.48637700  1
  C  1165  1  0.91283080  0.94720000  0.99686600  1
  C  1166  1  0.95060780  0.98161000  0.98277100  1
  C  1167  1  0.94663180  0.03595300  0.98647600  1
  C  1168  1  0.90512180  0.05438900  0.00467200  1
  C  1169  1  0.86735080  0.01997700  0.01876700  1
  C  1170  1  0.87130780  0.96563500  0.01506050  1
  H  49  1  0.61632000  0.47132900  0.79575400  1
  H  50  1  0.58270900  0.41287550  0.82523600  1
  H  51  1  0.80993600  0.39067050  0.78770000  1
  H  52  1  0.77589500  0.33175050  0.81733700  1
  H  53  1  0.62399500  0.28964650  0.79753200  1
  H  54  1  0.55218500  0.20644550  0.79760750  1
  H  55  1  0.58006800  0.25211250  0.86308400  1
  H  56  1  0.58194700  0.25152600  0.90258100  1
  H  57  1  0.72641700  0.41876800  0.86120700  1
  H  58  1  0.72981200  0.41742450  0.90408500  1
  H  59  1  0.60025800  0.40272400  0.94999100  1
  H  60  1  0.65719700  0.46007000  0.97624300  1
  H  61  1  0.79665000  0.32970000  0.93693500  1
  H  62  1  0.85400700  0.38784100  0.96268200  1
  H  63  1  0.62775400  0.28853600  0.96805600  1
  H  64  1  0.54842500  0.20900150  0.96817400  1
  H  65  1  0.43256600  0.08590700  0.86150500  1
  H  66  1  0.43056400  0.08708400  0.90437600  1
  H  67  1  0.56662300  0.09595150  0.94908100  1
  H  68  1  0.50927900  0.03879350  0.97532100  1
  H  69  1  0.37272000  0.17436750  0.93837100  1
  H  70  1  0.31483700  0.11635900  0.96404300  1
  H  71  1  0.39619600  0.17638650  0.81478400  1
  H  72  1  0.36139700  0.11865950  0.78483650  1
  H  73  1  0.54010300  0.02452250  0.79836900  1
  H  74  1  0.57454200  0.08191350  0.82812850  1
  H  123  1  0.62682700  0.52464350  0.70303050  1
  H  124  1  0.59250700  0.58210450  0.67328550  1
  H  125  1  0.80526300  0.61899450  0.71676100  1
  H  126  1  0.77057200  0.67679300  0.68682850  1
  H  127  1  0.61412500  0.70646200  0.70387550  1
  H  128  1  0.54222400  0.78958400  0.70392600  1
  H  129  1  0.58754600  0.75266200  0.63841200  1
  H  130  1  0.58474100  0.75158200  0.59890600  1
  H  131  1  0.73473700  0.58639550  0.64003050  1
  H  132  1  0.73664300  0.58747650  0.59715800  1
  H  133  1  0.60014300  0.59615800  0.55245650  1
  H  134  1  0.65733800  0.53894000  0.52622800  1
  H  135  1  0.79421000  0.67448750  0.56311600  1
  H  136  1  0.85194800  0.61640800  0.53745500  1
  H  137  1  0.61871600  0.70923800  0.53331850  1
  H  138  1  0.53939300  0.78873500  0.53341300  1
  H  139  1  0.44067800  0.91898600  0.64022550  1
  H  140  1  0.43723600  0.91757500  0.59734800  1
  H  141  1  0.56651700  0.90291300  0.55143850  1
  H  142  1  0.50939500  0.96022200  0.52521600  1
  H  143  1  0.37027000  0.82962900  0.56455250  1
  H  144  1  0.31274500  0.88772300  0.53883600  1
  H  145  1  0.39092100  0.83179100  0.68406600  1
  H  146  1  0.35669800  0.89064150  0.71369800  1
  H  147  1  0.55026700  0.97150600  0.70573800  1
  H  148  1  0.58407200  0.91311350  0.67626750  1
  H  197  1  0.05012000  0.53045650  0.20579750  1
  H  198  1  0.08368800  0.58893350  0.17631700  1
  H  199  1  0.85642000  0.61101450  0.21384400  1
  H  200  1  0.89041600  0.66995550  0.18420900  1
  H  201  1  0.04221000  0.71217700  0.20401000  1
  H  202  1  0.11418800  0.79529900  0.20393200  1
  H  203  1  0.08656300  0.74948500  0.13846500  1
  H  204  1  0.08408100  0.75035950  0.09896700  1
  H  205  1  0.93997500  0.58294600  0.14034450  1
  H  206  1  0.93658600  0.58427450  0.09746600  1
  H  207  1  0.06611900  0.59893550  0.05156400  1
  H  208  1  0.00915400  0.54156600  0.02532700  1
  H  209  1  0.86974800  0.67200400  0.06460550  1
  H  210  1  0.81237100  0.61383900  0.03887850  1
  H  211  1  0.03904600  0.71294300  0.03348200  1
  H  212  1  0.11840700  0.79245900  0.03336400  1
  H  213  1  0.23417900  0.91563200  0.14003300  1
  H  214  1  0.23609400  0.91448800  0.09715950  1
  H  215  1  0.09987300  0.90568700  0.05243600  1
  H  216  1  0.15725800  0.96281000  0.02619300  1
  H  217  1  0.29375700  0.82727100  0.06319050  1
  H  218  1  0.35167800  0.88525400  0.03751200  1
  H  219  1  0.27026600  0.82516800  0.18679100  1
  H  220  1  0.30511000  0.88291100  0.21672750  1
  H  221  1  0.12660200  0.97719500  0.20313000  1
  H  222  1  0.09212200  0.91979200  0.17338400  1
  H  271  1  0.03976700  0.47703350  0.29848150  1
  H  272  1  0.07413400  0.41955150  0.32821400  1
  H  273  1  0.86117000  0.38281450  0.28482100  1
  H  274  1  0.89587300  0.32500000  0.31474500  1
  H  275  1  0.05169800  0.29494950  0.29764500  1
  H  276  1  0.12363400  0.21184700  0.29758700  1
  H  277  1  0.07966000  0.24936250  0.36313150  1
  H  278  1  0.08188500  0.25013650  0.40262350  1
  H  279  1  0.93217300  0.41550150  0.36152800  1
  H  280  1  0.93016400  0.41433150  0.40439850  1
  H  281  1  0.06626200  0.40538100  0.44911000  1
  H  282  1  0.00906300  0.46259150  0.47534000  1
  H  283  1  0.87213900  0.32717000  0.43838250  1
  H  284  1  0.81440800  0.38523700  0.46405100  1
  H  285  1  0.04734400  0.29215450  0.46822000  1
  H  286  1  0.12671300  0.21268350  0.46812050  1
  H  287  1  0.22627600  0.08289750  0.36128050  1
  H  288  1  0.22958900  0.08421950  0.40415800  1
  H  289  1  0.10001100  0.09862550  0.45003700  1
  H  290  1  0.15710900  0.04132750  0.47626450  1
  H  291  1  0.29620200  0.17206750  0.43700950  1
  H  292  1  0.35372000  0.11396550  0.46272650  1
  H  293  1  0.27568400  0.16995200  0.31743350  1
  H  294  1  0.30986500  0.11107250  0.28780800  1
  H  295  1  0.11629900  0.03021500  0.29581100  1
  H  296  1  0.08255300  0.08862800  0.32528350  1
  H  303  1  0.72949400  0.59563500  0.75501000  1
  H  305  1  0.73786700  0.40813500  0.74705800  1
  H  307  1  0.78840800  0.46018900  0.70261500  1
  H  308  1  0.68146100  0.56424950  0.79458100  1
  H  315  1  0.43705100  0.09559600  0.74651900  1
  H  317  1  0.42882200  0.90805650  0.75436500  1
  H  319  1  0.37849900  0.95991800  0.79886150  1
  H  320  1  0.48492700  0.06436100  0.70690000  1
  H  327  1  0.93703100  0.40609500  0.24654250  1
  H  329  1  0.92856200  0.59359850  0.25449750  1
  H  331  1  0.87808500  0.54153350  0.29894500  1
  H  332  1  0.98504900  0.43752350  0.20696650  1
  H  339  1  0.22942200  0.90610300  0.25501700  1
  H  341  1  0.23780700  0.09362600  0.24715200  1
  H  343  1  0.28821700  0.04174150  0.20268100  1
  H  344  1  0.18148000  0.93736100  0.29461600  1
  H  351  1  0.84359900  0.40806100  0.00708900  1
  H  353  1  0.82276600  0.59360450  0.99446900  1
  H  355  1  0.71000200  0.55660700  0.97188100  1
  H  356  1  0.95634900  0.44504900  0.02967600  1
  H  363  1  0.83976000  0.59338200  0.49350150  1
  H  365  1  0.82662800  0.40819650  0.50803500  1
  H  367  1  0.71389300  0.44397700  0.53092800  1
  H  368  1  0.95252900  0.55757000  0.47062200  1
  H  375  1  0.32297000  0.90802900  0.49441500  1
  H  377  1  0.34351000  0.09357100  0.50710600  1
  H  379  1  0.45643600  0.05667500  0.52963200  1
  H  380  1  0.21007000  0.94490400  0.47188550  1
  H  387  1  0.32694000  0.09340350  0.00799950  1
  H  389  1  0.33960900  0.90818650  0.99353600  1
  H  391  1  0.45250100  0.94384600  0.97065500  1
  H  392  1  0.21404600  0.05773700  0.03087200  1
  H  833  1  0.19201400  0.47132900  0.79575400  1
  H  834  1  0.15840300  0.41287550  0.82523600  1
  H  835  1  0.38563000  0.39067050  0.78770000  1
  H  836  1  0.35158900  0.33175050  0.81733700  1
  H  837  1  0.19968900  0.28964650  0.79753200  1
  H  838  1  0.12787900  0.20644550  0.79760750  1
  H  839  1  0.15576200  0.25211250  0.86308400  1
  H  840  1  0.15764100  0.25152600  0.90258100  1
  H  841  1  0.30211100  0.41876800  0.86120700  1
  H  842  1  0.30550600  0.41742450  0.90408500  1
  H  843  1  0.17595200  0.40272400  0.94999100  1
  H  844  1  0.23289100  0.46007000  0.97624300  1
  H  845  1  0.37234400  0.32970000  0.93693500  1
  H  846  1  0.42970100  0.38784100  0.96268200  1
  H  847  1  0.20344800  0.28853600  0.96805600  1
  H  848  1  0.12411900  0.20900150  0.96817400  1
  H  849  1  0.00826000  0.08590700  0.86150500  1
  H  850  1  0.00625800  0.08708400  0.90437600  1
  H  851  1  0.14231700  0.09595150  0.94908100  1
  H  852  1  0.08497300  0.03879350  0.97532100  1
  H  853  1  0.94841380  0.17436750  0.93837100  1
  H  854  1  0.89053080  0.11635900  0.96404300  1
  H  855  1  0.97188980  0.17638650  0.81478400  1
  H  856  1  0.93709080  0.11865950  0.78483650  1
  H  857  1  0.11579700  0.02452250  0.79836900  1
  H  858  1  0.15023600  0.08191350  0.82812850  1
  H  907  1  0.20252100  0.52464350  0.70303050  1
  H  908  1  0.16820100  0.58210450  0.67328550  1
  H  909  1  0.38095700  0.61899450  0.71676100  1
  H  910  1  0.34626600  0.67679300  0.68682850  1
  H  911  1  0.18981900  0.70646200  0.70387550  1
  H  912  1  0.11791800  0.78958400  0.70392600  1
  H  913  1  0.16324000  0.75266200  0.63841200  1
  H  914  1  0.16043500  0.75158200  0.59890600  1
  H  915  1  0.31043100  0.58639550  0.64003050  1
  H  916  1  0.31233700  0.58747650  0.59715800  1
  H  917  1  0.17583700  0.59615800  0.55245650  1
  H  918  1  0.23303200  0.53894000  0.52622800  1
  H  919  1  0.36990400  0.67448750  0.56311600  1
  H  920  1  0.42764200  0.61640800  0.53745500  1
  H  921  1  0.19441000  0.70923800  0.53331850  1
  H  922  1  0.11508700  0.78873500  0.53341300  1
  H  923  1  0.01637200  0.91898600  0.64022550  1
  H  924  1  0.01293000  0.91757500  0.59734800  1
  H  925  1  0.14221100  0.90291300  0.55143850  1
  H  926  1  0.08508900  0.96022200  0.52521600  1
  H  927  1  0.94596380  0.82962900  0.56455250  1
  H  928  1  0.88843880  0.88772300  0.53883600  1
  H  929  1  0.96661480  0.83179100  0.68406600  1
  H  930  1  0.93239180  0.89064150  0.71369800  1
  H  931  1  0.12596100  0.97150600  0.70573800  1
  H  932  1  0.15976600  0.91311350  0.67626750  1
  H  981  1  0.62581400  0.53045650  0.20579750  1
  H  982  1  0.65938200  0.58893350  0.17631700  1
  H  983  1  0.43211400  0.61101450  0.21384400  1
  H  984  1  0.46611000  0.66995550  0.18420900  1
  H  985  1  0.61790400  0.71217700  0.20401000  1
  H  986  1  0.68988200  0.79529900  0.20393200  1
  H  987  1  0.66225700  0.74948500  0.13846500  1
  H  988  1  0.65977500  0.75035950  0.09896700  1
  H  989  1  0.51566900  0.58294600  0.14034450  1
  H  990  1  0.51228000  0.58427450  0.09746600  1
  H  991  1  0.64181300  0.59893550  0.05156400  1
  H  992  1  0.58484800  0.54156600  0.02532700  1
  H  993  1  0.44544200  0.67200400  0.06460550  1
  H  994  1  0.38806500  0.61383900  0.03887850  1
  H  995  1  0.61474000  0.71294300  0.03348200  1
  H  996  1  0.69410100  0.79245900  0.03336400  1
  H  997  1  0.80987280  0.91563200  0.14003300  1
  H  998  1  0.81178780  0.91448800  0.09715950  1
  H  999  1  0.67556700  0.90568700  0.05243600  1
  H  1000  1  0.73295200  0.96281000  0.02619300  1
  H  1001  1  0.86945080  0.82727100  0.06319050  1
  H  1002  1  0.92737180  0.88525400  0.03751200  1
  H  1003  1  0.84595980  0.82516800  0.18679100  1
  H  1004  1  0.88080380  0.88291100  0.21672750  1
  H  1005  1  0.70229600  0.97719500  0.20313000  1
  H  1006  1  0.66781600  0.91979200  0.17338400  1
  H  1055  1  0.61546100  0.47703350  0.29848150  1
  H  1056  1  0.64982800  0.41955150  0.32821400  1
  H  1057  1  0.43686400  0.38281450  0.28482100  1
  H  1058  1  0.47156700  0.32500000  0.31474500  1
  H  1059  1  0.62739200  0.29494950  0.29764500  1
  H  1060  1  0.69932800  0.21184700  0.29758700  1
  H  1061  1  0.65535400  0.24936250  0.36313150  1
  H  1062  1  0.65757900  0.25013650  0.40262350  1
  H  1063  1  0.50786700  0.41550150  0.36152800  1
  H  1064  1  0.50585800  0.41433150  0.40439850  1
  H  1065  1  0.64195600  0.40538100  0.44911000  1
  H  1066  1  0.58475700  0.46259150  0.47534000  1
  H  1067  1  0.44783300  0.32717000  0.43838250  1
  H  1068  1  0.39010200  0.38523700  0.46405100  1
  H  1069  1  0.62303800  0.29215450  0.46822000  1
  H  1070  1  0.70240700  0.21268350  0.46812050  1
  H  1071  1  0.80196980  0.08289750  0.36128050  1
  H  1072  1  0.80528280  0.08421950  0.40415800  1
  H  1073  1  0.67570500  0.09862550  0.45003700  1
  H  1074  1  0.73280300  0.04132750  0.47626450  1
  H  1075  1  0.87189580  0.17206750  0.43700950  1
  H  1076  1  0.92941380  0.11396550  0.46272650  1
  H  1077  1  0.85137780  0.16995200  0.31743350  1
  H  1078  1  0.88555880  0.11107250  0.28780800  1
  H  1079  1  0.69199300  0.03021500  0.29581100  1
  H  1080  1  0.65824700  0.08862800  0.32528350  1
  H  1087  1  0.30518800  0.59563500  0.75501000  1
  H  1089  1  0.31356100  0.40813500  0.74705800  1
  H  1091  1  0.36410200  0.46018900  0.70261500  1
  H  1092  1  0.25715500  0.56424950  0.79458100  1
  H  1099  1  0.01274500  0.09559600  0.74651900  1
  H  1101  1  0.00451600  0.90805650  0.75436500  1
  H  1103  1  0.95419280  0.95991800  0.79886150  1
  H  1104  1  0.06062100  0.06436100  0.70690000  1
  H  1111  1  0.51272500  0.40609500  0.24654250  1
  H  1113  1  0.50425600  0.59359850  0.25449750  1
  H  1115  1  0.45377900  0.54153350  0.29894500  1
  H  1116  1  0.56074300  0.43752350  0.20696650  1
  H  1123  1  0.80511580  0.90610300  0.25501700  1
  H  1125  1  0.81350080  0.09362600  0.24715200  1
  H  1127  1  0.86391080  0.04174150  0.20268100  1
  H  1128  1  0.75717400  0.93736100  0.29461600  1
  H  1135  1  0.41929300  0.40806100  0.00708900  1
  H  1137  1  0.39846000  0.59360450  0.99446900  1
  H  1139  1  0.28569600  0.55660700  0.97188100  1
  H  1140  1  0.53204300  0.44504900  0.02967600  1
  H  1147  1  0.41545400  0.59338200  0.49350150  1
  H  1149  1  0.40232200  0.40819650  0.50803500  1
  H  1151  1  0.28958700  0.44397700  0.53092800  1
  H  1152  1  0.52822300  0.55757000  0.47062200  1
  H  1159  1  0.89866380  0.90802900  0.49441500  1
  H  1161  1  0.91920380  0.09357100  0.50710600  1
  H  1163  1  0.03213000  0.05667500  0.52963200  1
  H  1164  1  0.78576400  0.94490400  0.47188550  1
  H  1171  1  0.90263380  0.09340350  0.00799950  1
  H  1173  1  0.91530280  0.90818650  0.99353600  1
  H  1175  1  0.02819500  0.94384600  0.97065500  1
  H  1176  1  0.78974000  0.05773700  0.03087200  1
  N  4  1  0.58289900  0.25066350  0.84691100  1
  N  8  1  0.64914900  0.32009750  0.88272900  1
  N  14  1  0.58420100  0.25046200  0.91876900  1
  N  20  1  0.51814600  0.18097200  0.88288500  1
  N  78  1  0.58400900  0.75089300  0.65456750  1
  N  82  1  0.64879000  0.68121100  0.61861800  1
  N  88  1  0.58269300  0.75060700  0.58271400  1
  N  94  1  0.51780100  0.82026500  0.61873350  1
  N  152  1  0.08347100  0.75106300  0.15463100  1
  N  156  1  0.01721000  0.68162700  0.11881700  1
  N  162  1  0.08217400  0.75124100  0.08277300  1
  N  168  1  0.14827300  0.82072300  0.11865350  1
  N  226  1  0.08243600  0.25078150  0.34695750  1
  N  230  1  0.01765600  0.32043900  0.38292000  1
  N  236  1  0.08370700  0.25098400  0.41881900  1
  N  242  1  0.14879000  0.18144200  0.38279100  1
  N  788  1  0.15859300  0.25066350  0.84691100  1
  N  792  1  0.22484300  0.32009750  0.88272900  1
  N  798  1  0.15989500  0.25046200  0.91876900  1
  N  804  1  0.09384000  0.18097200  0.88288500  1
  N  862  1  0.15970300  0.75089300  0.65456750  1
  N  866  1  0.22448400  0.68121100  0.61861800  1
  N  872  1  0.15838700  0.75060700  0.58271400  1
  N  878  1  0.09349500  0.82026500  0.61873350  1
  N  936  1  0.65916500  0.75106300  0.15463100  1
  N  940  1  0.59290400  0.68162700  0.11881700  1
  N  946  1  0.65786800  0.75124100  0.08277300  1
  N  952  1  0.72396700  0.82072300  0.11865350  1
  N  1010  1  0.65813000  0.25078150  0.34695750  1
  N  1014  1  0.59335000  0.32043900  0.38292000  1
  N  1020  1  0.65940100  0.25098400  0.41881900  1
  N  1026  1  0.72448400  0.18144200  0.38279100  1
  O  304  1  0.74087600  0.45467050  0.70902500  1
  O  306  1  0.72856900  0.54803550  0.79338050  1
  O  316  1  0.42599200  0.95445200  0.79242000  1
  O  318  1  0.43782200  0.04812150  0.70810900  1
  O  328  1  0.92561300  0.54705750  0.29253350  1
  O  330  1  0.93792400  0.45371000  0.20817200  1
  O  340  1  0.24070300  0.04721050  0.20910550  1
  O  342  1  0.22858600  0.95360300  0.29341850  1
  O  352  1  0.75244700  0.53992350  0.96549200  1
  O  354  1  0.91391900  0.46174400  0.03606800  1
  O  364  1  0.75601300  0.46189850  0.53689950  1
  O  366  1  0.91039600  0.53967600  0.46464300  1
  O  376  1  0.41404600  0.03992000  0.53603200  1
  O  378  1  0.25244600  0.96168000  0.46548500  1
  O  388  1  0.41042600  0.96177900  0.96466700  1
  O  390  1  0.25611600  0.03980600  0.03686600  1
  O  1088  1  0.31657000  0.45467050  0.70902500  1
  O  1090  1  0.30426300  0.54803550  0.79338050  1
  O  1100  1  0.00168600  0.95445200  0.79242000  1
  O  1102  1  0.01351600  0.04812150  0.70810900  1
  O  1112  1  0.50130700  0.54705750  0.29253350  1
  O  1114  1  0.51361800  0.45371000  0.20817200  1
  O  1124  1  0.81639680  0.04721050  0.20910550  1
  O  1126  1  0.80427980  0.95360300  0.29341850  1
  O  1136  1  0.32814100  0.53992350  0.96549200  1
  O  1138  1  0.48961300  0.46174400  0.03606800  1
  O  1148  1  0.33170700  0.46189850  0.53689950  1
  O  1150  1  0.48609000  0.53967600  0.46464300  1
  O  1160  1  0.98973980  0.03992000  0.53603200  1
  O  1162  1  0.82813980  0.96168000  0.46548500  1
  O  1172  1  0.98611980  0.96177900  0.96466700  1
  O  1174  1  0.83180980  0.03980600  0.03686600  1
