# generated using pymatgen
data_H7C16(NO)4
_symmetry_space_group_name_H-M   'P 1'
_cell_length_a   65.46940000
_cell_length_b   65.46940000
_cell_length_c   65.46940000
_cell_angle_alpha   90.00000000
_cell_angle_beta   90.00000000
_cell_angle_gamma   90.00000000
_symmetry_Int_Tables_number   1
_chemical_formula_structural   H7C16(NO)4
_chemical_formula_sum   'H672 C1536 N384 O384'
_cell_volume   280617.71401609
_cell_formula_units_Z   96
loop_
 _symmetry_equiv_pos_site_id
 _symmetry_equiv_pos_as_xyz
  1  'x, y, z'
loop_
 _atom_site_type_symbol
 _atom_site_label
 _atom_site_symmetry_multiplicity
 _atom_site_fract_x
 _atom_site_fract_y
 _atom_site_fract_z
 _atom_site_occupancy
  H  9  1  0.27392000  0.04434000  0.49646300  1
  H  17  1  0.26021900  0.14805900  0.40470200  1
  H  19  1  0.31582400  0.11314700  0.43560100  1
  H  20  1  0.31929300  0.08847800  0.46148100  1
  H  21  1  0.21413500  0.10856300  0.44494200  1
  H  22  1  0.21759500  0.08033700  0.46730400  1
  H  35  1  0.74067100  0.97031600  0.49865500  1
  H  43  1  0.74575000  0.86991200  0.40244900  1
  H  45  1  0.69310300  0.90818000  0.43464300  1
  H  46  1  0.69170700  0.93167100  0.46198100  1
  H  47  1  0.79476400  0.90371400  0.44422600  1
  H  48  1  0.79367800  0.93141400  0.46737700  1
  H  61  1  0.73036700  0.04014900  0.60335400  1
  H  69  1  0.74308300  0.14482300  0.69414400  1
  H  71  1  0.68776900  0.10954500  0.66320000  1
  H  72  1  0.68452300  0.08470300  0.63736800  1
  H  73  1  0.78954800  0.10443100  0.65536900  1
  H  74  1  0.78622400  0.07553500  0.63370400  1
  H  87  1  0.27557600  0.96077300  0.60621300  1
  H  95  1  0.26640400  0.85831600  0.69999300  1
  H  97  1  0.32055900  0.89434800  0.66774900  1
  H  98  1  0.32288500  0.91880700  0.64145700  1
  H  99  1  0.21862000  0.89613500  0.66023100  1
  H  100  1  0.22091700  0.92418200  0.63750600  1
  H  113  1  0.45169400  0.27585600  0.09425400  1
  H  121  1  0.35862700  0.26530100  0.19722000  1
  H  123  1  0.39116200  0.31994800  0.16217400  1
  H  124  1  0.41724400  0.32257500  0.13752800  1
  H  125  1  0.39787500  0.21801200  0.15826900  1
  H  126  1  0.42047000  0.22070600  0.13015300  1
  H  139  1  0.45024400  0.74043900  0.01687600  1
  H  147  1  0.35633600  0.74612700  0.91426400  1
  H  149  1  0.38864700  0.69316200  0.95205300  1
  H  150  1  0.41513900  0.69171700  0.97644100  1
  H  151  1  0.39623000  0.79508300  0.95031900  1
  H  152  1  0.41900200  0.79376700  0.97831200  1
  H  165  1  0.55400400  0.73102000  0.08630600  1
  H  173  1  0.64756400  0.74375800  0.18841900  1
  H  175  1  0.61664300  0.68847000  0.15316800  1
  H  176  1  0.58997700  0.68511900  0.12919400  1
  H  177  1  0.60663900  0.79013400  0.15013000  1
  H  178  1  0.58434500  0.78686100  0.12169200  1
  H  191  1  0.56114900  0.27396500  0.01083700  1
  H  199  1  0.65352200  0.26265900  0.90737800  1
  H  201  1  0.62185700  0.31745700  0.94286100  1
  H  202  1  0.59583300  0.32031600  0.96747100  1
  H  203  1  0.61367900  0.21561100  0.94612300  1
  H  204  1  0.59115400  0.21845500  0.97428900  1
  H  217  1  0.04473600  0.44799600  0.31913700  1
  H  225  1  0.15029700  0.35759500  0.31234800  1
  H  227  1  0.11302500  0.38987200  0.36574400  1
  H  228  1  0.08768600  0.41539600  0.36742500  1
  H  229  1  0.11219700  0.39596200  0.26369000  1
  H  230  1  0.08350100  0.41785200  0.26537300  1
  H  243  1  0.96731900  0.45200800  0.78803100  1
  H  251  1  0.86561800  0.35708900  0.79149500  1
  H  253  1  0.90316000  0.39089900  0.73926600  1
  H  254  1  0.92720800  0.41776900  0.73844300  1
  H  255  1  0.90109900  0.39634400  0.84132000  1
  H  256  1  0.92889800  0.41936600  0.84055300  1
  H  269  1  0.03909200  0.55651400  0.77872700  1
  H  277  1  0.14486400  0.64576300  0.79279700  1
  H  279  1  0.11025800  0.61484300  0.73706200  1
  H  280  1  0.08511800  0.58935600  0.73352300  1
  H  281  1  0.10330900  0.60766600  0.83877800  1
  H  282  1  0.07419400  0.58636100  0.83508400  1
  H  295  1  0.96408300  0.56059000  0.32037100  1
  H  303  1  0.86132800  0.65411000  0.31353100  1
  H  305  1  0.89882200  0.62215800  0.36685900  1
  H  306  1  0.92311400  0.59561600  0.36867800  1
  H  307  1  0.89717100  0.61342300  0.26502200  1
  H  308  1  0.92554600  0.59106300  0.26665900  1
  H  321  1  0.04433600  0.27392200  0.60784600  1
  H  329  1  0.14806400  0.26023200  0.69959900  1
  H  331  1  0.11314800  0.31583300  0.66869700  1
  H  332  1  0.08847700  0.31929900  0.64281800  1
  H  333  1  0.10856500  0.21414300  0.65936800  1
  H  334  1  0.08033800  0.21759900  0.63700800  1
  H  347  1  0.97031800  0.74067300  0.60563700  1
  H  355  1  0.86991400  0.74575500  0.70184300  1
  H  357  1  0.90818000  0.69310700  0.66964900  1
  H  358  1  0.93167100  0.69171000  0.64231100  1
  H  359  1  0.90371600  0.79476700  0.66006600  1
  H  360  1  0.93141700  0.79368100  0.63691500  1
  H  373  1  0.04014900  0.73036700  0.50093800  1
  H  381  1  0.14483000  0.74308800  0.41015500  1
  H  383  1  0.10954900  0.68777000  0.44109300  1
  H  384  1  0.08470500  0.68452500  0.46692400  1
  H  385  1  0.10443500  0.78955100  0.44893100  1
  H  386  1  0.07553800  0.78622600  0.47059300  1
  H  399  1  0.96073000  0.27559900  0.49809900  1
  H  407  1  0.85830100  0.26640700  0.40429100  1
  H  409  1  0.89430800  0.32057000  0.43655200  1
  H  410  1  0.91875600  0.32289900  0.46285300  1
  H  411  1  0.89612000  0.21863000  0.44406100  1
  H  412  1  0.92416200  0.22093200  0.46679200  1
  H  425  1  0.27585600  0.45169500  0.01005000  1
  H  433  1  0.26530900  0.35863300  0.90707900  1
  H  435  1  0.31995400  0.39116300  0.94213500  1
  H  436  1  0.32258000  0.41724400  0.96678000  1
  H  437  1  0.21801800  0.39788100  0.94602700  1
  H  438  1  0.22070900  0.42047400  0.97414200  1
  H  451  1  0.74044500  0.45023200  0.08740400  1
  H  459  1  0.74612900  0.35633500  0.19002300  1
  H  461  1  0.69316500  0.38864700  0.15223600  1
  H  462  1  0.69172200  0.41513600  0.12784500  1
  H  463  1  0.79508600  0.39622000  0.15396200  1
  H  464  1  0.79377100  0.41898800  0.12596700  1
  H  477  1  0.73102100  0.55400400  0.01798500  1
  H  485  1  0.74376800  0.64756100  0.91587100  1
  H  487  1  0.68847800  0.61663900  0.95111600  1
  H  488  1  0.68512300  0.58997500  0.97509100  1
  H  489  1  0.79014000  0.60663800  0.95416400  1
  H  490  1  0.78686400  0.58434300  0.98260300  1
  H  503  1  0.27396800  0.56114500  0.09346500  1
  H  511  1  0.26265600  0.65353900  0.19690400  1
  H  513  1  0.31745500  0.62187100  0.16142700  1
  H  514  1  0.32031600  0.59584000  0.13682400  1
  H  515  1  0.21561100  0.61368400  0.15816900  1
  H  516  1  0.21845600  0.59115400  0.13000700  1
  H  529  1  0.44800200  0.04474000  0.78516700  1
  H  537  1  0.35759600  0.15029700  0.79194700  1
  H  539  1  0.38988300  0.11302800  0.73855600  1
  H  540  1  0.41540800  0.08769100  0.73687400  1
  H  541  1  0.39596200  0.11220000  0.84060800  1
  H  542  1  0.41785500  0.08350600  0.83892800  1
  H  555  1  0.45201900  0.96731500  0.31627300  1
  H  563  1  0.35711800  0.86559400  0.31285200  1
  H  565  1  0.39091300  0.90317000  0.36506400  1
  H  566  1  0.41778200  0.92722300  0.36587800  1
  H  567  1  0.39637000  0.90105800  0.26301300  1
  H  568  1  0.41938500  0.92886300  0.26376600  1
  H  581  1  0.55650900  0.03908500  0.32553400  1
  H  589  1  0.64576100  0.14485800  0.31149400  1
  H  591  1  0.61483300  0.11024500  0.36722100  1
  H  592  1  0.58934400  0.08510400  0.37075000  1
  H  593  1  0.60766900  0.10331100  0.26550300  1
  H  594  1  0.58636400  0.07419700  0.26918800  1
  H  607  1  0.56059200  0.96407800  0.78391200  1
  H  615  1  0.65411500  0.86132800  0.79076700  1
  H  617  1  0.62216400  0.89881400  0.73743500  1
  H  618  1  0.59562000  0.92310600  0.73561300  1
  H  619  1  0.61342700  0.89717700  0.83927200  1
  H  620  1  0.59106600  0.92555200  0.83763000  1
  H  633  1  0.78167700  0.95205300  0.59018300  1
  H  641  1  0.76537800  0.85544900  0.68870200  1
  H  643  1  0.72049700  0.89545800  0.64824800  1
  H  644  1  0.72465900  0.91892100  0.62097900  1
  H  645  1  0.82202400  0.88897000  0.65779900  1
  H  646  1  0.82592800  0.91646700  0.63473300  1
  H  659  1  0.24244600  0.05885500  0.59149900  1
  H  667  1  0.24822100  0.15676900  0.68973000  1
  H  669  1  0.29507200  0.12903900  0.64208300  1
  H  670  1  0.29228900  0.10672800  0.61347500  1
  H  671  1  0.19685700  0.11217900  0.66441100  1
  H  672  1  0.19684500  0.08370800  0.64175300  1
  H  685  1  0.23826600  0.94763400  0.51197500  1
  H  693  1  0.24671500  0.84996800  0.41372900  1
  H  695  1  0.29343800  0.88109100  0.45929700  1
  H  696  1  0.29034300  0.90323300  0.48796300  1
  H  697  1  0.19344800  0.89100700  0.44118600  1
  H  698  1  0.19255100  0.91974600  0.46350700  1
  H  711  1  0.77025200  0.06203000  0.51150800  1
  H  719  1  0.75701000  0.15882400  0.41276400  1
  H  721  1  0.71188100  0.12626900  0.45913400  1
  H  722  1  0.71604900  0.10406000  0.48759000  1
  H  723  1  0.81188600  0.11948600  0.43944400  1
  H  724  1  0.81431500  0.09153500  0.46252600  1
  H  737  1  0.54228100  0.78023400  0.99780200  1
  H  745  1  0.64346100  0.76070100  0.90467300  1
  H  747  1  0.60225600  0.71719200  0.94542500  1
  H  748  1  0.57433400  0.72213300  0.96795200  1
  H  749  1  0.61164800  0.81844400  0.93536300  1
  H  750  1  0.58780800  0.82329600  0.96203500  1
  H  763  1  0.54624300  0.23821100  0.10697100  1
  H  771  1  0.64386000  0.24588600  0.20531700  1
  H  773  1  0.59862000  0.29294000  0.17416100  1
  H  774  1  0.57009400  0.29003800  0.15179600  1
  H  775  1  0.61653400  0.19295900  0.16379100  1
  H  776  1  0.59437100  0.19226500  0.13493200  1
  H  789  1  0.46592600  0.24255300  0.99532500  1
  H  797  1  0.36740800  0.24938100  0.89776200  1
  H  799  1  0.41548700  0.29576700  0.92552100  1
  H  800  1  0.44418300  0.29268600  0.94768700  1
  H  801  1  0.39253000  0.19763900  0.94201000  1
  H  802  1  0.41526000  0.19736700  0.97043700  1
  H  815  1  0.46390900  0.77165100  0.10851100  1
  H  823  1  0.36718200  0.76153200  0.20768900  1
  H  825  1  0.41261300  0.71530700  0.17536100  1
  H  826  1  0.44055700  0.71869200  0.15238000  1
  H  827  1  0.39345000  0.81526200  0.16653900  1
  H  828  1  0.41598200  0.81684300  0.13807900  1
  H  841  1  0.95114700  0.54449900  0.83058200  1
  H  849  1  0.85529900  0.64364400  0.81326600  1
  H  851  1  0.89640100  0.60377100  0.76881900  1
  H  852  1  0.91929100  0.57601400  0.77316900  1
  H  853  1  0.88669400  0.61116400  0.87024000  1
  H  854  1  0.91424600  0.58823800  0.87450700  1
  H  867  1  0.06011100  0.54488700  0.28290200  1
  H  875  1  0.15587300  0.64424300  0.29794700  1
  H  877  1  0.12524700  0.59546900  0.34185600  1
  H  878  1  0.10355900  0.56670200  0.33689300  1
  H  879  1  0.11499000  0.61980900  0.24320400  1
  H  880  1  0.08701500  0.59671300  0.24067700  1
  H  893  1  0.94951700  0.46365800  0.28479400  1
  H  901  1  0.84981400  0.36746800  0.29400800  1
  H  903  1  0.87980700  0.41485400  0.33973700  1
  H  904  1  0.90268300  0.44288500  0.33619800  1
  H  905  1  0.89345700  0.39157900  0.24124000  1
  H  906  1  0.92229400  0.41372000  0.24027600  1
  H  919  1  0.06075400  0.46353700  0.81562600  1
  H  927  1  0.15912600  0.36580200  0.80789200  1
  H  929  1  0.12809700  0.41126400  0.76081800  1
  H  930  1  0.10550200  0.43961300  0.76369400  1
  H  931  1  0.11731500  0.39280000  0.86070300  1
  H  932  1  0.08894200  0.41550100  0.86160600  1
  H  945  1  0.95205400  0.78167700  0.51410800  1
  H  953  1  0.85544700  0.76537500  0.41559000  1
  H  955  1  0.89545700  0.72049700  0.45604500  1
  H  956  1  0.91892100  0.72465800  0.48331500  1
  H  957  1  0.88896800  0.82202300  0.44649300  1
  H  958  1  0.91646500  0.82592700  0.46955700  1
  H  971  1  0.05885100  0.24246800  0.51279700  1
  H  979  1  0.15676800  0.24821500  0.41456800  1
  H  981  1  0.12905400  0.29507200  0.46221800  1
  H  982  1  0.10674300  0.29229500  0.49082800  1
  H  983  1  0.11216100  0.19686500  0.43988500  1
  H  984  1  0.08369000  0.19686200  0.46254100  1
  H  997  1  0.94762900  0.23827200  0.59234000  1
  H  1005  1  0.84996500  0.24670800  0.69058700  1
  H  1007  1  0.88108500  0.29343600  0.64502400  1
  H  1008  1  0.90322500  0.29034300  0.61635700  1
  H  1009  1  0.89100600  0.19344500  0.66312700  1
  H  1010  1  0.91974500  0.19255100  0.64080600  1
  H  1023  1  0.06203100  0.77025200  0.59278300  1
  H  1031  1  0.15883200  0.75701700  0.69152200  1
  H  1033  1  0.12627500  0.71188600  0.64515400  1
  H  1034  1  0.10406300  0.71605200  0.61669900  1
  H  1035  1  0.11948900  0.81189000  0.66484400  1
  H  1036  1  0.09153700  0.81431800  0.64176300  1
  H  1049  1  0.78024700  0.54227500  0.10648800  1
  H  1057  1  0.76069900  0.64344900  0.19962200  1
  H  1059  1  0.71719800  0.60224000  0.15887000  1
  H  1060  1  0.72214200  0.57431900  0.13634100  1
  H  1061  1  0.81844700  0.61164600  0.16893100  1
  H  1062  1  0.82330200  0.58780900  0.14225600  1
  H  1075  1  0.23821500  0.54624300  0.99732400  1
  H  1083  1  0.24588400  0.64385500  0.89897500  1
  H  1085  1  0.29294200  0.59862000  0.93013400  1
  H  1086  1  0.29004100  0.57009600  0.95249900  1
  H  1087  1  0.19295700  0.61652900  0.94050200  1
  H  1088  1  0.19226700  0.59436600  0.96936200  1
  H  1101  1  0.24255200  0.46592500  0.10896900  1
  H  1109  1  0.24937800  0.36741000  0.20653500  1
  H  1111  1  0.29576700  0.41548400  0.17877100  1
  H  1112  1  0.29268600  0.44418000  0.15660500  1
  H  1113  1  0.19763600  0.39253200  0.16228700  1
  H  1114  1  0.19736400  0.41526100  0.13386000  1
  H  1127  1  0.77163600  0.46389300  0.99576500  1
  H  1135  1  0.76150600  0.36718100  0.89657300  1
  H  1137  1  0.71528900  0.41262200  0.92889800  1
  H  1138  1  0.71867600  0.44056000  0.95188500  1
  H  1139  1  0.81523800  0.39343400  0.93773300  1
  H  1140  1  0.81682000  0.41596200  0.96619400  1
  H  1153  1  0.54450200  0.95115300  0.27370000  1
  H  1161  1  0.64364300  0.85529600  0.29102800  1
  H  1163  1  0.60377200  0.89641000  0.33547000  1
  H  1164  1  0.57601700  0.91930200  0.33111800  1
  H  1165  1  0.61115600  0.88667900  0.23405000  1
  H  1166  1  0.58822900  0.91422900  0.22978100  1
  H  1179  1  0.54487200  0.06013500  0.82142100  1
  H  1187  1  0.64424900  0.15587000  0.80634300  1
  H  1189  1  0.59545700  0.12525100  0.76244700  1
  H  1190  1  0.56668300  0.10357300  0.76742000  1
  H  1191  1  0.61982300  0.11498900  0.86109100  1
  H  1192  1  0.59672200  0.08702000  0.86362500  1
  H  1205  1  0.46365600  0.94951100  0.81948100  1
  H  1213  1  0.36746200  0.84981100  0.81027800  1
  H  1215  1  0.41485200  0.87979600  0.76454700  1
  H  1216  1  0.44288300  0.90267100  0.76808300  1
  H  1217  1  0.39157700  0.89345700  0.86304300  1
  H  1218  1  0.41371900  0.92229400  0.86400400  1
  H  1231  1  0.46352800  0.06074900  0.28868800  1
  H  1239  1  0.36578300  0.15911400  0.29639400  1
  H  1241  1  0.41124400  0.12809800  0.34347700  1
  H  1242  1  0.43959600  0.10550600  0.34060700  1
  H  1243  1  0.39278800  0.11729200  0.24359300  1
  H  1244  1  0.41549000  0.08892000  0.24269700  1
  H  1259  1  0.18907600  0.13455500  0.36842000  1
  H  1262  1  0.14689400  0.17040000  0.44964100  1
  H  1264  1  0.22373500  0.14187600  0.39290700  1
  H  1266  1  0.15867600  0.21470800  0.39877100  1
  H  1277  1  0.81856600  0.87902500  0.37089900  1
  H  1280  1  0.85250100  0.84310600  0.45510100  1
  H  1282  1  0.78178100  0.86895300  0.39208000  1
  H  1284  1  0.84997300  0.79883200  0.40041600  1
  H  1295  1  0.81527400  0.12867300  0.72786700  1
  H  1298  1  0.85308300  0.17230800  0.64828800  1
  H  1300  1  0.77917200  0.13936700  0.70604300  1
  H  1302  1  0.84266000  0.21313200  0.70314700  1
  H  1313  1  0.19543600  0.87030200  0.73694800  1
  H  1316  1  0.15409600  0.83606300  0.65517700  1
  H  1318  1  0.23012900  0.86285200  0.71220500  1
  H  1320  1  0.16428400  0.79028400  0.70670800  1
  H  1331  1  0.32024300  0.19524500  0.18414000  1
  H  1334  1  0.40075500  0.15051300  0.21718600  1
  H  1336  1  0.34593900  0.22909000  0.19126500  1
  H  1338  1  0.35038100  0.16168500  0.26250600  1
  H  1349  1  0.31945300  0.81689300  0.92336800  1
  H  1352  1  0.40155000  0.85862100  0.88894200  1
  H  1354  1  0.34424600  0.78246200  0.91692300  1
  H  1356  1  0.35125100  0.84672900  0.84329800  1
  H  1367  1  0.67782200  0.81721700  0.17263500  1
  H  1370  1  0.59726100  0.84897700  0.21734100  1
  H  1372  1  0.65825000  0.77984600  0.18452100  1
  H  1374  1  0.65566700  0.84478600  0.25768500  1
  H  1385  1  0.69007700  0.19144400  0.92037200  1
  H  1388  1  0.60824200  0.15081800  0.88456800  1
  H  1390  1  0.66567300  0.22637800  0.91270500  1
  H  1392  1  0.65979200  0.16193400  0.83916300  1
  H  1403  1  0.14012000  0.31783000  0.24319200  1
  H  1406  1  0.16914900  0.39811100  0.19506800  1
  H  1408  1  0.14599700  0.34462700  0.27604400  1
  H  1410  1  0.21577700  0.35077600  0.20707400  1
  H  1421  1  0.87365400  0.31924100  0.86168100  1
  H  1424  1  0.84131700  0.40138300  0.90425900  1
  H  1426  1  0.86732900  0.34459300  0.82750100  1
  H  1428  1  0.79480700  0.35125000  0.89335700  1
  H  1439  1  0.12710000  0.67991200  0.86480300  1
  H  1442  1  0.17196000  0.60096800  0.90268300  1
  H  1444  1  0.13808400  0.65812800  0.82876000  1
  H  1446  1  0.21216500  0.65632100  0.89183200  1
  H  1457  1  0.87370500  0.68629500  0.24074000  1
  H  1460  1  0.83807100  0.60259500  0.20609000  1
  H  1462  1  0.86225000  0.66508200  0.27737400  1
  H  1464  1  0.79394200  0.65808900  0.20709700  1
  H  1475  1  0.13456600  0.18908800  0.73588600  1
  H  1478  1  0.17040000  0.14691000  0.65466000  1
  H  1480  1  0.14188700  0.22375000  0.71139700  1
  H  1482  1  0.21471600  0.15868500  0.70552800  1
  H  1493  1  0.87902800  0.81857100  0.73339300  1
  H  1496  1  0.84310900  0.85250200  0.64919200  1
  H  1498  1  0.86895600  0.78178400  0.71221400  1
  H  1500  1  0.79883300  0.84997600  0.70387700  1
  H  1511  1  0.12868600  0.81527900  0.37643400  1
  H  1514  1  0.17231100  0.85308300  0.45602200  1
  H  1516  1  0.13937700  0.77917500  0.39825800  1
  H  1518  1  0.21314100  0.84266400  0.40116500  1
  H  1529  1  0.87029700  0.19543800  0.36734400  1
  H  1532  1  0.83605300  0.15409800  0.44911200  1
  H  1534  1  0.86284000  0.23013200  0.39208400  1
  H  1536  1  0.79027900  0.16427800  0.39757800  1
  H  1547  1  0.19525600  0.32024600  0.92014500  1
  H  1550  1  0.15052800  0.40076400  0.88711100  1
  H  1552  1  0.22909900  0.34594500  0.91302800  1
  H  1554  1  0.16170300  0.35039400  0.84177800  1
  H  1565  1  0.81689600  0.31945000  0.18092000  1
  H  1568  1  0.85862100  0.40155000  0.21534200  1
  H  1570  1  0.78246200  0.34424200  0.18736700  1
  H  1572  1  0.84673500  0.35125300  0.26098800  1
  H  1583  1  0.81722600  0.67781800  0.93166300  1
  H  1586  1  0.84899200  0.59726400  0.88694800  1
  H  1588  1  0.77985500  0.65824700  0.91977500  1
  H  1590  1  0.84479700  0.65567000  0.84661100  1
  H  1601  1  0.19143800  0.69007800  0.18392300  1
  H  1604  1  0.15081900  0.60823700  0.21972300  1
  H  1606  1  0.22637300  0.66568100  0.19159200  1
  H  1608  1  0.16192300  0.65978900  0.26512400  1
  H  1619  1  0.31783000  0.14012200  0.86110200  1
  H  1622  1  0.39811000  0.16915200  0.90922800  1
  H  1624  1  0.34462700  0.14600100  0.82825000  1
  H  1626  1  0.35077500  0.21578000  0.89722100  1
  H  1637  1  0.31926500  0.87364400  0.24269200  1
  H  1640  1  0.40138600  0.84133700  0.20001900  1
  H  1642  1  0.34463300  0.86731400  0.27682100  1
  H  1644  1  0.35124800  0.79484800  0.21088000  1
  H  1655  1  0.67991800  0.12710300  0.23949100  1
  H  1658  1  0.60097600  0.17195700  0.20160600  1
  H  1660  1  0.65813100  0.13808200  0.27553000  1
  H  1662  1  0.65632500  0.21216600  0.21246100  1
  H  1673  1  0.68630000  0.87370900  0.86355600  1
  H  1676  1  0.60259800  0.83807100  0.89820600  1
  H  1678  1  0.66508500  0.86225500  0.82692400  1
  H  1680  1  0.65809700  0.79394500  0.89719800  1
  H  1691  1  0.67352100  0.65579200  0.88048500  1
  H  1694  1  0.67912400  0.71000800  0.97573600  1
  H  1696  1  0.70991400  0.65885000  0.90562300  1
  H  1698  1  0.64522100  0.72341200  0.95153800  1
  H  1709  1  0.33138200  0.35117800  0.86606100  1
  H  1712  1  0.34067400  0.30652500  0.96572900  1
  H  1714  1  0.29945300  0.34968600  0.89518500  1
  H  1716  1  0.37173300  0.29235000  0.93923600  1
  H  1727  1  0.32917500  0.66098500  0.23729900  1
  H  1730  1  0.33651300  0.70488800  0.13751300  1
  H  1732  1  0.29683000  0.66310400  0.20847500  1
  H  1734  1  0.36866200  0.72060300  0.16439100  1
  H  1745  1  0.67769500  0.35289600  0.22901500  1
  H  1748  1  0.67459500  0.29772900  0.13408700  1
  H  1750  1  0.71147600  0.35001300  0.20167000  1
  H  1752  1  0.64198600  0.28634900  0.16082900  1
  H  1763  1  0.83623100  0.67395500  0.70531800  1
  H  1766  1  0.92723000  0.68165300  0.76634200  1
  H  1768  1  0.85987400  0.71091400  0.70961400  1
  H  1770  1  0.90323300  0.64648700  0.77685000  1
  H  1781  1  0.81820700  0.33286100  0.39587700  1
  H  1784  1  0.91843200  0.33991800  0.35216900  1
  H  1786  1  0.84697000  0.30066000  0.39537600  1
  H  1788  1  0.89199700  0.37098900  0.33646100  1
  H  1799  1  0.18910200  0.32607600  0.70802100  1
  H  1802  1  0.08910400  0.33566800  0.75109600  1
  H  1804  1  0.15969000  0.29411000  0.71022500  1
  H  1806  1  0.11623900  0.36736400  0.76642100  1
  H  1817  1  0.18467900  0.67612400  0.40162900  1
  H  1820  1  0.08618100  0.67031200  0.35367200  1
  H  1822  1  0.15615400  0.70927500  0.39973700  1
  H  1824  1  0.11257200  0.63851400  0.33984000  1
  H  1835  1  0.66188800  0.82759800  0.71978500  1
  H  1838  1  0.71283300  0.92455000  0.72576800  1
  H  1840  1  0.66455200  0.85221500  0.75620200  1
  H  1842  1  0.72676700  0.90107600  0.69134800  1
  H  1853  1  0.35481800  0.82692400  0.38134800  1
  H  1856  1  0.29846000  0.92113900  0.38319700  1
  H  1858  1  0.35195800  0.85390000  0.34761000  1
  H  1860  1  0.28711600  0.89461700  0.41609400  1
  H  1871  1  0.65308700  0.18532300  0.37819400  1
  H  1874  1  0.70235300  0.08780600  0.38319700  1
  H  1876  1  0.65589600  0.15684000  0.34517400  1
  H  1878  1  0.71682700  0.11464100  0.41543900  1
  H  1889  1  0.35030600  0.18960500  0.72458300  1
  H  1892  1  0.30566000  0.08964300  0.71727100  1
  H  1894  1  0.34889900  0.16118500  0.75741100  1
  H  1896  1  0.29205400  0.11559300  0.68529900  1
  H  1907  1  0.65579200  0.67351000  0.22380200  1
  H  1910  1  0.71001300  0.67911400  0.12855400  1
  H  1912  1  0.65885000  0.70990300  0.19866500  1
  H  1914  1  0.72341500  0.64521200  0.15275200  1
  H  1925  1  0.35116900  0.33137300  0.23823700  1
  H  1928  1  0.30651900  0.34066800  0.13856700  1
  H  1930  1  0.34967500  0.29944400  0.20911300  1
  H  1932  1  0.29234600  0.37172600  0.16506000  1
  H  1943  1  0.66096700  0.32916800  0.86697000  1
  H  1946  1  0.70485300  0.33653000  0.96675900  1
  H  1948  1  0.66307600  0.29683300  0.89580200  1
  H  1950  1  0.72058000  0.36866900  0.93987200  1
  H  1961  1  0.35289800  0.67768900  0.87527600  1
  H  1964  1  0.29772400  0.67459800  0.97020200  1
  H  1966  1  0.35001300  0.71147300  0.90261900  1
  H  1968  1  0.28634800  0.64198600  0.94346400  1
  H  1979  1  0.67395200  0.83622800  0.39897400  1
  H  1982  1  0.68164500  0.92723200  0.33795500  1
  H  1984  1  0.71090900  0.85987200  0.39467800  1
  H  1986  1  0.64648200  0.90323100  0.32744200  1
  H  1997  1  0.33285900  0.81822200  0.70839700  1
  H  2000  1  0.33991900  0.91843900  0.75212400  1
  H  2002  1  0.30065800  0.84698400  0.70889800  1
  H  2004  1  0.37099000  0.89199700  0.76782500  1
  H  2015  1  0.32606200  0.18909800  0.39627400  1
  H  2018  1  0.33565200  0.08909900  0.35319600  1
  H  2020  1  0.29409600  0.15968500  0.39407300  1
  H  2022  1  0.36734600  0.11623300  0.33787200  1
  H  2033  1  0.67612200  0.18467600  0.70266400  1
  H  2036  1  0.67030300  0.08617700  0.75062000  1
  H  2038  1  0.70927100  0.15614900  0.70455800  1
  H  2040  1  0.63850000  0.11257000  0.76444900  1
  H  2051  1  0.82759900  0.66188400  0.38451100  1
  H  2054  1  0.92455100  0.71282900  0.37852700  1
  H  2056  1  0.85221500  0.66454300  0.34809600  1
  H  2058  1  0.90107500  0.72676600  0.41294600  1
  H  2069  1  0.82693500  0.35481000  0.72299900  1
  H  2072  1  0.92113300  0.29842700  0.72113400  1
  H  2074  1  0.85390900  0.35192300  0.75674200  1
  H  2076  1  0.89461400  0.28710500  0.68823000  1
  H  2087  1  0.18533200  0.65309600  0.72610000  1
  H  2090  1  0.08781500  0.70236000  0.72109300  1
  H  2092  1  0.15684900  0.65591000  0.75912000  1
  H  2094  1  0.11465000  0.71683400  0.68885200  1
  H  2105  1  0.18960900  0.35030400  0.37971000  1
  H  2108  1  0.08964900  0.30565600  0.38702800  1
  H  2110  1  0.16118700  0.34889400  0.34688300  1
  H  2112  1  0.11559900  0.29205400  0.41900000  1
  H  2123  1  0.22379900  0.00492800  0.43239300  1
  H  2126  1  0.24796200  0.99288100  0.52043000  1
  H  2128  1  0.22599700  0.04217400  0.45709900  1
  H  2130  1  0.19689700  0.95679100  0.50818700  1
  H  2141  1  0.78570900  0.00567200  0.43464300  1
  H  2144  1  0.76964500  0.01228800  0.52511400  1
  H  2146  1  0.79068900  0.96867400  0.45826500  1
  H  2148  1  0.81341700  0.05681500  0.50817200  1
  H  2159  1  0.78260600  0.97535200  0.66792000  1
  H  2162  1  0.83079100  0.99754000  0.57501800  1
  H  2164  1  0.75937300  0.02597500  0.63975700  1
  H  2166  1  0.83499700  0.96627800  0.60550600  1
  H  2177  1  0.21212200  0.01692000  0.67332100  1
  H  2180  1  0.21043400  0.02450900  0.55517600  1
  H  2182  1  0.22924900  0.96309000  0.64726800  1
  H  2184  1  0.20157500  0.04844200  0.59544800  1
  H  2195  1  0.38424500  0.21664600  0.03699100  1
  H  2198  1  0.50202900  0.20757500  0.03109400  1
  H  2200  1  0.41021500  0.23039000  0.09140900  1
  H  2202  1  0.46181900  0.20230100  0.00603300  1
  H  2213  1  0.38673300  0.78545000  0.05307400  1
  H  2216  1  0.47720900  0.77023600  0.05936700  1
  H  2218  1  0.40977900  0.78985800  0.01564500  1
  H  2220  1  0.46079900  0.81483600  0.10251700  1
  H  2231  1  0.62039400  0.78439900  0.02294400  1
  H  2234  1  0.52540900  0.82993900  0.03976800  1
  H  2236  1  0.59165500  0.76112400  0.07305700  1
  H  2238  1  0.55693800  0.83413000  0.01051100  1
  H  2249  1  0.62727200  0.21979100  0.05698500  1
  H  2252  1  0.53712900  0.24731600  0.06116800  1
  H  2254  1  0.60117700  0.22678100  0.01276400  1
  H  2256  1  0.55035400  0.19636500  0.09775300  1
  H  2267  1  0.00681300  0.38807300  0.28653200  1
  H  2270  1  0.98817800  0.49362500  0.27163500  1
  H  2272  1  0.04574900  0.40588700  0.27295400  1
  H  2274  1  0.96056400  0.45821000  0.24445300  1
  H  2285  1  0.00338600  0.38734600  0.83100700  1
  H  2288  1  0.00327600  0.48104800  0.81898000  1
  H  2290  1  0.96603900  0.41062100  0.83721600  1
  H  2292  1  0.05431500  0.46115900  0.85844100  1
  H  2303  1  0.96959400  0.61708900  0.82310200  1
  H  2306  1  0.01309800  0.53321600  0.87867500  1
  H  2308  1  0.02413900  0.59179300  0.80607300  1
  H  2310  1  0.96498900  0.56005400  0.88378600  1
  H  2321  1  0.00341100  0.62179100  0.28690100  1
  H  2324  1  0.02156200  0.51585800  0.27159600  1
  H  2326  1  0.96377000  0.60330000  0.27475400  1
  H  2328  1  0.04832800  0.55173700  0.24336900  1
  H  2339  1  0.00492600  0.22381500  0.67191900  1
  H  2342  1  0.99290100  0.24795700  0.58387300  1
  H  2344  1  0.04217500  0.22599900  0.64721400  1
  H  2346  1  0.95678900  0.19690000  0.59613100  1
  H  2357  1  0.00567500  0.78571100  0.66964700  1
  H  2360  1  0.01229000  0.76964700  0.57917600  1
  H  2362  1  0.96867600  0.79069200  0.64602600  1
  H  2364  1  0.05681600  0.81342000  0.59611800  1
  H  2375  1  0.97535400  0.78260300  0.43637000  1
  H  2378  1  0.99754100  0.83079300  0.52927000  1
  H  2380  1  0.02597700  0.75937300  0.46453600  1
  H  2382  1  0.96627800  0.83499700  0.49878300  1
  H  2393  1  0.01690500  0.21218000  0.43097600  1
  H  2396  1  0.02449100  0.21045400  0.54911800  1
  H  2398  1  0.96307500  0.22929700  0.45703000  1
  H  2400  1  0.04842100  0.20160700  0.50884900  1
  H  2411  1  0.21663700  0.38424500  0.06730300  1
  H  2414  1  0.20757500  0.50203000  0.07320600  1
  H  2416  1  0.23038900  0.41021600  0.01288700  1
  H  2418  1  0.20229600  0.46181900  0.09826400  1
  H  2429  1  0.78540700  0.38672600  0.05120600  1
  H  2432  1  0.77026200  0.47721900  0.04494300  1
  H  2434  1  0.78985900  0.40976100  0.08863600  1
  H  2436  1  0.81481900  0.46078000  0.00175700  1
  H  2447  1  0.78438000  0.62038600  0.08135900  1
  H  2450  1  0.82995400  0.52542000  0.06448300  1
  H  2452  1  0.76111900  0.59165100  0.03123900  1
  H  2454  1  0.83414000  0.55694300  0.09377600  1
  H  2465  1  0.21977000  0.62727500  0.04728300  1
  H  2468  1  0.24732000  0.53712900  0.04312300  1
  H  2470  1  0.22678700  0.60117600  0.09153000  1
  H  2472  1  0.19637100  0.55035000  0.00654300  1
  H  2483  1  0.38807600  0.00681800  0.81776100  1
  H  2486  1  0.49362900  0.98818300  0.83264900  1
  H  2488  1  0.40589200  0.04575300  0.83134900  1
  H  2490  1  0.45821400  0.96055800  0.85982000  1
  H  2501  1  0.38736700  0.00334900  0.27332800  1
  H  2504  1  0.48114100  0.00315000  0.28524000  1
  H  2506  1  0.41064100  0.96600000  0.26707100  1
  H  2508  1  0.46117700  0.05429200  0.24590400  1
  H  2519  1  0.61691000  0.96943300  0.28139600  1
  H  2522  1  0.53335500  0.01355700  0.22570900  1
  H  2524  1  0.59177300  0.02412300  0.29822800  1
  H  2526  1  0.56005100  0.96497200  0.22049400  1
  H  2537  1  0.62179600  0.00341400  0.81738500  1
  H  2540  1  0.51586000  0.02156900  0.83269300  1
  H  2542  1  0.60330300  0.96377900  0.82952400  1
  H  2544  1  0.55173700  0.04832700  0.86093400  1
  H  2555  1  0.70763900  0.54355900  0.95596100  1
  H  2558  1  0.72645600  0.47535800  0.05402500  1
  H  2560  1  0.67459900  0.54387100  0.00696600  1
  H  2562  1  0.73366700  0.46257800  0.00576100  1
  H  2573  1  0.26789800  0.47789200  0.95291600  1
  H  2576  1  0.32228400  0.52720500  0.04997300  1
  H  2578  1  0.33226200  0.46157300  0.00080100  1
  H  2580  1  0.27577900  0.54399000  0.00556100  1
  H  2591  1  0.30764300  0.55003400  0.15446600  1
  H  2594  1  0.29346900  0.48285900  0.06708900  1
  H  2596  1  0.33126200  0.55235300  0.10352500  1
  H  2598  1  0.28279300  0.46604800  0.10351500  1
  H  2609  1  0.75497700  0.47623000  0.13709200  1
  H  2612  1  0.68417000  0.52887900  0.05219800  1
  H  2614  1  0.68394900  0.46165900  0.09639100  1
  H  2616  1  0.74632300  0.53909300  0.08940600  1
  H  2627  1  0.92043800  0.75539100  0.58070200  1
  H  2630  1  0.00500300  0.68544300  0.52673500  1
  H  2632  1  0.96124600  0.68420700  0.59417700  1
  H  2634  1  0.96773200  0.74745800  0.51741900  1
  H  2645  1  0.90403500  0.26728100  0.52453100  1
  H  2648  1  0.99959000  0.32394400  0.57448400  1
  H  2650  1  0.95207100  0.33214900  0.50781800  1
  H  2652  1  0.95606500  0.27595200  0.59038700  1
  H  2663  1  0.10564200  0.30604800  0.59663800  1
  H  2666  1  0.01740400  0.29488000  0.52998400  1
  H  2668  1  0.05514300  0.33117600  0.59959000  1
  H  2670  1  0.05349200  0.28255300  0.51314400  1
  H  2681  1  0.10236100  0.70429000  0.51277100  1
  H  2684  1  0.00343400  0.72794200  0.57853900  1
  H  2686  1  0.05142100  0.67400100  0.51165900  1
  H  2688  1  0.05119200  0.73256500  0.59321300  1
  H  2699  1  0.53504300  0.90885200  0.79367600  1
  H  2702  1  0.47935400  0.99731400  0.73118800  1
  H  2704  1  0.54990000  0.95553700  0.72728100  1
  H  2706  1  0.46633700  0.95674400  0.78150900  1
  H  2717  1  0.47822400  0.91658400  0.30233700  1
  H  2720  1  0.53127700  0.00557100  0.36702400  1
  H  2722  1  0.46487100  0.95894300  0.37227300  1
  H  2724  1  0.54076000  0.96684400  0.30778100  1
  H  2735  1  0.54397600  0.10209200  0.36041600  1
  H  2738  1  0.47945600  0.01442500  0.33931900  1
  H  2740  1  0.54578300  0.05161700  0.38210800  1
  H  2742  1  0.46216100  0.05217200  0.32769200  1
  H  2753  1  0.47341400  0.10374400  0.78867300  1
  H  2756  1  0.52834900  0.00516300  0.74288000  1
  H  2758  1  0.45880200  0.05175300  0.72875900  1
  H  2760  1  0.54165300  0.05073700  0.78451200  1
  H  2771  1  0.54354900  0.70771100  0.14832400  1
  H  2774  1  0.47533400  0.72640800  0.05025000  1
  H  2776  1  0.54387300  0.67459900  0.09731500  1
  H  2778  1  0.46259000  0.73368700  0.09850900  1
  H  2789  1  0.47788100  0.26789800  0.15138300  1
  H  2792  1  0.52719300  0.32226800  0.05431900  1
  H  2794  1  0.46157200  0.33226100  0.10350700  1
  H  2796  1  0.54398600  0.27577500  0.09873600  1
  H  2807  1  0.55003400  0.30765800  0.94983300  1
  H  2810  1  0.48285800  0.29345200  0.03720400  1
  H  2812  1  0.55235400  0.33126000  0.00077900  1
  H  2814  1  0.46604500  0.28279900  0.00077600  1
  H  2825  1  0.47624400  0.75497600  0.96720000  1
  H  2828  1  0.52888100  0.68414100  0.05208000  1
  H  2830  1  0.46166200  0.68394000  0.00789000  1
  H  2832  1  0.53910100  0.74630600  0.01488400  1
  H  2843  1  0.75539000  0.92043600  0.52358800  1
  H  2846  1  0.68544100  0.00500300  0.57755700  1
  H  2848  1  0.68420500  0.96124500  0.51011500  1
  H  2850  1  0.74745800  0.96773000  0.58687300  1
  H  2861  1  0.26725500  0.90407800  0.57978100  1
  H  2864  1  0.32397700  0.99958200  0.52979100  1
  H  2866  1  0.33212900  0.95212500  0.59649600  1
  H  2868  1  0.27595300  0.95607600  0.51391200  1
  H  2879  1  0.30600700  0.10564000  0.50767200  1
  H  2882  1  0.29490100  0.01738700  0.57431600  1
  H  2884  1  0.33117500  0.05514600  0.50471200  1
  H  2886  1  0.28252100  0.05347500  0.59115100  1
  H  2897  1  0.70428700  0.10236000  0.59152200  1
  H  2900  1  0.72794200  0.00343300  0.52575300  1
  H  2902  1  0.67400100  0.05142100  0.59263300  1
  H  2904  1  0.73256400  0.05119000  0.51107700  1
  H  2915  1  0.90883700  0.53504300  0.31064000  1
  H  2918  1  0.99735600  0.47934500  0.37303400  1
  H  2920  1  0.95556000  0.54989800  0.37700100  1
  H  2922  1  0.95676000  0.46634500  0.32275400  1
  H  2933  1  0.91660000  0.47821600  0.80198900  1
  H  2936  1  0.00554700  0.53125600  0.73723200  1
  H  2938  1  0.95892500  0.46485400  0.73202900  1
  H  2940  1  0.96683800  0.54075200  0.79650500  1
  H  2951  1  0.10210800  0.54399000  0.74392200  1
  H  2954  1  0.01443100  0.47944900  0.76491900  1
  H  2956  1  0.05164300  0.54578500  0.72215900  1
  H  2958  1  0.05216200  0.46219300  0.77663900  1
  H  2969  1  0.10373100  0.47355000  0.31550300  1
  H  2972  1  0.00523300  0.52834300  0.36166100  1
  H  2974  1  0.05177200  0.45879900  0.37554700  1
  H  2976  1  0.05071800  0.54165600  0.31980900  1
  C  1  1  0.26769600  0.08957800  0.45961900  1
  C  2  1  0.28749900  0.08331900  0.46618300  1
  C  3  1  0.28954800  0.06797800  0.48134400  1
  C  4  1  0.27206900  0.05703000  0.48747200  1
  C  5  1  0.25246300  0.06190200  0.47998900  1
  C  6  1  0.25003400  0.07931900  0.46720000  1
  C  7  1  0.30481700  0.09262300  0.45727200  1
  C  8  1  0.23060100  0.08678400  0.46152100  1
  C  10  1  0.26560700  0.10564800  0.44498200  1
  C  11  1  0.28329000  0.11401700  0.43541700  1
  C  12  1  0.28121500  0.12899000  0.41990000  1
  C  13  1  0.26165500  0.13682100  0.41547500  1
  C  14  1  0.24397700  0.12937800  0.42537800  1
  C  15  1  0.24586300  0.11313200  0.43964800  1
  C  16  1  0.30275400  0.10713500  0.44173200  1
  C  18  1  0.22856800  0.10375600  0.44856200  1
  C  27  1  0.74300100  0.92675500  0.45939500  1
  C  28  1  0.72380400  0.93409900  0.46657700  1
  C  29  1  0.72319600  0.94858700  0.48269400  1
  C  30  1  0.74146700  0.95823400  0.48870000  1
  C  31  1  0.76051600  0.95247100  0.48047200  1
  C  32  1  0.76146300  0.93533800  0.46714200  1
  C  33  1  0.70576400  0.92657200  0.45741200  1
  C  34  1  0.78019700  0.92641600  0.46126800  1
  C  36  1  0.74372000  0.91112700  0.44416800  1
  C  37  1  0.72541900  0.90467500  0.43426900  1
  C  38  1  0.72629700  0.89021300  0.41813100  1
  C  39  1  0.74517000  0.88080300  0.41363900  1
  C  40  1  0.76331900  0.88614600  0.42402300  1
  C  41  1  0.76276600  0.90212600  0.43867500  1
  C  42  1  0.70660500  0.91283000  0.44102000  1
  C  44  1  0.78078200  0.90967700  0.44789600  1
  C  53  1  0.73607700  0.08585700  0.63974500  1
  C  54  1  0.71634300  0.07954400  0.63299800  1
  C  55  1  0.71447000  0.06400800  0.61798800  1
  C  56  1  0.73198800  0.05291000  0.61226900  1
  C  57  1  0.75147800  0.05797900  0.61988500  1
  C  58  1  0.75379700  0.07544500  0.63255700  1
  C  59  1  0.69895000  0.08894400  0.64165000  1
  C  60  1  0.77320000  0.08252200  0.63881000  1
  C  62  1  0.73806000  0.10206500  0.65424600  1
  C  63  1  0.72028600  0.11045300  0.66362300  1
  C  64  1  0.72224000  0.12546600  0.67912400  1
  C  65  1  0.74175100  0.13351000  0.68344000  1
  C  66  1  0.75953800  0.12613000  0.67365800  1
  C  67  1  0.75777400  0.10958400  0.65970200  1
  C  68  1  0.70088000  0.10350800  0.65718400  1
  C  70  1  0.77515200  0.09981100  0.65138400  1
  C  79  1  0.27139600  0.91628600  0.64430000  1
  C  80  1  0.29089300  0.92299500  0.63728400  1
  C  81  1  0.29218200  0.93814100  0.62184300  1
  C  82  1  0.27428900  0.94841900  0.61577600  1
  C  83  1  0.25501100  0.94316800  0.62379100  1
  C  84  1  0.25331800  0.92595200  0.63693100  1
  C  85  1  0.30861800  0.91427200  0.64596900  1
  C  86  1  0.23419000  0.91811800  0.64309800  1
  C  88  1  0.27001200  0.90034800  0.65915400  1
  C  89  1  0.28808300  0.89257300  0.66849700  1
  C  90  1  0.28667100  0.87771400  0.68421000  1
  C  91  1  0.26738800  0.86943600  0.68905000  1
  C  92  1  0.24936200  0.87628100  0.67936300  1
  C  93  1  0.25056600  0.89241700  0.66491400  1
  C  94  1  0.30723200  0.89990900  0.66174500  1
  C  96  1  0.23285400  0.90123800  0.65625200  1
  C  105  1  0.41408400  0.27106900  0.13908200  1
  C  106  1  0.42115100  0.29064400  0.13266700  1
  C  107  1  0.43643300  0.29213500  0.11737800  1
  C  108  1  0.44232600  0.27439100  0.10673600  1
  C  109  1  0.43425200  0.25506600  0.11171900  1
  C  110  1  0.42126100  0.25313400  0.12902100  1
  C  111  1  0.41265200  0.30825300  0.14180200  1
  C  112  1  0.41501800  0.23389600  0.13652000  1
  C  114  1  0.39932900  0.26947000  0.15509200  1
  C  115  1  0.39017200  0.28744600  0.16329300  1
  C  116  1  0.37453500  0.28584700  0.17821200  1
  C  117  1  0.36955400  0.26643600  0.18609600  1
  C  118  1  0.37903200  0.24848400  0.17879200  1
  C  119  1  0.39344500  0.24991100  0.16264400  1
  C  120  1  0.39700400  0.30669100  0.15628200  1
  C  122  1  0.40191900  0.23231600  0.15341700  1
  C  131  1  0.41189500  0.74307000  0.97249600  1
  C  132  1  0.41912600  0.72383000  0.97968900  1
  C  133  1  0.43478800  0.72312600  0.99466400  1
  C  134  1  0.44052000  0.74131900  0.00461400  1
  C  135  1  0.43231700  0.76038900  0.99889100  1
  C  136  1  0.41923100  0.76147100  0.98157200  1
  C  137  1  0.41049300  0.70581100  0.97151500  1
  C  138  1  0.41321500  0.78029300  0.97292700  1
  C  140  1  0.39703800  0.74387900  0.95651000  1
  C  141  1  0.38774000  0.72554500  0.94928400  1
  C  142  1  0.37208200  0.72643700  0.93430200  1
  C  143  1  0.36724700  0.74548000  0.92544000  1
  C  144  1  0.37691400  0.76372200  0.93169800  1
  C  145  1  0.39132000  0.76304100  0.94789200  1
  C  146  1  0.39460400  0.70667200  0.95720500  1
  C  148  1  0.40005400  0.78103700  0.95603000  1
  C  157  1  0.59146600  0.73668000  0.13112600  1
  C  158  1  0.58485700  0.71692900  0.12472200  1
  C  159  1  0.56938800  0.71504900  0.10964200  1
  C  160  1  0.56317600  0.73261900  0.09888700  1
  C  161  1  0.57070700  0.75213200  0.10397000  1
  C  162  1  0.58374800  0.75442600  0.12116000  1
  C  163  1  0.59412100  0.69955200  0.13355200  1
  C  164  1  0.58985600  0.77383100  0.12835500  1
  C  166  1  0.60640000  0.73868100  0.14692200  1
  C  167  1  0.61642300  0.72096200  0.15463400  1
  C  168  1  0.63241000  0.72299500  0.16910000  1
  C  169  1  0.63649800  0.74241600  0.17746500  1
  C  170  1  0.62604500  0.76011300  0.17083100  1
  C  171  1  0.61167800  0.75836500  0.15464200  1
  C  172  1  0.61013900  0.70154800  0.14757600  1
  C  174  1  0.60278400  0.77574300  0.14538500  1
  C  183  1  0.59825700  0.26876100  0.96567900  1
  C  184  1  0.59144800  0.28840700  0.97217100  1
  C  185  1  0.57622200  0.29007500  0.98749400  1
  C  186  1  0.57024700  0.27239000  0.99818400  1
  C  187  1  0.57794000  0.25293200  0.99305800  1
  C  188  1  0.59083800  0.25088100  0.97567800  1
  C  189  1  0.60019800  0.30594300  0.96312800  1
  C  190  1  0.59679200  0.23160800  0.96801100  1
  C  192  1  0.61298900  0.26704400  0.94965300  1
  C  193  1  0.62238600  0.28494200  0.94155600  1
  C  194  1  0.63798200  0.28323800  0.92662100  1
  C  195  1  0.64268200  0.26382700  0.91858200  1
  C  196  1  0.63295400  0.24594600  0.92575500  1
  C  197  1  0.61858800  0.24745800  0.94195200  1
  C  198  1  0.61581800  0.30424300  0.94865300  1
  C  200  1  0.60983500  0.22994000  0.95106300  1
  C  209  1  0.09096000  0.41194400  0.31603300  1
  C  210  1  0.08373000  0.41896500  0.33534200  1
  C  211  1  0.06795100  0.43379800  0.33622600  1
  C  212  1  0.05762600  0.43913100  0.31812100  1
  C  213  1  0.06341300  0.43099400  0.29905100  1
  C  214  1  0.08123800  0.41866600  0.29774500  1
  C  215  1  0.09253700  0.41082700  0.35328100  1
  C  216  1  0.08955200  0.41260400  0.27879000  1
  C  218  1  0.10737400  0.39758700  0.31502500  1
  C  219  1  0.11519700  0.38870800  0.33333333  1
  C  220  1  0.13043900  0.37333200  0.33224200  1
  C  221  1  0.13899900  0.36837200  0.31309900  1
  C  222  1  0.13209000  0.37763800  0.29488100  1
  C  223  1  0.11564300  0.39175000  0.29574600  1
  C  224  1  0.10743900  0.39552100  0.35227200  1
  C  226  1  0.10680600  0.39993800  0.27781800  1
  C  235  1  0.92319700  0.41335400  0.78969100  1
  C  236  1  0.93033400  0.42110800  0.77063400  1
  C  237  1  0.94514400  0.43694800  0.77032700  1
  C  238  1  0.95505300  0.44226900  0.78866800  1
  C  239  1  0.94940900  0.43353200  0.80751600  1
  C  240  1  0.93219300  0.42031600  0.80827400  1
  C  241  1  0.92230500  0.41275500  0.75241600  1
  C  242  1  0.92359200  0.41381500  0.82695000  1
  C  244  1  0.90738000  0.39830700  0.79014700  1
  C  245  1  0.90031900  0.38929300  0.77160700  1
  C  246  1  0.88552700  0.37343600  0.77215500  1
  C  247  1  0.87666200  0.36814300  0.79108000  1
  C  248  1  0.88273500  0.37754400  0.80951300  1
  C  249  1  0.89878700  0.39210700  0.80916600  1
  C  250  1  0.90820600  0.39664800  0.75290600  1
  C  252  1  0.90679800  0.40052300  0.82737000  1
  C  261  1  0.08544600  0.59195300  0.78508500  1
  C  262  1  0.07935900  0.58521300  0.76527800  1
  C  263  1  0.06357300  0.57049600  0.76320300  1
  C  264  1  0.05204100  0.56510800  0.78054700  1
  C  265  1  0.05694400  0.57268500  0.80011200  1
  C  266  1  0.07462000  0.58502200  0.80266200  1
  C  267  1  0.08917900  0.59363800  0.74800300  1
  C  268  1  0.08147800  0.59127600  0.82214800  1
  C  270  1  0.10181000  0.60624800  0.78726600  1
  C  271  1  0.11061100  0.61542400  0.76958700  1
  C  272  1  0.12575800  0.63076500  0.77171000  1
  C  273  1  0.13348900  0.63514100  0.79132600  1
  C  274  1  0.12567900  0.62556700  0.80903500  1
  C  275  1  0.10904400  0.61174700  0.80707400  1
  C  276  1  0.10392500  0.60897000  0.75010000  1
  C  278  1  0.09889100  0.60363900  0.82432900  1
  C  287  1  0.91903700  0.59811000  0.31729200  1
  C  288  1  0.92631100  0.59119100  0.33661100  1
  C  289  1  0.94148400  0.57574400  0.33748800  1
  C  290  1  0.95155600  0.56996100  0.31937800  1
  C  291  1  0.94585900  0.57811600  0.30028200  1
  C  292  1  0.92828400  0.59080400  0.29899600  1
  C  293  1  0.91812700  0.60001300  0.35452600  1
  C  294  1  0.91980300  0.59669400  0.28005900  1
  C  296  1  0.90304100  0.61291100  0.31626100  1
  C  297  1  0.89600100  0.62255800  0.33445600  1
  C  298  1  0.88137200  0.63849400  0.33329800  1
  C  299  1  0.87229800  0.64300800  0.31428300  1
  C  300  1  0.87825600  0.63284400  0.29620000  1
  C  301  1  0.89444700  0.61843100  0.29703000  1
  C  302  1  0.90390200  0.61594800  0.35343400  1
  C  304  1  0.90272100  0.60960900  0.27913200  1
  C  313  1  0.08957800  0.26770200  0.64468600  1
  C  314  1  0.08331800  0.28750400  0.63812100  1
  C  315  1  0.06797500  0.28955100  0.62296100  1
  C  316  1  0.05702700  0.27207100  0.61683600  1
  C  317  1  0.06190000  0.25246500  0.62432100  1
  C  318  1  0.07931800  0.25003900  0.63710900  1
  C  319  1  0.09262200  0.30482200  0.64703100  1
  C  320  1  0.08678400  0.23060600  0.64278900  1
  C  322  1  0.10565000  0.26561400  0.65932400  1
  C  323  1  0.11401800  0.28329900  0.66888400  1
  C  324  1  0.12899300  0.28122600  0.68440200  1
  C  325  1  0.13682500  0.26166600  0.68882700  1
  C  326  1  0.12938100  0.24398600  0.67892700  1
  C  327  1  0.11313400  0.24587100  0.66465700  1
  C  328  1  0.10713500  0.30276100  0.66256800  1
  C  330  1  0.10375800  0.22857400  0.65574600  1
  C  339  1  0.92675700  0.74300400  0.64489700  1
  C  340  1  0.93410100  0.72380700  0.63771500  1
  C  341  1  0.94858700  0.72319800  0.62159800  1
  C  342  1  0.95823600  0.74146900  0.61559000  1
  C  343  1  0.95247300  0.76051700  0.62381800  1
  C  344  1  0.93534000  0.76146600  0.63715000  1
  C  345  1  0.92657200  0.70576700  0.64688000  1
  C  346  1  0.92641800  0.78020000  0.64302400  1
  C  348  1  0.91112800  0.74372300  0.66012400  1
  C  349  1  0.90467600  0.72542200  0.67002300  1
  C  350  1  0.89021500  0.72630000  0.68616100  1
  C  351  1  0.88080600  0.74517400  0.69065300  1
  C  352  1  0.88614900  0.76332200  0.68026900  1
  C  353  1  0.90212700  0.76277000  0.66561700  1
  C  354  1  0.91283100  0.70660800  0.66327200  1
  C  356  1  0.90968000  0.78078600  0.65639500  1
  C  365  1  0.08586000  0.73607900  0.46454900  1
  C  366  1  0.07954600  0.71634300  0.47129500  1
  C  367  1  0.06401000  0.71447000  0.48630400  1
  C  368  1  0.05291100  0.73198800  0.49202200  1
  C  369  1  0.05798100  0.75147800  0.48440800  1
  C  370  1  0.07544700  0.75379800  0.47173800  1
  C  371  1  0.08894700  0.69895100  0.46264400  1
  C  372  1  0.08252600  0.77320100  0.46548600  1
  C  374  1  0.10206900  0.73806300  0.45005000  1
  C  375  1  0.11045700  0.72028900  0.44067200  1
  C  376  1  0.12547100  0.72224300  0.42517300  1
  C  377  1  0.13351600  0.74175400  0.42085800  1
  C  378  1  0.12613600  0.75954000  0.43064100  1
  C  379  1  0.10958900  0.75777600  0.44459400  1
  C  380  1  0.10351200  0.70088300  0.44711100  1
  C  382  1  0.09981500  0.77515300  0.45291400  1
  C  391  1  0.91625100  0.27141100  0.46000300  1
  C  392  1  0.92295200  0.29090900  0.46702400  1
  C  393  1  0.93809400  0.29220100  0.48246800  1
  C  394  1  0.94837600  0.27430800  0.48853500  1
  C  395  1  0.94313300  0.25503100  0.48051500  1
  C  396  1  0.92592000  0.25333500  0.46737300  1
  C  397  1  0.91422700  0.30863300  0.45833600  1
  C  398  1  0.91809300  0.23420400  0.46120200  1
  C  400  1  0.90031700  0.27002200  0.44514600  1
  C  401  1  0.89254100  0.28809200  0.43579900  1
  C  402  1  0.87769000  0.28667900  0.42008200  1
  C  403  1  0.86941600  0.26739200  0.41523800  1
  C  404  1  0.87626200  0.24937000  0.42492700  1
  C  405  1  0.89239300  0.25057500  0.43938100  1
  C  406  1  0.89987000  0.30724400  0.44255800  1
  C  408  1  0.90121700  0.23286600  0.44804500  1
  C  417  1  0.27107300  0.41408800  0.96521800  1
  C  418  1  0.29064900  0.42115600  0.97163600  1
  C  419  1  0.29213700  0.43643500  0.98692700  1
  C  420  1  0.27439200  0.44232700  0.99756700  1
  C  421  1  0.25506700  0.43425500  0.99258200  1
  C  422  1  0.25313700  0.42126600  0.97527700  1
  C  423  1  0.30825700  0.41265700  0.96250200  1
  C  424  1  0.23390000  0.41502300  0.96777800  1
  C  426  1  0.26947600  0.39933500  0.94920700  1
  C  427  1  0.28745200  0.39017900  0.94100600  1
  C  428  1  0.28585400  0.37454300  0.92608800  1
  C  429  1  0.26644500  0.36955900  0.91820200  1
  C  430  1  0.24849200  0.37903800  0.92550600  1
  C  431  1  0.24991700  0.39345100  0.94165400  1
  C  432  1  0.30669600  0.39701500  0.94801400  1
  C  434  1  0.23232100  0.40192500  0.95088000  1
  C  443  1  0.74307300  0.41188700  0.13178700  1
  C  444  1  0.72383500  0.41912000  0.12459500  1
  C  445  1  0.72313000  0.43478000  0.10961900  1
  C  446  1  0.74132400  0.44051000  0.09966700  1
  C  447  1  0.76039400  0.43230400  0.10538900  1
  C  448  1  0.76147400  0.41922000  0.12270900  1
  C  449  1  0.70581400  0.41048800  0.13277100  1
  C  450  1  0.78029800  0.41320400  0.13135400  1
  C  452  1  0.74388400  0.39703300  0.14777600  1
  C  453  1  0.72554800  0.38773700  0.15500200  1
  C  454  1  0.72644000  0.37207900  0.16998500  1
  C  455  1  0.74548300  0.36724300  0.17884700  1
  C  456  1  0.76372500  0.37690800  0.17258800  1
  C  457  1  0.76304400  0.39131300  0.15639200  1
  C  458  1  0.70667500  0.39460300  0.14708300  1
  C  460  1  0.78104000  0.40004500  0.14825200  1
  C  469  1  0.73668500  0.59146300  0.97316300  1
  C  470  1  0.71693400  0.58485400  0.97956600  1
  C  471  1  0.71505200  0.56938700  0.99464700  1
  C  472  1  0.73262000  0.56317600  0.00540300  1
  C  473  1  0.75213500  0.57070700  0.00032300  1
  C  474  1  0.75442900  0.58374500  0.98313100  1
  C  475  1  0.69955800  0.59411700  0.97073300  1
  C  476  1  0.77383500  0.58985400  0.97593900  1
  C  478  1  0.73868700  0.60639700  0.95736800  1
  C  479  1  0.72096900  0.61642000  0.94965300  1
  C  480  1  0.72300200  0.63240700  0.93518800  1
  C  481  1  0.74242500  0.63649500  0.92682600  1
  C  482  1  0.76012000  0.62604200  0.93346100  1
  C  483  1  0.75837300  0.61167500  0.94965000  1
  C  484  1  0.70155400  0.61013700  0.95671000  1
  C  486  1  0.77574900  0.60278300  0.95890800  1
  C  495  1  0.26876100  0.59826100  0.13861500  1
  C  496  1  0.28840800  0.59145200  0.13212600  1
  C  497  1  0.29007600  0.57622400  0.11680600  1
  C  498  1  0.27239100  0.57024500  0.10611600  1
  C  499  1  0.25293400  0.57793900  0.11124000  1
  C  500  1  0.25088100  0.59084100  0.12861900  1
  C  501  1  0.30594500  0.60020600  0.14116600  1
  C  502  1  0.23160800  0.59679400  0.13628400  1
  C  504  1  0.26704400  0.61299700  0.15463900  1
  C  505  1  0.28494200  0.62239800  0.16273100  1
  C  506  1  0.28323500  0.63799800  0.17766500  1
  C  507  1  0.26382600  0.64269600  0.18570400  1
  C  508  1  0.24594400  0.63296300  0.17853500  1
  C  509  1  0.24745800  0.61859600  0.16233800  1
  C  510  1  0.30424300  0.61583000  0.15563800  1
  C  512  1  0.22994000  0.60983900  0.15322900  1
  C  521  1  0.41195000  0.09096300  0.78826800  1
  C  522  1  0.41897500  0.08373400  0.76896000  1
  C  523  1  0.43380700  0.06795600  0.76807700  1
  C  524  1  0.43913800  0.05763100  0.78618100  1
  C  525  1  0.43100000  0.06341800  0.80525100  1
  C  526  1  0.41867100  0.08124300  0.80655600  1
  C  527  1  0.41083500  0.09253900  0.75102000  1
  C  528  1  0.41260700  0.08955600  0.82551000  1
  C  530  1  0.39759200  0.10737500  0.78927400  1
  C  531  1  0.38871300  0.11519700  0.77099700  1
  C  532  1  0.37333500  0.13043800  0.77205400  1
  C  533  1  0.36837400  0.13900000  0.79119600  1
  C  534  1  0.37763900  0.13209200  0.80941500  1
  C  535  1  0.39175100  0.11564500  0.80855200  1
  C  536  1  0.39552200  0.10743400  0.75202800  1
  C  538  1  0.39994100  0.10680900  0.82648000  1
  C  547  1  0.41336900  0.92318400  0.31463100  1
  C  548  1  0.42112400  0.93033300  0.33368600  1
  C  549  1  0.43696200  0.94514400  0.33398700  1
  C  550  1  0.44228200  0.95504500  0.31564100  1
  C  551  1  0.43354500  0.94939200  0.29679500  1
  C  552  1  0.42033200  0.93217300  0.29604500  1
  C  553  1  0.41276900  0.92231100  0.35190700  1
  C  554  1  0.41383500  0.92356300  0.27737200  1
  C  556  1  0.39832500  0.90736600  0.31418200  1
  C  557  1  0.38931200  0.90031400  0.33272500  1
  C  558  1  0.37345600  0.88551800  0.33218300  1
  C  559  1  0.36816900  0.87664200  0.31326200  1
  C  560  1  0.37757200  0.88270600  0.29482800  1
  C  561  1  0.39213000  0.89876100  0.29516700  1
  C  562  1  0.39666200  0.90821200  0.35142200  1
  C  564  1  0.40054600  0.90676400  0.27696000  1
  C  573  1  0.59194500  0.08544100  0.31918900  1
  C  574  1  0.58520500  0.07935100  0.33899500  1
  C  575  1  0.57048800  0.06356400  0.34106600  1
  C  576  1  0.56510200  0.05203600  0.32371900  1
  C  577  1  0.57268300  0.05694100  0.30415600  1
  C  578  1  0.58501900  0.07461800  0.30161000  1
  C  579  1  0.59362700  0.08916800  0.35627300  1
  C  580  1  0.59127600  0.08147900  0.28212600  1
  C  582  1  0.60624200  0.10180500  0.31701400  1
  C  583  1  0.61541600  0.11060300  0.33469400  1
  C  584  1  0.63075900  0.12574900  0.33257500  1
  C  585  1  0.63513800  0.13348300  0.31296200  1
  C  586  1  0.62556600  0.12567600  0.29525100  1
  C  587  1  0.61174600  0.10904200  0.29720800  1
  C  588  1  0.60896000  0.10391300  0.35417900  1
  C  590  1  0.60364100  0.09889100  0.27994900  1
  C  599  1  0.59811500  0.91903600  0.78699700  1
  C  600  1  0.59119400  0.92630600  0.76767800  1
  C  601  1  0.57574600  0.94147800  0.76679800  1
  C  602  1  0.56996300  0.95155300  0.78490600  1
  C  603  1  0.57811800  0.94586100  0.80400200  1
  C  604  1  0.59080800  0.92828600  0.80529300  1
  C  605  1  0.60001800  0.91812100  0.74976400  1
  C  606  1  0.59669900  0.91980700  0.82423000  1
  C  608  1  0.61291600  0.90303900  0.78803300  1
  C  609  1  0.62256300  0.89599800  0.76983800  1
  C  610  1  0.63850000  0.88137100  0.77099900  1
  C  611  1  0.64301200  0.87229800  0.79001400  1
  C  612  1  0.63284900  0.87825900  0.80809500  1
  C  613  1  0.61843600  0.89444900  0.80726300  1
  C  614  1  0.61595400  0.90389600  0.75085800  1
  C  616  1  0.60961200  0.90272600  0.82516000  1
  C  625  1  0.77444500  0.91304400  0.63317800  1
  C  626  1  0.75705500  0.92061800  0.62244100  1
  C  627  1  0.75973200  0.93476500  0.60623000  1
  C  628  1  0.77946800  0.94249600  0.60235000  1
  C  629  1  0.79654000  0.93661800  0.61400800  1
  C  630  1  0.79431500  0.92057700  0.62838700  1
  C  631  1  0.73747500  0.91359700  0.62818700  1
  C  632  1  0.81142500  0.91163500  0.63802700  1
  C  634  1  0.77202400  0.89759800  0.64839900  1
  C  635  1  0.75208300  0.89159500  0.65474400  1
  C  636  1  0.74987400  0.87721900  0.67086000  1
  C  637  1  0.76724900  0.86684000  0.67812900  1
  C  638  1  0.78707800  0.87173900  0.67122500  1
  C  639  1  0.78953900  0.88802300  0.65712400  1
  C  640  1  0.73499900  0.89997500  0.64455800  1
  C  642  1  0.80912200  0.89514700  0.65148300  1
  C  651  1  0.24465200  0.10070700  0.63230200  1
  C  652  1  0.26156000  0.09779200  0.61888200  1
  C  653  1  0.25990600  0.08344400  0.60274600  1
  C  654  1  0.24270400  0.07050100  0.60199900  1
  C  655  1  0.22675500  0.07188800  0.61635200  1
  C  656  1  0.22702200  0.08804900  0.63067700  1
  C  657  1  0.27971700  0.10886400  0.62252500  1
  C  658  1  0.20991800  0.09219100  0.64312700  1
  C  660  1  0.24557700  0.11586500  0.64788300  1
  C  661  1  0.26446100  0.12568200  0.65231600  1
  C  662  1  0.26566900  0.13901800  0.66939200  1
  C  663  1  0.24745300  0.14571500  0.67867800  1
  C  664  1  0.22829000  0.13742800  0.67322300  1
  C  665  1  0.22766700  0.12101200  0.65911400  1
  C  666  1  0.28147200  0.12172500  0.63962600  1
  C  668  1  0.20978400  0.10927900  0.65609900  1
  C  677  1  0.24166700  0.90592100  0.47114400  1
  C  678  1  0.25886800  0.91003900  0.48386000  1
  C  679  1  0.25693400  0.92431300  0.50004300  1
  C  680  1  0.23892900  0.93605000  0.50145300  1
  C  681  1  0.22267100  0.93368700  0.48759400  1
  C  682  1  0.22335900  0.91746300  0.47335900  1
  C  683  1  0.27755400  0.90016400  0.47950400  1
  C  684  1  0.20607000  0.91209700  0.46165700  1
  C  686  1  0.24294100  0.89073200  0.45561800  1
  C  687  1  0.26225200  0.88226300  0.45037700  1
  C  688  1  0.26367900  0.86914700  0.43314800  1
  C  689  1  0.24559400  0.86094600  0.42481100  1
  C  690  1  0.22610900  0.86766700  0.43130100  1
  C  691  1  0.22496300  0.88423800  0.44522600  1
  C  692  1  0.27947400  0.88743900  0.46232800  1
  C  694  1  0.20648600  0.89481100  0.44893800  1
  C  703  1  0.76467500  0.10334400  0.47042600  1
  C  704  1  0.74773600  0.09849800  0.48325000  1
  C  705  1  0.75034600  0.08428700  0.49941100  1
  C  706  1  0.76896700  0.07355500  0.50095500  1
  C  707  1  0.78514900  0.07684200  0.48722300  1
  C  708  1  0.78354200  0.09274000  0.47271400  1
  C  709  1  0.72863100  0.10758800  0.47900000  1
  C  710  1  0.80046000  0.09856900  0.46070900  1
  C  712  1  0.76261800  0.11829600  0.45473800  1
  C  713  1  0.74296600  0.12619100  0.44980000  1
  C  714  1  0.74088400  0.13952500  0.43279500  1
  C  715  1  0.75857600  0.14786900  0.42382900  1
  C  716  1  0.77830000  0.14135700  0.42964200  1
  C  717  1  0.78019700  0.12517100  0.44390200  1
  C  718  1  0.72609400  0.12039700  0.46196000  1
  C  720  1  0.79912000  0.11538700  0.44749000  1
  C  729  1  0.58657700  0.77170900  0.96057300  1
  C  730  1  0.57567200  0.75457300  0.96847100  1
  C  731  1  0.55902500  0.75772200  0.98199000  1
  C  732  1  0.55479500  0.77772200  0.98878800  1
  C  733  1  0.56656300  0.79461700  0.98263700  1
  C  734  1  0.58147200  0.79183400  0.96717600  1
  C  735  1  0.58167000  0.73476500  0.96236600  1
  C  736  1  0.59130700  0.80863500  0.95787500  1
  C  738  1  0.60223600  0.76876100  0.94566800  1
  C  739  1  0.60879000  0.74863600  0.94057000  1
  C  740  1  0.62525100  0.74595300  0.92666500  1
  C  741  1  0.63268400  0.76296000  0.91579900  1
  C  742  1  0.62558000  0.78292300  0.91978100  1
  C  743  1  0.61112100  0.78594000  0.93564800  1
  C  744  1  0.59842200  0.73183800  0.94930600  1
  C  746  1  0.60522500  0.80575800  0.94186900  1
  C  755  1  0.58681300  0.24134500  0.14894600  1
  C  756  1  0.57417100  0.25859400  0.14482900  1
  C  757  1  0.55808200  0.25676900  0.13043400  1
  C  758  1  0.55670500  0.23880800  0.11861600  1
  C  759  1  0.57045900  0.22244900  0.12102000  1
  C  760  1  0.58460300  0.22309700  0.13731500  1
  C  761  1  0.57853000  0.27722300  0.15481600  1
  C  762  1  0.59622700  0.20574800  0.14264800  1
  C  764  1  0.60224300  0.24249700  0.16424200  1
  C  765  1  0.60746400  0.26173900  0.17287800  1
  C  766  1  0.62457100  0.26304100  0.18616800  1
  C  767  1  0.63283600  0.24487600  0.19426900  1
  C  768  1  0.62636600  0.22545800  0.18735000  1
  C  769  1  0.61255100  0.22445800  0.17068900  1
  C  770  1  0.59559500  0.27902100  0.16771400  1
  C  772  1  0.60888600  0.20605400  0.15997400  1
  C  781  1  0.42508100  0.24513300  0.95353300  1
  C  782  1  0.43862600  0.26194100  0.95646900  1
  C  783  1  0.45480300  0.26011600  0.97075500  1
  C  784  1  0.45543700  0.24289200  0.98367100  1
  C  785  1  0.44090100  0.22712100  0.98231600  1
  C  786  1  0.42657800  0.22746100  0.96614900  1
  C  787  1  0.43507700  0.28016800  0.94548200  1
  C  788  1  0.41399200  0.21046000  0.96197300  1
  C  790  1  0.40945900  0.24622500  0.93843100  1
  C  791  1  0.40511000  0.26519300  0.92874000  1
  C  792  1  0.38796500  0.26658000  0.91551400  1
  C  793  1  0.37851100  0.24848100  0.90876100  1
  C  794  1  0.38385900  0.22925400  0.91693900  1
  C  795  1  0.39807600  0.22841700  0.93325200  1
  C  796  1  0.41789000  0.28211800  0.93276100  1
  C  798  1  0.40101700  0.21045600  0.94488000  1
  C  807  1  0.42380400  0.76745000  0.15093700  1
  C  808  1  0.43635800  0.75028100  0.14618300  1
  C  809  1  0.45217300  0.75239100  0.13150900  1
  C  810  1  0.45363800  0.77074800  0.12032500  1
  C  811  1  0.44013600  0.78713100  0.12355900  1
  C  812  1  0.42598800  0.78603500  0.13982400  1
  C  813  1  0.43216700  0.73143100  0.15581900  1
  C  814  1  0.41423200  0.80318200  0.14549900  1
  C  816  1  0.40844600  0.76588600  0.16628700  1
  C  817  1  0.40355200  0.74646500  0.17476100  1
  C  818  1  0.38684300  0.74482600  0.18851300  1
  C  819  1  0.37809100  0.76276300  0.19653300  1
  C  820  1  0.38381300  0.78227900  0.18936600  1
  C  821  1  0.39783800  0.78369900  0.17292500  1
  C  822  1  0.41542800  0.72935200  0.16909400  1
  C  824  1  0.40134300  0.80234900  0.16260600  1
  C  833  1  0.91216800  0.58749100  0.82293900  1
  C  834  1  0.92010300  0.57692900  0.80560900  1
  C  835  1  0.93404600  0.56056300  0.80844400  1
  C  836  1  0.94149100  0.55658700  0.82827700  1
  C  837  1  0.93529100  0.56814200  0.84531100  1
  C  838  1  0.91921300  0.58243900  0.84291500  1
  C  839  1  0.91366800  0.58306500  0.78594600  1
  C  840  1  0.90980200  0.59177100  0.85993600  1
  C  842  1  0.89687400  0.60283000  0.82035200  1
  C  843  1  0.89163100  0.60972000  0.80038800  1
  C  844  1  0.87765200  0.62619500  0.79810100  1
  C  845  1  0.86649500  0.63290200  0.81526100  1
  C  846  1  0.87039900  0.62517200  0.83503300  1
  C  847  1  0.88670900  0.61113900  0.83772300  1
  C  848  1  0.90042300  0.59974000  0.78337500  1
  C  850  1  0.89326500  0.60512100  0.85740200  1
  C  859  1  0.10080500  0.58638000  0.28933700  1
  C  860  1  0.09683200  0.57254900  0.30568000  1
  C  861  1  0.08296200  0.55617500  0.30257700  1
  C  862  1  0.07154900  0.55550600  0.28429300  1
  C  863  1  0.07366600  0.57042100  0.26895300  1
  C  864  1  0.08948400  0.58497600  0.27081700  1
  C  865  1  0.10645000  0.57604000  0.32468900  1
  C  866  1  0.09453500  0.59792100  0.25434500  1
  C  868  1  0.11557400  0.60219000  0.29169400  1
  C  869  1  0.12399500  0.60633400  0.31130900  1
  C  870  1  0.13711000  0.62346200  0.31376300  1
  C  871  1  0.14495000  0.63317200  0.29622400  1
  C  872  1  0.13798700  0.62809200  0.27644700  1
  C  873  1  0.12177600  0.61388700  0.27443100  1
  C  874  1  0.11895600  0.59323900  0.32771800  1
  C  876  1  0.11134200  0.61115900  0.25571300  1
  C  885  1  0.90680300  0.42384100  0.28845500  1
  C  886  1  0.91055400  0.43724600  0.30521100  1
  C  887  1  0.92523700  0.45304500  0.30309300  1
  C  888  1  0.93762500  0.45347600  0.28546500  1
  C  889  1  0.93546000  0.43902500  0.26970900  1
  C  890  1  0.91898500  0.42508700  0.27047600  1
  C  891  1  0.89992900  0.43390200  0.32370100  1
  C  892  1  0.91413300  0.41261600  0.25357700  1
  C  894  1  0.89136500  0.40857100  0.28989900  1
  C  895  1  0.88200600  0.40444600  0.30908200  1
  C  896  1  0.86837900  0.38764200  0.31077600  1
  C  897  1  0.86102100  0.37832700  0.29283600  1
  C  898  1  0.86891800  0.38344500  0.27342200  1
  C  899  1  0.88553200  0.39729000  0.27222700  1
  C  900  1  0.88675400  0.41710000  0.32591100  1
  C  902  1  0.89680600  0.39998100  0.25399700  1
  C  911  1  0.10281500  0.42296700  0.81243600  1
  C  912  1  0.09861300  0.43555600  0.79515200  1
  C  913  1  0.08413200  0.45157800  0.79695700  1
  C  914  1  0.07244500  0.45310200  0.81498900  1
  C  915  1  0.07515900  0.43958600  0.83145300  1
  C  916  1  0.09134500  0.42531900  0.83078100  1
  C  917  1  0.10857900  0.43120500  0.77651600  1
  C  918  1  0.09660900  0.41362100  0.84810000  1
  C  920  1  0.11803300  0.40745500  0.81123300  1
  C  921  1  0.12678900  0.40234700  0.79199500  1
  C  922  1  0.14034300  0.38544600  0.79070600  1
  C  923  1  0.14803100  0.37680200  0.80884200  1
  C  924  1  0.14065000  0.38280600  0.82819200  1
  C  925  1  0.12427900  0.39693500  0.82923400  1
  C  926  1  0.12160400  0.41422700  0.77472900  1
  C  928  1  0.11366600  0.40064400  0.84767700  1
  C  937  1  0.91304200  0.77444300  0.47111200  1
  C  938  1  0.92061800  0.75705500  0.48185100  1
  C  939  1  0.93476700  0.75973200  0.49806000  1
  C  940  1  0.94249600  0.77946800  0.50194000  1
  C  941  1  0.93661800  0.79654000  0.49028300  1
  C  942  1  0.92057700  0.79431300  0.47590300  1
  C  943  1  0.91359700  0.73747500  0.47610500  1
  C  944  1  0.91163500  0.81142500  0.46626400  1
  C  946  1  0.89759800  0.77202200  0.45589300  1
  C  947  1  0.89159500  0.75208300  0.44954800  1
  C  948  1  0.87721800  0.74987300  0.43343200  1
  C  949  1  0.86683900  0.76724700  0.42616300  1
  C  950  1  0.87173700  0.78707600  0.43306700  1
  C  951  1  0.88802100  0.78953700  0.44716800  1
  C  952  1  0.89997500  0.73499700  0.45973600  1
  C  954  1  0.89514500  0.80912000  0.45280900  1
  C  963  1  0.10070500  0.24466100  0.47199600  1
  C  964  1  0.09779700  0.26157000  0.48541800  1
  C  965  1  0.08344800  0.25992000  0.50155500  1
  C  966  1  0.07049900  0.24272300  0.50229700  1
  C  967  1  0.07187800  0.22677500  0.48794300  1
  C  968  1  0.08804100  0.22703600  0.47362000  1
  C  969  1  0.10887500  0.27972300  0.48177600  1
  C  970  1  0.09217700  0.20993200  0.46116800  1
  C  972  1  0.11586400  0.24558200  0.45641500  1
  C  973  1  0.12568700  0.26446300  0.45198400  1
  C  974  1  0.13902100  0.26566800  0.43490600  1
  C  975  1  0.14571400  0.24745000  0.42562000  1
  C  976  1  0.13742100  0.22828800  0.43107500  1
  C  977  1  0.12100500  0.22767000  0.44518400  1
  C  978  1  0.12173600  0.28147500  0.46467400  1
  C  980  1  0.10926500  0.20979100  0.44819700  1
  C  989  1  0.90591700  0.24166900  0.63317200  1
  C  990  1  0.91003300  0.25886900  0.62045700  1
  C  991  1  0.92430500  0.25693700  0.60427300  1
  C  992  1  0.93604500  0.23893300  0.60286200  1
  C  993  1  0.93368400  0.22267500  0.61672000  1
  C  994  1  0.91745900  0.22336100  0.63095600  1
  C  995  1  0.90015700  0.27755400  0.62481400  1
  C  996  1  0.91209500  0.20607000  0.64265600  1
  C  998  1  0.89072800  0.24294000  0.64869900  1
  C  999  1  0.88225700  0.26225100  0.65394100  1
  C  1000  1  0.86914200  0.26367400  0.67117200  1
  C  1001  1  0.86094300  0.24558800  0.67950500  1
  C  1002  1  0.86766400  0.22610400  0.67301400  1
  C  1003  1  0.88423500  0.22496000  0.65908800  1
  C  1004  1  0.88743300  0.27947300  0.64199300  1
  C  1006  1  0.89480900  0.20648300  0.65537500  1
  C  1015  1  0.10334700  0.76467800  0.63386100  1
  C  1016  1  0.09850100  0.74773900  0.62103800  1
  C  1017  1  0.08428800  0.75034800  0.60487800  1
  C  1018  1  0.07355600  0.76896900  0.60333400  1
  C  1019  1  0.07684400  0.78515000  0.61706600  1
  C  1020  1  0.09274200  0.78354300  0.63157500  1
  C  1021  1  0.10759200  0.72863400  0.62528800  1
  C  1022  1  0.09857200  0.80046300  0.64358000  1
  C  1024  1  0.11830100  0.76262200  0.64955000  1
  C  1025  1  0.12619700  0.74297000  0.65448800  1
  C  1026  1  0.13953200  0.74089000  0.67149100  1
  C  1027  1  0.14787600  0.75858200  0.68045700  1
  C  1028  1  0.14136300  0.77830600  0.67464400  1
  C  1029  1  0.12517600  0.78020100  0.66038500  1
  C  1030  1  0.12040300  0.72609700  0.64232800  1
  C  1032  1  0.11539000  0.79912500  0.65679700  1
  C  1041  1  0.77171700  0.58657300  0.14371600  1
  C  1042  1  0.75458200  0.57566600  0.13581800  1
  C  1043  1  0.75773400  0.55901600  0.12230000  1
  C  1044  1  0.77773500  0.55479100  0.11550300  1
  C  1045  1  0.79462800  0.56656000  0.12165400  1
  C  1046  1  0.79184200  0.58147000  0.13711300  1
  C  1047  1  0.73477300  0.58166100  0.14192400  1
  C  1048  1  0.80864100  0.59130700  0.14641500  1
  C  1050  1  0.76876700  0.60223100  0.15862100  1
  C  1051  1  0.74863900  0.60878400  0.16371800  1
  C  1052  1  0.74595500  0.62524200  0.17762500  1
  C  1053  1  0.76296000  0.63267300  0.18849400  1
  C  1054  1  0.78292500  0.62557200  0.18451200  1
  C  1055  1  0.78594300  0.61111600  0.16864200  1
  C  1056  1  0.73184400  0.59842000  0.15497300  1
  C  1058  1  0.80576300  0.60522300  0.16242300  1
  C  1067  1  0.24134800  0.58681200  0.95534900  1
  C  1068  1  0.25859700  0.57416900  0.95946500  1
  C  1069  1  0.25677200  0.55808400  0.97386100  1
  C  1070  1  0.23881200  0.55670500  0.98567900  1
  C  1071  1  0.22245200  0.57045600  0.98327500  1
  C  1072  1  0.22309800  0.58460200  0.96698000  1
  C  1073  1  0.27722600  0.57853000  0.94947900  1
  C  1074  1  0.20574800  0.59622200  0.96164500  1
  C  1076  1  0.24249800  0.60224000  0.94005200  1
  C  1077  1  0.26174100  0.60746300  0.93141600  1
  C  1078  1  0.26304100  0.62457000  0.91812500  1
  C  1079  1  0.24487600  0.63283200  0.91002200  1
  C  1080  1  0.22545700  0.62636200  0.91694200  1
  C  1081  1  0.22445800  0.61254600  0.93360400  1
  C  1082  1  0.27902200  0.59559500  0.93658100  1
  C  1084  1  0.20605400  0.60888200  0.94431900  1
  C  1093  1  0.24513100  0.42508000  0.15076200  1
  C  1094  1  0.26193900  0.43862500  0.14782500  1
  C  1095  1  0.26011600  0.45480000  0.13353800  1
  C  1096  1  0.24289200  0.45543600  0.12062300  1
  C  1097  1  0.22712100  0.44089900  0.12197900  1
  C  1098  1  0.22745900  0.42657800  0.13814600  1
  C  1099  1  0.28016800  0.43507400  0.15881200  1
  C  1100  1  0.21045900  0.41399200  0.14232300  1
  C  1102  1  0.24622400  0.40945700  0.16586400  1
  C  1103  1  0.26519300  0.40510800  0.17555500  1
  C  1104  1  0.26657800  0.38796300  0.18878100  1
  C  1105  1  0.24848000  0.37851100  0.19553600  1
  C  1106  1  0.22925200  0.38386000  0.18735600  1
  C  1107  1  0.22841500  0.39807600  0.17104300  1
  C  1108  1  0.28211800  0.41788900  0.17153200  1
  C  1110  1  0.21045300  0.40101800  0.15941500  1
  C  1119  1  0.76743200  0.42379800  0.95333100  1
  C  1120  1  0.75026400  0.43635400  0.95808500  1
  C  1121  1  0.75237600  0.45216700  0.97276200  1
  C  1122  1  0.77073100  0.45362600  0.98394900  1
  C  1123  1  0.78711300  0.44012000  0.98071400  1
  C  1124  1  0.78601600  0.42597600  0.96444600  1
  C  1125  1  0.73141500  0.43216800  0.94844700  1
  C  1126  1  0.80316000  0.41421500  0.95877200  1
  C  1128  1  0.76586600  0.40844300  0.93797700  1
  C  1129  1  0.74644500  0.40355400  0.92950200  1
  C  1130  1  0.74480300  0.38684500  0.91574900  1
  C  1131  1  0.76273800  0.37809000  0.90772800  1
  C  1132  1  0.78225600  0.38380500  0.91489800  1
  C  1133  1  0.78367600  0.39782900  0.93134100  1
  C  1134  1  0.72933300  0.41543100  0.93516900  1
  C  1136  1  0.80232600  0.40133000  0.94166300  1
  C  1145  1  0.58748500  0.91216100  0.28134700  1
  C  1146  1  0.57692600  0.92010000  0.29867700  1
  C  1147  1  0.56056300  0.93404900  0.29584100  1
  C  1148  1  0.55658500  0.94148900  0.27600700  1
  C  1149  1  0.56813600  0.93528000  0.25897100  1
  C  1150  1  0.58243100  0.91920100  0.26137100  1
  C  1151  1  0.58306200  0.91367100  0.31834100  1
  C  1152  1  0.59176400  0.90978700  0.24435100  1
  C  1154  1  0.60282400  0.89686700  0.28393700  1
  C  1155  1  0.60971600  0.89162500  0.30390200  1
  C  1156  1  0.62619200  0.87764900  0.30618900  1
  C  1157  1  0.63289900  0.86649200  0.28903100  1
  C  1158  1  0.62516700  0.87039000  0.26925900  1
  C  1159  1  0.61113300  0.88669900  0.26656700  1
  C  1160  1  0.59972900  0.90041300  0.32091200  1
  C  1162  1  0.60511300  0.89325100  0.24688800  1
  C  1171  1  0.58637600  0.10081400  0.81496900  1
  C  1172  1  0.57253800  0.09684600  0.79863100  1
  C  1173  1  0.55616100  0.08298200  0.80174100  1
  C  1174  1  0.55549300  0.07157000  0.82002500  1
  C  1175  1  0.57041600  0.07368000  0.83535900  1
  C  1176  1  0.58497600  0.08949300  0.83349000  1
  C  1177  1  0.57602800  0.10646100  0.77961900  1
  C  1178  1  0.59792700  0.09453900  0.84995600  1
  C  1180  1  0.60219000  0.11557800  0.81260700  1
  C  1181  1  0.60632900  0.12399800  0.79299200  1
  C  1182  1  0.62346200  0.13711000  0.79053300  1
  C  1183  1  0.63317500  0.14494800  0.80806900  1
  C  1184  1  0.62810000  0.13798600  0.82784800  1
  C  1185  1  0.61389300  0.12177800  0.82986700  1
  C  1186  1  0.59323000  0.11896200  0.77658600  1
  C  1188  1  0.61117000  0.11134400  0.84858600  1
  C  1197  1  0.42383900  0.90679600  0.81582600  1
  C  1198  1  0.43724400  0.91054600  0.79907000  1
  C  1199  1  0.45304400  0.92522800  0.80118700  1
  C  1200  1  0.45347500  0.93761900  0.81881200  1
  C  1201  1  0.43902400  0.93545700  0.83456900  1
  C  1202  1  0.42508600  0.91898200  0.83380400  1
  C  1203  1  0.43390100  0.89991800  0.78058200  1
  C  1204  1  0.41261400  0.91413000  0.85070500  1
  C  1206  1  0.40856800  0.89135900  0.81438500  1
  C  1207  1  0.40444300  0.88199900  0.79520200  1
  C  1208  1  0.38763800  0.86837400  0.79351000  1
  C  1209  1  0.37832200  0.86101800  0.81144800  1
  C  1210  1  0.38344000  0.86891500  0.83086200  1
  C  1211  1  0.39728700  0.88552700  0.83205800  1
  C  1212  1  0.41709700  0.88674400  0.77837200  1
  C  1214  1  0.39997800  0.89680300  0.85028600  1
  C  1223  1  0.42295200  0.10280500  0.29186500  1
  C  1224  1  0.43554100  0.09860900  0.30915100  1
  C  1225  1  0.45156500  0.08413100  0.30735000  1
  C  1226  1  0.45309300  0.07243900  0.28932200  1
  C  1227  1  0.43957500  0.07514700  0.27285400  1
  C  1228  1  0.42530700  0.09133100  0.27352200  1
  C  1229  1  0.43118800  0.10857900  0.32778500  1
  C  1230  1  0.41360900  0.09659000  0.25620200  1
  C  1232  1  0.40743800  0.11802200  0.29306400  1
  C  1233  1  0.40233000  0.12678200  0.31230000  1
  C  1234  1  0.38542600  0.14033500  0.31358500  1
  C  1235  1  0.37678400  0.14801800  0.29544500  1
  C  1236  1  0.38279100  0.14063500  0.27609900  1
  C  1237  1  0.39692000  0.12426400  0.27506100  1
  C  1238  1  0.41420900  0.12160200  0.32956600  1
  C  1240  1  0.40063000  0.11364700  0.25662100  1
  C  1249  1  0.20011500  0.15758400  0.40686500  1
  C  1251  1  0.17803300  0.17803000  0.42830100  1
  C  1252  1  0.16970800  0.18785600  0.41080400  1
  C  1254  1  0.19125300  0.16683800  0.38935500  1
  C  1255  1  0.19693800  0.16233400  0.36940900  1
  C  1256  1  0.17291700  0.18279100  0.44828600  1
  C  1263  1  0.21716300  0.14486800  0.40626600  1
  C  1265  1  0.15759900  0.20532200  0.41067600  1
  C  1267  1  0.80526400  0.85405900  0.40706100  1
  C  1269  1  0.82564700  0.83293600  0.42945900  1
  C  1270  1  0.83578600  0.82417900  0.41238500  1
  C  1272  1  0.81567000  0.84560100  0.39000700  1
  C  1273  1  0.81171100  0.85098600  0.36987800  1
  C  1274  1  0.82905600  0.82726200  0.44954100  1
  C  1281  1  0.78845900  0.86698200  0.40556800  1
  C  1283  1  0.84917000  0.80771000  0.41272600  1
  C  1285  1  0.80287600  0.15522800  0.69254400  1
  C  1287  1  0.82357900  0.17815500  0.67224700  1
  C  1288  1  0.83256900  0.18638600  0.69021300  1
  C  1290  1  0.81238000  0.16300800  0.71045300  1
  C  1291  1  0.80774600  0.15646700  0.73009700  1
  C  1292  1  0.82763600  0.18519200  0.65268700  1
  C  1299  1  0.78596100  0.14227800  0.69277300  1
  C  1301  1  0.84464200  0.20382700  0.69130600  1
  C  1303  1  0.20638400  0.84711800  0.69847000  1
  C  1305  1  0.18424800  0.82662600  0.67717300  1
  C  1306  1  0.17593600  0.81691800  0.69472900  1
  C  1308  1  0.19760400  0.83790600  0.71604500  1
  C  1309  1  0.20333000  0.84256800  0.73593300  1
  C  1310  1  0.17908400  0.82179800  0.65722900  1
  C  1317  1  0.22334000  0.85993900  0.69893900  1
  C  1319  1  0.16337100  0.79980100  0.69489900  1
  C  1321  1  0.35938500  0.20498900  0.20671200  1
  C  1323  1  0.38044800  0.18189900  0.22639700  1
  C  1324  1  0.36285500  0.17392900  0.23634600  1
  C  1326  1  0.34175400  0.19650900  0.21608000  1
  C  1327  1  0.32193100  0.20285800  0.21195400  1
  C  1328  1  0.40034100  0.17603500  0.23063100  1
  C  1335  1  0.35913700  0.22218300  0.19420800  1
  C  1337  1  0.36256500  0.16129200  0.25342500  1
  C  1339  1  0.35829700  0.80596500  0.90109300  1
  C  1341  1  0.38003600  0.82777000  0.88068000  1
  C  1342  1  0.36268700  0.83596300  0.87050200  1
  C  1344  1  0.34092700  0.81461400  0.89138900  1
  C  1345  1  0.32094200  0.80893100  0.89564500  1
  C  1346  1  0.40008500  0.83281200  0.87613300  1
  C  1353  1  0.35756600  0.78920700  0.91416500  1
  C  1355  1  0.36285800  0.84802200  0.85302200  1
  C  1357  1  0.64447400  0.80311400  0.20071800  1
  C  1359  1  0.62431300  0.82267200  0.22469600  1
  C  1360  1  0.64216900  0.83254500  0.23207600  1
  C  1362  1  0.66226500  0.81337600  0.20777000  1
  C  1363  1  0.68177200  0.80975100  0.20025500  1
  C  1364  1  0.60496200  0.82579100  0.23266800  1
  C  1371  1  0.64488800  0.78641000  0.18752900  1
  C  1373  1  0.64331300  0.84545300  0.24887800  1
  C  1375  1  0.65192200  0.20270900  0.89688700  1
  C  1377  1  0.63065700  0.18092600  0.87598500  1
  C  1378  1  0.64824500  0.17254800  0.86639300  1
  C  1380  1  0.66951900  0.19385900  0.88777100  1
  C  1381  1  0.68940500  0.19941700  0.89265100  1
  C  1382  1  0.61072700  0.17604700  0.87080600  1
  C  1389  1  0.65238700  0.21964200  0.90974600  1
  C  1391  1  0.64840100  0.16027800  0.84907500  1
  C  1393  1  0.16080600  0.35833900  0.25166300  1
  C  1395  1  0.17879500  0.37980800  0.22755700  1
  C  1396  1  0.18952700  0.36257100  0.21981100  1
  C  1398  1  0.17088600  0.34101400  0.24337900  1
  C  1399  1  0.16792700  0.32116700  0.25027700  1
  C  1400  1  0.18170800  0.39973200  0.22099800  1
  C  1407  1  0.14853600  0.35784700  0.26902500  1
  C  1409  1  0.20648400  0.36280900  0.20697000  1
  C  1411  1  0.85184600  0.35849900  0.85132000  1
  C  1413  1  0.83186200  0.38024000  0.87350600  1
  C  1414  1  0.82150600  0.36292800  0.88155300  1
  C  1416  1  0.84195200  0.34115500  0.85979300  1
  C  1417  1  0.84592400  0.32119000  0.85384800  1
  C  1418  1  0.82769500  0.40028600  0.87885700  1
  C  1425  1  0.86487800  0.35781900  0.83454000  1
  C  1427  1  0.80426500  0.36313300  0.89394900  1
  C  1429  1  0.15408400  0.64492700  0.85253300  1
  C  1431  1  0.17739000  0.62499600  0.87315500  1
  C  1432  1  0.18544500  0.64310100  0.88202600  1
  C  1434  1  0.16167600  0.66297000  0.86193400  1
  C  1435  1  0.15485900  0.68251100  0.85725900  1
  C  1436  1  0.18471400  0.60553800  0.87720100  1
  C  1443  1  0.14114600  0.64492300  0.83561500  1
  C  1445  1  0.20295100  0.64443400  0.89396500  1
  C  1447  1  0.84771800  0.65046700  0.25342700  1
  C  1449  1  0.82690700  0.62852400  0.23226700  1
  C  1450  1  0.81875100  0.64579200  0.22195700  1
  C  1452  1  0.83989800  0.66771400  0.24284000  1
  C  1453  1  0.84558200  0.68771500  0.24704400  1
  C  1454  1  0.82103400  0.60855200  0.22857600  1
  C  1461  1  0.86016700  0.65165300  0.27060600  1
  C  1463  1  0.80276000  0.64574600  0.20801300  1
  C  1465  1  0.15759100  0.20012900  0.69743900  1
  C  1467  1  0.17803600  0.17804700  0.67600000  1
  C  1468  1  0.18786300  0.16972100  0.69349700  1
  C  1470  1  0.16684900  0.19126700  0.71495000  1
  C  1471  1  0.16234500  0.19695200  0.73489500  1
  C  1472  1  0.18279500  0.17293100  0.65601700  1
  C  1479  1  0.14487600  0.21717600  0.69803900  1
  C  1481  1  0.20532800  0.15761100  0.69362400  1
  C  1483  1  0.85406200  0.80526800  0.69723300  1
  C  1485  1  0.83293900  0.82565000  0.67483500  1
  C  1486  1  0.82418100  0.83579100  0.69190700  1
  C  1488  1  0.84560500  0.81567300  0.71428500  1
  C  1489  1  0.85098900  0.81171500  0.73441500  1
  C  1490  1  0.82726300  0.82905900  0.65475200  1
  C  1497  1  0.86698700  0.78846300  0.69872500  1
  C  1499  1  0.80771400  0.84917300  0.69156800  1
  C  1501  1  0.15523700  0.80287900  0.41176000  1
  C  1503  1  0.17816100  0.82358000  0.43206000  1
  C  1504  1  0.18639600  0.83257200  0.41409600  1
  C  1506  1  0.16301800  0.81238300  0.39385300  1
  C  1507  1  0.15648100  0.80775000  0.37420700  1
  C  1508  1  0.18519700  0.82763700  0.45162200  1
  C  1515  1  0.14228700  0.78596400  0.41152800  1
  C  1517  1  0.20383600  0.84464500  0.41300400  1
  C  1519  1  0.84710900  0.20638500  0.40581700  1
  C  1521  1  0.82661700  0.18424800  0.42711600  1
  C  1522  1  0.81691000  0.17593300  0.40955800  1
  C  1524  1  0.83789900  0.19760200  0.38824300  1
  C  1525  1  0.84256200  0.20332700  0.36835400  1
  C  1526  1  0.82178700  0.17908400  0.44705800  1
  C  1533  1  0.85992600  0.22334300  0.40535000  1
  C  1535  1  0.79979700  0.16336600  0.40938700  1
  C  1537  1  0.20500100  0.35939200  0.89757800  1
  C  1539  1  0.18191300  0.38045700  0.87789400  1
  C  1540  1  0.17394500  0.36286600  0.86794200  1
  C  1542  1  0.19652200  0.34176100  0.88820800  1
  C  1543  1  0.20287200  0.32193800  0.89233000  1
  C  1544  1  0.17604900  0.40035100  0.87366200  1
  C  1551  1  0.22219200  0.35914300  0.91008700  1
  C  1553  1  0.16130900  0.36257700  0.85086000  1
  C  1555  1  0.80596600  0.35829400  0.20319400  1
  C  1557  1  0.82777200  0.38003600  0.22360500  1
  C  1558  1  0.83596600  0.36268700  0.23378400  1
  C  1560  1  0.81461900  0.34092600  0.21289800  1
  C  1561  1  0.80893700  0.32093900  0.20864300  1
  C  1562  1  0.83281200  0.40008300  0.22815100  1
  C  1569  1  0.78921000  0.35756100  0.19012200  1
  C  1571  1  0.84802700  0.36286000  0.25126400  1
  C  1573  1  0.80312500  0.64447200  0.90357800  1
  C  1575  1  0.82268200  0.62431300  0.87959900  1
  C  1576  1  0.83255600  0.64216900  0.87221800  1
  C  1578  1  0.81338600  0.66226500  0.89652600  1
  C  1579  1  0.80976300  0.68177100  0.90404400  1
  C  1580  1  0.82580100  0.60496400  0.87162600  1
  C  1587  1  0.78642100  0.64488600  0.91676600  1
  C  1589  1  0.84546400  0.64331500  0.85541700  1
  C  1591  1  0.20270500  0.65192500  0.20740700  1
  C  1593  1  0.18092600  0.63065500  0.22830500  1
  C  1594  1  0.17254300  0.64824000  0.23789700  1
  C  1596  1  0.19385200  0.66951900  0.21652300  1
  C  1597  1  0.19940800  0.68940600  0.21164400  1
  C  1598  1  0.17604900  0.61072400  0.23348300  1
  C  1605  1  0.21963900  0.65239400  0.19454700  1
  C  1607  1  0.16027300  0.64839500  0.25521600  1
  C  1609  1  0.35833700  0.16081000  0.85263200  1
  C  1611  1  0.37980700  0.17879800  0.87673800  1
  C  1612  1  0.36257000  0.18953000  0.88448500  1
  C  1614  1  0.34101300  0.17088900  0.86091600  1
  C  1615  1  0.32116700  0.16792900  0.85401800  1
  C  1616  1  0.39973000  0.18171100  0.88329700  1
  C  1623  1  0.35784700  0.14854000  0.83527000  1
  C  1625  1  0.36280900  0.20648600  0.89732600  1
  C  1627  1  0.35853300  0.85181800  0.25300400  1
  C  1629  1  0.38026200  0.83186500  0.23078000  1
  C  1630  1  0.36294700  0.82152300  0.22272400  1
  C  1632  1  0.34118400  0.84194200  0.24452200  1
  C  1633  1  0.32122200  0.84590200  0.25048500  1
  C  1634  1  0.40030600  0.82770300  0.22541700  1
  C  1641  1  0.35786700  0.86480100  0.26981800  1
  C  1643  1  0.36314200  0.80429500  0.21030900  1
  C  1645  1  0.64493200  0.15408400  0.25175700  1
  C  1647  1  0.62500100  0.17739000  0.23113600  1
  C  1648  1  0.64310700  0.18544700  0.22226600  1
  C  1650  1  0.66297600  0.16167700  0.24235900  1
  C  1651  1  0.68251600  0.15486000  0.24703500  1
  C  1652  1  0.60554400  0.18471200  0.22708600  1
  C  1659  1  0.64492600  0.14114600  0.26867500  1
  C  1661  1  0.64444000  0.20295300  0.21032700  1
  C  1663  1  0.65047200  0.84772300  0.85087000  1
  C  1665  1  0.62852900  0.82691000  0.87202900  1
  C  1666  1  0.64579700  0.81875400  0.88233800  1
  C  1668  1  0.66771800  0.83990300  0.86145600  1
  C  1669  1  0.68772000  0.84558800  0.85725300  1
  C  1670  1  0.60855800  0.82103400  0.87572100  1
  C  1677  1  0.65165600  0.86017200  0.83369200  1
  C  1679  1  0.64575400  0.80276200  0.89628200  1
  C  1681  1  0.68553400  0.67104700  0.92173900  1
  C  1683  1  0.66512900  0.68787600  0.94747400  1
  C  1684  1  0.65688400  0.70126100  0.93256100  1
  C  1686  1  0.67676800  0.68395800  0.90666400  1
  C  1687  1  0.68168700  0.68294700  0.88604300  1
  C  1688  1  0.66082300  0.68905800  0.96814300  1
  C  1695  1  0.70165000  0.65761300  0.91828100  1
  C  1697  1  0.64489500  0.71811900  0.93727600  1
  C  1699  1  0.32563200  0.33941100  0.90985400  1
  C  1701  1  0.35020300  0.32642100  0.93413800  1
  C  1702  1  0.35742700  0.31208300  0.91957300  1
  C  1704  1  0.33342300  0.32566700  0.89497400  1
  C  1705  1  0.32590800  0.32431800  0.87518600  1
  C  1706  1  0.35685400  0.32742300  0.95419100  1
  C  1713  1  0.30818700  0.35135500  0.90746700  1
  C  1715  1  0.37040100  0.29605000  0.92453000  1
  C  1717  1  0.32301200  0.67321900  0.19368000  1
  C  1719  1  0.34749800  0.68617100  0.16929300  1
  C  1720  1  0.35496400  0.70031500  0.18390900  1
  C  1722  1  0.33106800  0.68675600  0.20860700  1
  C  1723  1  0.32377900  0.68796600  0.22848900  1
  C  1724  1  0.35408500  0.68524300  0.14920100  1
  C  1731  1  0.30553400  0.66134900  0.19618300  1
  C  1733  1  0.36801200  0.71628300  0.17897800  1
  C  1735  1  0.68672100  0.33700600  0.18682600  1
  C  1737  1  0.66370300  0.32058300  0.16313400  1
  C  1738  1  0.65629600  0.30759000  0.17884500  1
  C  1740  1  0.67874200  0.32458400  0.20275400  1
  C  1741  1  0.68530500  0.32574200  0.22289400  1
  C  1742  1  0.65771200  0.31938600  0.14288300  1
  C  1749  1  0.70348500  0.34999100  0.18877800  1
  C  1751  1  0.64344600  0.29106600  0.17522500  1
  C  1753  1  0.87604500  0.68745300  0.72334300  1
  C  1755  1  0.90094900  0.66757000  0.74194100  1
  C  1756  1  0.88532500  0.65889300  0.75422900  1
  C  1758  1  0.86030900  0.67826100  0.73514700  1
  C  1759  1  0.83969300  0.68263700  0.73265600  1
  C  1760  1  0.92158200  0.66368700  0.74450700  1
  C  1767  1  0.87310400  0.70349400  0.70966000  1
  C  1769  1  0.88912600  0.64661500  0.77115400  1
  C  1771  1  0.86207000  0.32634500  0.38452600  1
  C  1773  1  0.88660100  0.35046000  0.37116100  1
  C  1774  1  0.87217400  0.35749200  0.35659600  1
  C  1776  1  0.84732100  0.33397400  0.37054600  1
  C  1777  1  0.82747800  0.32659900  0.36924100  1
  C  1778  1  0.90667100  0.35704800  0.37215900  1
  C  1785  1  0.85944200  0.30916300  0.39680500  1
  C  1787  1  0.87729700  0.37008800  0.34031500  1
  C  1789  1  0.14528500  0.32069200  0.71987600  1
  C  1791  1  0.12115400  0.34570200  0.73231200  1
  C  1792  1  0.13574400  0.35310900  0.74651500  1
  C  1794  1  0.16019400  0.32866200  0.73348500  1
  C  1795  1  0.17994700  0.32108300  0.73496300  1
  C  1796  1  0.10117400  0.35258000  0.73110400  1
  C  1803  1  0.14764400  0.30308400  0.70816300  1
  C  1805  1  0.13085900  0.36643400  0.76227100  1
  C  1807  1  0.14138700  0.68349700  0.38866400  1
  C  1809  1  0.11701600  0.65980800  0.37425600  1
  C  1810  1  0.13185400  0.65264100  0.36016400  1
  C  1812  1  0.15651600  0.67573400  0.37517100  1
  C  1813  1  0.17653000  0.68276500  0.37474900  1
  C  1814  1  0.09683600  0.65348300  0.37452500  1
  C  1821  1  0.14388500  0.70049400  0.40124300  1
  C  1823  1  0.12720600  0.63999700  0.34373500  1
  C  1825  1  0.67607900  0.86920000  0.73206700  1
  C  1827  1  0.69163900  0.89566500  0.71158800  1
  C  1828  1  0.70533000  0.88127500  0.70293200  1
  C  1830  1  0.68924900  0.85462900  0.72284900  1
  C  1831  1  0.68898900  0.83393500  0.72755200  1
  C  1832  1  0.69207500  0.91640600  0.70749100  1
  C  1839  1  0.66314400  0.86517900  0.74845700  1
  C  1841  1  0.72187300  0.88667700  0.69081200  1
  C  1843  1  0.33860700  0.86879600  0.37212500  1
  C  1845  1  0.32155000  0.89250100  0.39466500  1
  C  1846  1  0.30860800  0.87671200  0.40200300  1
  C  1848  1  0.32620700  0.85280900  0.38002500  1
  C  1849  1  0.32757900  0.83264100  0.37361000  1
  C  1850  1  0.32001800  0.91279500  0.40043500  1
  C  1857  1  0.35175100  0.86686000  0.35548800  1
  C  1859  1  0.29186900  0.88023400  0.41460000  1
  C  1861  1  0.66703400  0.14246300  0.37114300  1
  C  1863  1  0.68197700  0.11833700  0.39473900  1
  C  1864  1  0.69573400  0.13346200  0.40193000  1
  C  1866  1  0.68022300  0.15785200  0.37891000  1
  C  1867  1  0.68027800  0.17786800  0.37189300  1
  C  1868  1  0.68216900  0.09812500  0.40102300  1
  C  1875  1  0.65446600  0.14467600  0.35411200  1
  C  1877  1  0.71221700  0.12912400  0.41457100  1
  C  1879  1  0.33852500  0.14585000  0.73165400  1
  C  1881  1  0.32563000  0.12111300  0.70748800  1
  C  1882  1  0.31128800  0.13552400  0.69996200  1
  C  1884  1  0.32482200  0.16058300  0.72351400  1
  C  1885  1  0.32356300  0.18054900  0.73057700  1
  C  1886  1  0.32673000  0.10096000  0.70115800  1
  C  1893  1  0.35048600  0.14864500  0.74903600  1
  C  1895  1  0.29538400  0.13035800  0.68688100  1
  C  1897  1  0.67104800  0.68552500  0.18254900  1
  C  1899  1  0.68787700  0.66512000  0.15681500  1
  C  1900  1  0.70126200  0.65687400  0.17172800  1
  C  1902  1  0.68395800  0.67675800  0.19762400  1
  C  1903  1  0.68294700  0.68167600  0.21824600  1
  C  1904  1  0.68906100  0.66081400  0.13614500  1
  C  1911  1  0.65761400  0.70164100  0.18600600  1
  C  1913  1  0.71812000  0.64488600  0.16701200  1
  C  1915  1  0.33940300  0.32562200  0.19444200  1
  C  1917  1  0.32641700  0.35019600  0.17015900  1
  C  1918  1  0.31207900  0.35742100  0.18472300  1
  C  1920  1  0.32565900  0.33341700  0.20932200  1
  C  1921  1  0.32430900  0.32590200  0.22911200  1
  C  1922  1  0.32741900  0.35684600  0.15010600  1
  C  1929  1  0.35134600  0.30817800  0.19683100  1
  C  1931  1  0.29604500  0.37039600  0.17976600  1
  C  1933  1  0.67319400  0.32301700  0.91059200  1
  C  1935  1  0.68614500  0.34751100  0.93497300  1
  C  1936  1  0.70028900  0.35497200  0.92035700  1
  C  1938  1  0.68673300  0.33106800  0.89566500  1
  C  1939  1  0.68794600  0.32377300  0.87578500  1
  C  1940  1  0.68521500  0.35410300  0.95506300  1
  C  1947  1  0.66132400  0.30553700  0.90809300  1
  C  1949  1  0.71625900  0.36801800  0.92528500  1
  C  1951  1  0.33700500  0.68672000  0.91746400  1
  C  1953  1  0.32058000  0.66370400  0.94115800  1
  C  1954  1  0.30758800  0.65629600  0.92544600  1
  C  1956  1  0.32458400  0.67874000  0.90153600  1
  C  1957  1  0.32574200  0.68530100  0.88139700  1
  C  1958  1  0.31938300  0.65771500  0.96140800  1
  C  1965  1  0.34999100  0.70348200  0.91551000  1
  C  1967  1  0.29106400  0.64344600  0.92906600  1
  C  1969  1  0.68744800  0.87604300  0.38094900  1
  C  1971  1  0.66756400  0.90094800  0.36235300  1
  C  1972  1  0.65888700  0.88532400  0.35006400  1
  C  1974  1  0.67825600  0.86030800  0.36914500  1
  C  1975  1  0.68263500  0.83969200  0.37163500  1
  C  1976  1  0.66367800  0.92157900  0.35978800  1
  C  1983  1  0.70348900  0.87310300  0.39463200  1
  C  1985  1  0.64660900  0.88912400  0.33313900  1
  C  1987  1  0.32634000  0.86208200  0.71975600  1
  C  1989  1  0.35045900  0.88661000  0.73312600  1
  C  1990  1  0.35748900  0.87217900  0.74768900  1
  C  1992  1  0.33397000  0.84733200  0.73373200  1
  C  1993  1  0.32659200  0.82748800  0.73503200  1
  C  1994  1  0.35704800  0.90667900  0.73213300  1
  C  2001  1  0.30916000  0.85945800  0.70747400  1
  C  2003  1  0.37008400  0.87729900  0.76397100  1
  C  2005  1  0.32067700  0.14528000  0.38441900  1
  C  2007  1  0.34568400  0.12114900  0.37198000  1
  C  2008  1  0.35309000  0.13573900  0.35777600  1
  C  2010  1  0.32864500  0.16018800  0.37081000  1
  C  2011  1  0.32106800  0.17994200  0.36933100  1
  C  2012  1  0.35256300  0.10116800  0.37318800  1
  C  2019  1  0.30307000  0.14764000  0.39613500  1
  C  2021  1  0.36641400  0.13085300  0.34201900  1
  C  2023  1  0.68349100  0.14138300  0.71563100  1
  C  2025  1  0.65980000  0.11701300  0.73003600  1
  C  2026  1  0.65263200  0.13185100  0.74412700  1
  C  2028  1  0.67572800  0.15651100  0.72912100  1
  C  2029  1  0.68276000  0.17652500  0.72954400  1
  C  2030  1  0.65347300  0.09683300  0.72976700  1
  C  2037  1  0.70049100  0.14388000  0.70305400  1
  C  2039  1  0.63998600  0.12720300  0.76055600  1
  C  2041  1  0.86920200  0.67607300  0.37222900  1
  C  2043  1  0.89566600  0.69163500  0.39270900  1
  C  2044  1  0.88127500  0.70532700  0.40136200  1
  C  2046  1  0.85463000  0.68924300  0.38144600  1
  C  2047  1  0.83393600  0.68898300  0.37674100  1
  C  2048  1  0.91640600  0.69207200  0.39680500  1
  C  2055  1  0.86518000  0.66313600  0.35584000  1
  C  2057  1  0.88667700  0.72187200  0.41348200  1
  C  2059  1  0.86880000  0.33858600  0.73221400  1
  C  2061  1  0.89250400  0.32153000  0.70967200  1
  C  2062  1  0.87671200  0.30859500  0.70232700  1
  C  2064  1  0.85281100  0.32619200  0.72430800  1
  C  2065  1  0.83264300  0.32756700  0.73072200  1
  C  2066  1  0.91279800  0.31999500  0.70390600  1
  C  2073  1  0.86686500  0.35172300  0.74885700  1
  C  2075  1  0.88023300  0.29186000  0.68972600  1
  C  2077  1  0.14247300  0.66704300  0.73314900  1
  C  2079  1  0.11834600  0.68198600  0.70955200  1
  C  2080  1  0.13347100  0.69574200  0.70235900  1
  C  2082  1  0.15786200  0.68023300  0.72537900  1
  C  2083  1  0.17787900  0.68028900  0.73239700  1
  C  2084  1  0.09813400  0.68217700  0.70326800  1
  C  2091  1  0.14468600  0.65447700  0.75018000  1
  C  2093  1  0.12913200  0.71222300  0.68971900  1
  C  2095  1  0.14585400  0.33852300  0.37264300  1
  C  2097  1  0.12111900  0.32562700  0.39680800  1
  C  2098  1  0.13553000  0.31128600  0.40433600  1
  C  2100  1  0.16058800  0.32482100  0.38078300  1
  C  2101  1  0.18055300  0.32356200  0.37371800  1
  C  2102  1  0.10096500  0.32672800  0.40314000  1
  C  2109  1  0.14864800  0.35048300  0.35525900  1
  C  2111  1  0.13036400  0.29538200  0.41741500  1
  C  2113  1  0.21518900  0.02120800  0.47809100  1
  C  2115  1  0.21271800  0.99517200  0.50411400  1
  C  2116  1  0.20183900  0.98222900  0.49050600  1
  C  2118  1  0.20345400  0.00860700  0.46485400  1
  C  2119  1  0.19919100  0.01353700  0.44472700  1
  C  2120  1  0.21962800  0.98906100  0.52316800  1
  C  2127  1  0.22560800  0.03871900  0.47188000  1
  C  2129  1  0.20011500  0.96141600  0.49409400  1
  C  2131  1  0.79997400  0.99093700  0.47861300  1
  C  2133  1  0.80264700  0.01659100  0.50503200  1
  C  2134  1  0.81105900  0.03066200  0.49081700  1
  C  2136  1  0.80970700  0.00457200  0.46480200  1
  C  2137  1  0.81242100  0.00052300  0.44423100  1
  C  2138  1  0.79675100  0.02181000  0.52469400  1
  C  2145  1  0.78978800  0.97319900  0.47271600  1
  C  2147  1  0.81036100  0.05155200  0.49426900  1
  C  2149  1  0.78322400  0.01341100  0.62395300  1
  C  2151  1  0.80005500  0.99353800  0.59794800  1
  C  2152  1  0.80832900  0.98053500  0.61312000  1
  C  2154  1  0.79149700  0.00024900  0.63913100  1
  C  2155  1  0.78796100  0.00247900  0.65992700  1
  C  2156  1  0.80296200  0.99031500  0.57725600  1
  C  2163  1  0.76886300  0.02840600  0.62808600  1
  C  2165  1  0.82050000  0.96372100  0.60906500  1
  C  2167  1  0.21770500  0.98358000  0.62623300  1
  C  2169  1  0.21509400  0.00890200  0.59936300  1
  C  2170  1  0.20591300  0.02283600  0.61327000  1
  C  2172  1  0.20751100  0.99718400  0.63976200  1
  C  2173  1  0.20368900  0.99279900  0.66015800  1
  C  2174  1  0.22105800  0.01376200  0.57963400  1
  C  2181  1  0.22816300  0.96608200  0.63241800  1
  C  2183  1  0.20502100  0.04365800  0.60941900  1
  C  2185  1  0.43089600  0.21844900  0.07075000  1
  C  2187  1  0.45788300  0.21469600  0.04571700  1
  C  2188  1  0.44371600  0.20638000  0.03149300  1
  C  2190  1  0.41703300  0.20910500  0.05688200  1
  C  2191  1  0.39640200  0.20630700  0.06094500  1
  C  2192  1  0.47794900  0.21962600  0.04114600  1
  C  2199  1  0.42501400  0.22890100  0.08834500  1
  C  2201  1  0.44775600  0.20555000  0.01068700  1
  C  2203  1  0.43035100  0.79982000  0.03741600  1
  C  2205  1  0.45710400  0.80330500  0.06261300  1
  C  2206  1  0.44302100  0.81188800  0.07671100  1
  C  2208  1  0.41663800  0.80970100  0.05104400  1
  C  2209  1  0.39598700  0.81213700  0.04723200  1
  C  2210  1  0.47690100  0.79773300  0.06766400  1
  C  2217  1  0.42433100  0.78931700  0.01990600  1
  C  2219  1  0.44680100  0.81170500  0.09755900  1
  C  2221  1  0.57528300  0.78411300  0.05965800  1
  C  2223  1  0.54930300  0.79963300  0.03868900  1
  C  2224  1  0.56457700  0.80812700  0.02594100  1
  C  2226  1  0.59055600  0.79269100  0.04680700  1
  C  2227  1  0.61138800  0.78994300  0.04971300  1
  C  2228  1  0.52860700  0.80170600  0.03482000  1
  C  2235  1  0.57945700  0.77006400  0.07493700  1
  C  2237  1  0.56068000  0.81958200  0.00859800  1
  C  2239  1  0.58024200  0.21535400  0.03341300  1
  C  2241  1  0.55418900  0.21240800  0.05937100  1
  C  2242  1  0.56797200  0.20179400  0.07233900  1
  C  2244  1  0.59367900  0.20393000  0.04608600  1
  C  2245  1  0.61382300  0.19995200  0.04111200  1
  C  2246  1  0.53500900  0.21899400  0.06544500  1
  C  2253  1  0.58636300  0.22604500  0.01603200  1
  C  2255  1  0.56435500  0.19996700  0.09313500  1
  C  2257  1  0.02382100  0.42547400  0.26142900  1
  C  2259  1  0.00058200  0.45276700  0.25284800  1
  C  2260  1  0.98483500  0.43844000  0.24865700  1
  C  2262  1  0.00860800  0.41109000  0.25572700  1
  C  2263  1  0.01072200  0.39015200  0.25801700  1
  C  2264  1  0.99782800  0.47358600  0.25338300  1
  C  2271  1  0.04159700  0.42045500  0.27191200  1
  C  2273  1  0.96431800  0.44394700  0.24804900  1
  C  2275  1  0.98840900  0.43096500  0.84632400  1
  C  2277  1  0.01382200  0.45771800  0.84867800  1
  C  2278  1  0.02827200  0.44350400  0.85647500  1
  C  2280  1  0.00246400  0.41716800  0.85542600  1
  C  2281  1  0.99869900  0.39652300  0.85794500  1
  C  2282  1  0.01840100  0.47773500  0.84328100  1
  C  2289  1  0.97049500  0.42510100  0.83645100  1
  C  2291  1  0.04912300  0.44718900  0.85562300  1
  C  2293  1  0.01161100  0.57747300  0.83090500  1
  C  2295  1  0.99393500  0.55275900  0.85162900  1
  C  2296  1  0.97913300  0.56756500  0.85697300  1
  C  2298  1  0.99680700  0.59239600  0.83647800  1
  C  2299  1  0.99719400  0.61256400  0.82990700  1
  C  2300  1  0.99285400  0.53274700  0.85820300  1
  C  2307  1  0.02669700  0.58088200  0.81639700  1
  C  2309  1  0.96237400  0.56366800  0.86931000  1
  C  2311  1  0.98531700  0.58383500  0.26248900  1
  C  2313  1  0.00854600  0.55674700  0.25329100  1
  C  2314  1  0.02403800  0.57121100  0.24867200  1
  C  2316  1  0.00026300  0.59834800  0.25639300  1
  C  2317  1  0.99799600  0.61925100  0.25872400  1
  C  2318  1  0.01148700  0.53595300  0.25364100  1
  C  2325  1  0.96775200  0.58870600  0.27340000  1
  C  2327  1  0.04456600  0.56586900  0.24743600  1
  C  2329  1  0.02120700  0.21519200  0.62622400  1
  C  2331  1  0.99517100  0.21271800  0.60020100  1
  C  2332  1  0.98222600  0.20184200  0.61381100  1
  C  2334  1  0.00860400  0.20346000  0.63946400  1
  C  2335  1  0.01353300  0.19920200  0.65959200  1
  C  2336  1  0.98906100  0.21962500  0.58114700  1
  C  2343  1  0.03871900  0.22560900  0.63243500  1
  C  2345  1  0.96141400  0.20012000  0.61022300  1
  C  2347  1  0.99093800  0.79997600  0.62567700  1
  C  2349  1  0.01659200  0.80264900  0.59925900  1
  C  2350  1  0.03066400  0.81106200  0.61347200  1
  C  2352  1  0.00457400  0.80971000  0.63948800  1
  C  2353  1  0.00052600  0.81242400  0.66006000  1
  C  2354  1  0.02181100  0.79675100  0.57959600  1
  C  2361  1  0.97320000  0.78979100  0.63157500  1
  C  2363  1  0.05155300  0.81036200  0.61002000  1
  C  2365  1  0.01341200  0.78322400  0.48033900  1
  C  2367  1  0.99353900  0.80005700  0.50634200  1
  C  2368  1  0.98053500  0.80832900  0.49116900  1
  C  2370  1  0.00025100  0.79149500  0.46515900  1
  C  2371  1  0.00248000  0.78795800  0.44436300  1
  C  2372  1  0.99031500  0.80296300  0.52703400  1
  C  2379  1  0.02840800  0.76886300  0.47620700  1
  C  2381  1  0.96372100  0.82050000  0.49522400  1
  C  2383  1  0.98356100  0.21774300  0.47806300  1
  C  2385  1  0.00888100  0.21512700  0.50493200  1
  C  2386  1  0.02281800  0.20595000  0.49102500  1
  C  2388  1  0.99716700  0.20755500  0.46453200  1
  C  2389  1  0.99278300  0.20374100  0.44413400  1
  C  2390  1  0.01374000  0.22108400  0.52466400  1
  C  2397  1  0.96606200  0.22820000  0.47188000  1
  C  2399  1  0.04363900  0.20505300  0.49487600  1
  C  2401  1  0.21844700  0.43089800  0.03354700  1
  C  2403  1  0.21469400  0.45788300  0.05858200  1
  C  2404  1  0.20637600  0.44371600  0.07280400  1
  C  2406  1  0.20910100  0.41703600  0.04741300  1
  C  2407  1  0.20630100  0.39640400  0.04334900  1
  C  2408  1  0.21962600  0.47794900  0.06315400  1
  C  2415  1  0.22889900  0.42501700  0.01595200  1
  C  2417  1  0.20554500  0.44775400  0.09361000  1
  C  2419  1  0.79981800  0.43032800  0.06686000  1
  C  2421  1  0.80331100  0.45708400  0.04166600  1
  C  2422  1  0.81187700  0.44299600  0.02756100  1
  C  2424  1  0.80968200  0.41661200  0.05322500  1
  C  2425  1  0.81210600  0.39595800  0.05703100  1
  C  2426  1  0.79775200  0.47688700  0.03662200  1
  C  2433  1  0.78931900  0.42431300  0.08437200  1
  C  2435  1  0.81168800  0.44678100  0.00671400  1
  C  2437  1  0.78411300  0.57528400  0.04463700  1
  C  2439  1  0.79964400  0.54930400  0.06559900  1
  C  2440  1  0.80813400  0.56458200  0.07834900  1
  C  2442  1  0.79268500  0.59055600  0.05749100  1
  C  2443  1  0.78993000  0.61139000  0.05458900  1
  C  2444  1  0.80172600  0.52861100  0.06946400  1
  C  2451  1  0.77006200  0.57945600  0.02935800  1
  C  2453  1  0.81959100  0.56068500  0.09569100  1
  C  2455  1  0.21535700  0.58023900  0.07088400  1
  C  2457  1  0.21241200  0.55418700  0.04492500  1
  C  2458  1  0.20179800  0.56797100  0.03195700  1
  C  2460  1  0.20393500  0.59367600  0.05821000  1
  C  2461  1  0.19995500  0.61382000  0.06318400  1
  C  2462  1  0.21899900  0.53500600  0.03885100  1
  C  2469  1  0.22604900  0.58636000  0.08826400  1
  C  2471  1  0.19997000  0.56435200  0.01116100  1
  C  2473  1  0.42547700  0.02382200  0.84286700  1
  C  2475  1  0.45277000  0.00057900  0.85144100  1
  C  2476  1  0.43844500  0.98483000  0.85562800  1
  C  2478  1  0.41109500  0.00860700  0.84856500  1
  C  2479  1  0.39015600  0.01072100  0.84627700  1
  C  2480  1  0.47358900  0.99782500  0.85090500  1
  C  2487  1  0.42045900  0.04160100  0.83238900  1
  C  2489  1  0.44395100  0.96431300  0.85622900  1
  C  2491  1  0.43097900  0.98838100  0.25797900  1
  C  2493  1  0.45773500  0.01379300  0.25562600  1
  C  2494  1  0.44351600  0.02825000  0.24784700  1
  C  2496  1  0.41718000  0.00244300  0.24889300  1
  C  2497  1  0.39653200  0.99868200  0.24638100  1
  C  2498  1  0.47776400  0.01835900  0.26100000  1
  C  2505  1  0.42511600  0.97046300  0.26784700  1
  C  2507  1  0.44720300  0.04910000  0.24870700  1
  C  2509  1  0.57748200  0.01159500  0.27338000  1
  C  2511  1  0.55280000  0.99399600  0.25254900  1
  C  2512  1  0.56757100  0.97912300  0.24730200  1
  C  2514  1  0.59237300  0.99672700  0.26789300  1
  C  2515  1  0.61251500  0.99704500  0.27455100  1
  C  2516  1  0.53282000  0.99300000  0.24586500  1
  C  2523  1  0.58088100  0.02668600  0.28788700  1
  C  2525  1  0.56366800  0.96236100  0.23496900  1
  C  2527  1  0.58383600  0.98532300  0.84179200  1
  C  2529  1  0.55674900  0.00855000  0.85099300  1
  C  2530  1  0.57121200  0.02404100  0.85561700  1
  C  2532  1  0.59835000  0.00026900  0.84789100  1
  C  2533  1  0.61925300  0.99800300  0.84556200  1
  C  2534  1  0.53595400  0.01149100  0.85064500  1
  C  2541  1  0.58870700  0.96775800  0.83088000  1
  C  2543  1  0.56586900  0.04456800  0.85686200  1
  C  2545  1  0.69912200  0.52641600  0.99921400  1
  C  2547  1  0.71896800  0.49980300  0.01478500  1
  C  2548  1  0.71879100  0.48858100  0.99618600  1
  C  2550  1  0.69882900  0.51536000  0.98062500  1
  C  2551  1  0.68926900  0.52244400  0.96311000  1
  C  2552  1  0.72920700  0.49376800  0.03217300  1
  C  2559  1  0.68907600  0.54463600  0.00258800  1
  C  2561  1  0.72967600  0.47060900  0.99348400  1
  C  2563  1  0.30809700  0.47993900  0.99391500  1
  C  2565  1  0.30101600  0.51189900  0.01082400  1
  C  2566  1  0.29035300  0.51896200  0.99326100  1
  C  2568  1  0.29777000  0.48701100  0.97624700  1
  C  2569  1  0.29608500  0.47589700  0.95830800  1
  C  2570  1  0.30336500  0.52297100  0.02866200  1
  C  2577  1  0.31788800  0.46130900  0.99599400  1
  C  2579  1  0.27930900  0.53707900  0.99251100  1
  C  2581  1  0.30798800  0.53359300  0.11190300  1
  C  2583  1  0.28825700  0.50659900  0.09698700  1
  C  2584  1  0.29237900  0.49393600  0.11410000  1
  C  2586  1  0.31202700  0.52114700  0.12917000  1
  C  2587  1  0.32366000  0.52765300  0.14565100  1
  C  2588  1  0.27573700  0.50098100  0.08087300  1
  C  2595  1  0.31686300  0.55233900  0.10822400  1
  C  2597  1  0.28409200  0.47462800  0.11601800  1
  C  2599  1  0.70857300  0.47966400  0.10262700  1
  C  2601  1  0.71254700  0.51292400  0.08670200  1
  C  2602  1  0.72662400  0.51853400  0.10223900  1
  C  2604  1  0.72191500  0.48576100  0.11857300  1
  C  2605  1  0.72635200  0.47404300  0.13564600  1
  C  2606  1  0.70578600  0.52559500  0.07102400  1
  C  2613  1  0.69840400  0.46110400  0.10093600  1
  C  2615  1  0.73862900  0.53589200  0.10210500  1
  C  2617  1  0.95481600  0.70903400  0.57651500  1
  C  2619  1  0.97046100  0.71352100  0.54318500  1
  C  2620  1  0.95487900  0.72769000  0.53791300  1
  C  2622  1  0.93881300  0.72245700  0.57075400  1
  C  2623  1  0.92182300  0.72670900  0.58268200  1
  C  2624  1  0.98606300  0.70691800  0.53032000  1
  C  2631  1  0.95675100  0.69866900  0.59494800  1
  C  2633  1  0.95492400  0.74001800  0.52077200  1
  C  2635  1  0.94490000  0.30805400  0.52617100  1
  C  2637  1  0.96135600  0.30152400  0.55850500  1
  C  2638  1  0.94390500  0.29051400  0.56529000  1
  C  2640  1  0.92729900  0.29743800  0.53300500  1
  C  2641  1  0.90954100  0.29537200  0.52165200  1
  C  2642  1  0.97886700  0.30444800  0.56996400  1
  C  2649  1  0.94716500  0.31780800  0.50752900  1
  C  2651  1  0.94305500  0.27951200  0.58342400  1
  C  2653  1  0.06289400  0.30791200  0.58055100  1
  C  2655  1  0.04725300  0.28875300  0.55356100  1
  C  2656  1  0.06444600  0.29233700  0.54084100  1
  C  2658  1  0.08022100  0.31145600  0.56804300  1
  C  2659  1  0.09708200  0.32254800  0.57451100  1
  C  2660  1  0.03074500  0.27672800  0.54802100  1
  C  2667  1  0.05960600  0.31670400  0.59940400  1
  C  2669  1  0.06609900  0.28390200  0.52156100  1
  C  2671  1  0.05888100  0.69850500  0.52926100  1
  C  2673  1  0.04311400  0.71884400  0.55537600  1
  C  2674  1  0.06122500  0.71781200  0.56732000  1
  C  2676  1  0.07699700  0.69736400  0.54103300  1
  C  2677  1  0.09436200  0.68712700  0.53453800  1
  C  2678  1  0.02593800  0.72975500  0.56081200  1
  C  2685  1  0.05573900  0.68850100  0.51097300  1
  C  2687  1  0.06361800  0.72837400  0.58552400  1
  C  2689  1  0.53161800  0.94739600  0.75111900  1
  C  2691  1  0.49830200  0.96233200  0.75629100  1
  C  2692  1  0.49221900  0.94508600  0.76797000  1
  C  2694  1  0.52544000  0.92991700  0.76234700  1
  C  2695  1  0.53752800  0.91277200  0.76527400  1
  C  2696  1  0.48593400  0.97897800  0.75237800  1
  C  2703  1  0.55028200  0.95033000  0.74151600  1
  C  2705  1  0.47393800  0.94390100  0.77866000  1
  C  2707  1  0.48200700  0.95314500  0.34693300  1
  C  2709  1  0.51434700  0.97006300  0.34079300  1
  C  2710  1  0.52026500  0.95391200  0.32757100  1
  C  2712  1  0.48824700  0.93675400  0.33420500  1
  C  2713  1  0.47691500  0.91916300  0.33096500  1
  C  2714  1  0.52666300  0.98655400  0.34585500  1
  C  2721  1  0.46384100  0.95443300  0.35783600  1
  C  2723  1  0.53746700  0.95406000  0.31528000  1
  C  2725  1  0.52772300  0.05961900  0.35811200  1
  C  2727  1  0.50203800  0.04544600  0.33618300  1
  C  2728  1  0.48905300  0.06233800  0.34021300  1
  C  2730  1  0.51494000  0.07664100  0.36212500  1
  C  2731  1  0.52067200  0.09271000  0.37470300  1
  C  2732  1  0.49731200  0.02982400  0.32270500  1
  C  2739  1  0.54619000  0.05589100  0.36758300  1
  C  2741  1  0.47032100  0.06464500  0.33075600  1
  C  2743  1  0.47710700  0.06001000  0.75253700  1
  C  2745  1  0.50881800  0.04365100  0.76135300  1
  C  2746  1  0.51613300  0.06211000  0.77012000  1
  C  2748  1  0.48436700  0.07855300  0.76105200  1
  C  2749  1  0.47337400  0.09662900  0.76084000  1
  C  2750  1  0.51975900  0.02566500  0.76104000  1
  C  2757  1  0.45849800  0.05734400  0.74284200  1
  C  2759  1  0.53446500  0.06358000  0.78071800  1
  C  2761  1  0.52641700  0.69912400  0.10506400  1
  C  2763  1  0.49980000  0.71895400  0.08948400  1
  C  2764  1  0.48858600  0.71879900  0.10808700  1
  C  2766  1  0.51537100  0.69885200  0.12365800  1
  C  2767  1  0.52246000  0.68930900  0.14117900  1
  C  2768  1  0.49375800  0.72917600  0.07208700  1
  C  2775  1  0.54463800  0.68907600  0.10169400  1
  C  2777  1  0.47061700  0.72969100  0.11078700  1
  C  2779  1  0.47993700  0.30809400  0.11038800  1
  C  2781  1  0.51189300  0.30100900  0.09347500  1
  C  2782  1  0.51895900  0.29034800  0.11103700  1
  C  2784  1  0.48701100  0.29776800  0.12805600  1
  C  2785  1  0.47590000  0.29608700  0.14599700  1
  C  2786  1  0.52296200  0.30335400  0.07563400  1
  C  2793  1  0.46130600  0.31788600  0.10831100  1
  C  2795  1  0.53707600  0.27930300  0.11178600  1
  C  2797  1  0.53359300  0.30798800  0.99239500  1
  C  2799  1  0.50659900  0.28825100  0.00730500  1
  C  2800  1  0.49393600  0.29238100  0.99019400  1
  C  2802  1  0.52114700  0.31203300  0.97513100  1
  C  2803  1  0.52765300  0.32367200  0.95865300  1
  C  2804  1  0.50098100  0.27572400  0.02341500  1
  C  2811  1  0.55233900  0.31686100  0.99607800  1
  C  2813  1  0.47462800  0.28409500  0.98827400  1
  C  2815  1  0.47967200  0.70856200  0.00165500  1
  C  2817  1  0.51293100  0.71252700  0.01757900  1
  C  2818  1  0.51854300  0.72660800  0.00204700  1
  C  2820  1  0.48576900  0.72190700  0.98571300  1
  C  2821  1  0.47405100  0.72635000  0.96864100  1
  C  2822  1  0.52560500  0.70576100  0.03325500  1
  C  2829  1  0.46111000  0.69839700  0.00334600  1
  C  2831  1  0.53590100  0.73861300  0.00218300  1
  C  2833  1  0.70903200  0.95481400  0.52777700  1
  C  2835  1  0.71352000  0.97046100  0.56110700  1
  C  2836  1  0.72769000  0.95487900  0.56637800  1
  C  2838  1  0.72245500  0.93881100  0.53353800  1
  C  2839  1  0.72670800  0.92182200  0.52160900  1
  C  2840  1  0.70691800  0.98606300  0.57397200  1
  C  2847  1  0.69866700  0.95675100  0.50934300  1
  C  2849  1  0.74001800  0.95492400  0.58351900  1
  C  2851  1  0.30804000  0.94493800  0.57813900  1
  C  2853  1  0.30152900  0.96137500  0.54579300  1
  C  2854  1  0.29051300  0.94392500  0.53901500  1
  C  2856  1  0.29742200  0.92733700  0.57131400  1
  C  2857  1  0.29534600  0.90958600  0.58267500  1
  C  2858  1  0.30446800  0.97887300  0.53431900  1
  C  2865  1  0.31779000  0.94721200  0.59678400  1
  C  2867  1  0.27951200  0.94306700  0.52088200  1
  C  2869  1  0.30790900  0.06288700  0.52375500  1
  C  2871  1  0.28875800  0.04723400  0.55074300  1
  C  2872  1  0.29232400  0.06443100  0.56346000  1
  C  2874  1  0.31143700  0.08021800  0.53626100  1
  C  2875  1  0.32251700  0.09708600  0.52979300  1
  C  2876  1  0.27674200  0.03071900  0.55628000  1
  C  2883  1  0.31670100  0.05960600  0.50490000  1
  C  2885  1  0.28388200  0.06608300  0.58273700  1
  C  2887  1  0.69850500  0.05888000  0.57503100  1
  C  2889  1  0.71884400  0.04311300  0.54891600  1
  C  2890  1  0.71781200  0.06122400  0.53697000  1
  C  2892  1  0.69736300  0.07699600  0.56325900  1
  C  2893  1  0.68712700  0.09436100  0.56975300  1
  C  2894  1  0.72975300  0.02593700  0.54348000  1
  C  2901  1  0.68850100  0.05573900  0.59331700  1
  C  2903  1  0.72837400  0.06361600  0.51876800  1
  C  2905  1  0.94741700  0.53161800  0.35316100  1
  C  2907  1  0.96236100  0.49831100  0.34796600  1
  C  2908  1  0.94510600  0.49222300  0.33630400  1
  C  2910  1  0.92992900  0.52543700  0.34194800  1
  C  2911  1  0.91277800  0.53752000  0.33903900  1
  C  2912  1  0.97901700  0.48594800  0.35185600  1
  C  2919  1  0.95035000  0.55028000  0.36276700  1
  C  2921  1  0.94391800  0.47394100  0.32561200  1
  C  2923  1  0.95313400  0.48199500  0.75736800  1
  C  2925  1  0.97004600  0.51434300  0.76348500  1
  C  2926  1  0.95390200  0.52025900  0.77671700  1
  C  2928  1  0.93674900  0.48823300  0.77010500  1
  C  2929  1  0.91916300  0.47689800  0.77335900  1
  C  2930  1  0.98653100  0.52666200  0.75840300  1
  C  2937  1  0.95442000  0.46382600  0.74647000  1
  C  2939  1  0.95405400  0.53746200  0.78900700  1
  C  2941  1  0.05962900  0.52773100  0.74616400  1
  C  2943  1  0.04543200  0.50205200  0.76808600  1
  C  2944  1  0.06233600  0.48907100  0.76409200  1
  C  2946  1  0.07666200  0.51495200  0.74218400  1
  C  2947  1  0.09274700  0.52068200  0.72962700  1
  C  2948  1  0.02979100  0.49733000  0.78154100  1
  C  2955  1  0.05591100  0.54619400  0.73668600  1
  C  2957  1  0.06463800  0.47034500  0.77356500  1
  C  2959  1  0.06002000  0.47710900  0.35176900  1
  C  2961  1  0.04367000  0.50885000  0.34303700  1
  C  2962  1  0.06210600  0.51614400  0.33420400  1
  C  2964  1  0.07854300  0.48435200  0.34319400  1
  C  2965  1  0.09661100  0.47333900  0.34333500  1
  C  2966  1  0.02570000  0.51981700  0.34342800  1
  C  2973  1  0.05735700  0.45849700  0.36146100  1
  C  2975  1  0.06356500  0.53447600  0.32360500  1
  N  23  1  0.23835100  0.04770400  0.48389300  1
  N  24  1  0.30804900  0.06208600  0.48745100  1
  N  25  1  0.22626800  0.13913300  0.42272300  1
  N  26  1  0.29724900  0.13324000  0.40812700  1
  N  49  1  0.77530100  0.96604600  0.48393800  1
  N  50  1  0.70544400  0.95395100  0.49108800  1
  N  51  1  0.78024000  0.87504100  0.42149000  1
  N  52  1  0.71029900  0.88788200  0.40566000  1
  N  75  1  0.76635100  0.04437800  0.61682400  1
  N  76  1  0.69613300  0.05828800  0.61124000  1
  N  77  1  0.77718900  0.13612700  0.67626700  1
  N  78  1  0.70630000  0.12933800  0.69120700  1
  N  101  1  0.24053100  0.95699600  0.62009600  1
  N  102  1  0.31028100  0.94406300  0.61466900  1
  N  103  1  0.23193700  0.86615200  0.68238800  1
  N  104  1  0.30289400  0.87407100  0.69595400  1
  N  127  1  0.43768900  0.24076800  0.09762700  1
  N  128  1  0.44346200  0.31031800  0.11154300  1
  N  129  1  0.37582000  0.23086200  0.18849400  1
  N  130  1  0.36294800  0.30208500  0.18221300  1
  N  153  1  0.43579800  0.77516700  0.01247400  1
  N  154  1  0.44297200  0.70533400  0.00021400  1
  N  155  1  0.37397200  0.78083800  0.92102500  1
  N  156  1  0.36035000  0.71010300  0.93085000  1
  N  179  1  0.56754800  0.76693300  0.09032100  1
  N  180  1  0.56259900  0.69670000  0.10400200  1
  N  181  1  0.62848800  0.77760200  0.18115200  1
  N  182  1  0.64526500  0.70745100  0.17189900  1
  N  205  1  0.57414900  0.23859600  0.00705100  1
  N  206  1  0.56989500  0.30841600  0.99364200  1
  N  207  1  0.63584800  0.22840000  0.91578100  1
  N  208  1  0.64965000  0.29941300  0.92263000  1
  N  231  1  0.04944000  0.43343500  0.28445400  1
  N  232  1  0.06109100  0.44065200  0.35411800  1
  N  233  1  0.14211700  0.37440100  0.27744300  1
  N  234  1  0.13407900  0.36186800  0.34865900  1
  N  257  1  0.96315100  0.43651700  0.82222100  1
  N  258  1  0.95082500  0.44553000  0.75275700  1
  N  259  1  0.87202800  0.37427400  0.82653300  1
  N  260  1  0.88228900  0.36184200  0.75566800  1
  N  283  1  0.04311000  0.57007000  0.81489100  1
  N  284  1  0.05791900  0.56398900  0.74476300  1
  N  285  1  0.13541100  0.62828800  0.82680500  1
  N  286  1  0.12996800  0.64276600  0.75581000  1
  N  309  1  0.95974000  0.57551200  0.28561600  1
  N  310  1  0.94758800  0.56829000  0.35539400  1
  N  311  1  0.86767700  0.63554300  0.27898100  1
  N  312  1  0.87906900  0.65095500  0.34921700  1
  N  335  1  0.04770200  0.23835400  0.62042000  1
  N  336  1  0.06208200  0.30805100  0.61685300  1
  N  337  1  0.13913700  0.22627800  0.68158300  1
  N  338  1  0.13324300  0.29726100  0.69617300  1
  N  361  1  0.96604700  0.77530300  0.62035300  1
  N  362  1  0.95395100  0.70544600  0.61320400  1
  N  363  1  0.87504400  0.78024400  0.68280200  1
  N  364  1  0.88788400  0.71030200  0.69863200  1
  N  387  1  0.04438000  0.76635200  0.48746900  1
  N  388  1  0.05828900  0.69613300  0.49305000  1
  N  389  1  0.13613300  0.77719200  0.42803400  1
  N  390  1  0.12934300  0.70630300  0.41308900  1
  N  413  1  0.95696500  0.24055500  0.48420800  1
  N  414  1  0.94401100  0.31030100  0.48964300  1
  N  415  1  0.86613600  0.23194200  0.42190100  1
  N  416  1  0.87404800  0.30290000  0.40833400  1
  N  439  1  0.24076900  0.43769000  0.00667200  1
  N  440  1  0.31032100  0.44346400  0.99276300  1
  N  441  1  0.23087100  0.37582500  0.91580200  1
  N  442  1  0.30209200  0.36295400  0.92208600  1
  N  465  1  0.77517000  0.43578100  0.09180400  1
  N  466  1  0.70534000  0.44296600  0.10406700  1
  N  467  1  0.78084100  0.37396700  0.18326000  1
  N  468  1  0.71010500  0.36034900  0.17343800  1
  N  491  1  0.76693600  0.56754800  0.01397300  1
  N  492  1  0.69670300  0.56259700  0.00028400  1
  N  493  1  0.77761100  0.62848600  0.92314000  1
  N  494  1  0.70746100  0.64526200  0.93239000  1
  N  517  1  0.23859700  0.57414800  0.09724700  1
  N  518  1  0.30841700  0.56989500  0.11066000  1
  N  519  1  0.22839800  0.63585800  0.18851000  1
  N  520  1  0.29941000  0.64966900  0.18165100  1
  N  543  1  0.43343800  0.04944400  0.81984900  1
  N  544  1  0.44065500  0.06108600  0.75018400  1
  N  545  1  0.37440300  0.14211900  0.82685400  1
  N  546  1  0.36187100  0.13407600  0.75563700  1
  N  569  1  0.43652800  0.96313100  0.28208800  1
  N  570  1  0.44554600  0.95083200  0.35155400  1
  N  571  1  0.37431400  0.87197700  0.27781800  1
  N  572  1  0.36186100  0.88228600  0.34867000  1
  N  595  1  0.57007700  0.04310600  0.28937300  1
  N  596  1  0.56398300  0.05790100  0.35950200  1
  N  597  1  0.62829100  0.13541000  0.27748400  1
  N  598  1  0.64275900  0.12995700  0.34847900  1
  N  621  1  0.57551300  0.95974300  0.81866700  1
  N  622  1  0.56829000  0.94757600  0.74889200  1
  N  623  1  0.63554600  0.86768000  0.82531600  1
  N  624  1  0.65095900  0.87906600  0.75508000  1
  N  647  1  0.81469500  0.94493500  0.60992300  1
  N  648  1  0.74518000  0.93813000  0.59233800  1
  N  649  1  0.80283500  0.85958200  0.67565800  1
  N  650  1  0.73253500  0.87345900  0.68088200  1
  N  673  1  0.21746200  0.05428900  0.62022900  1
  N  674  1  0.27317400  0.08188100  0.58737800  1
  N  675  1  0.21115200  0.14736200  0.67793800  1
  N  676  1  0.28287100  0.14358900  0.67937000  1
  N  699  1  0.21281200  0.95091800  0.48346000  1
  N  700  1  0.27084600  0.92649400  0.51478000  1
  N  701  1  0.20932800  0.85667800  0.42751300  1
  N  702  1  0.28095400  0.86594500  0.42269500  1
  N  725  1  0.79649900  0.06046700  0.48365800  1
  N  726  1  0.73641500  0.08089600  0.51391200  1
  N  727  1  0.79471400  0.15239100  0.42482900  1
  N  728  1  0.72340800  0.14303500  0.42287700  1
  N  751  1  0.56205800  0.81305500  0.99007800  1
  N  752  1  0.54499400  0.74333500  0.98541000  1
  N  753  1  0.62998500  0.79820200  0.90703500  1
  N  754  1  0.63524400  0.72845700  0.92360300  1
  N  777  1  0.57469500  0.21285500  0.10368400  1
  N  778  1  0.54332000  0.27066900  0.12832300  1
  N  779  1  0.63003700  0.20861100  0.19825600  1
  N  780  1  0.63517000  0.28020900  0.18945300  1
  N  803  1  0.43688200  0.21778300  0.99987200  1
  N  804  1  0.47019500  0.27333400  0.97245500  1
  N  805  1  0.37897300  0.21228700  0.90682200  1
  N  806  1  0.37811700  0.28388200  0.91109800  1
  N  829  1  0.43629900  0.79810400  0.10698900  1
  N  830  1  0.46639500  0.73820000  0.12801100  1
  N  831  1  0.37893400  0.79895500  0.19996700  1
  N  832  1  0.37674100  0.72758300  0.19253100  1
  N  855  1  0.94356600  0.56427800  0.86353200  1
  N  856  1  0.93735400  0.54657500  0.79396700  1
  N  857  1  0.85765100  0.62872100  0.85057200  1
  N  858  1  0.87504700  0.63683100  0.78085200  1
  N  881  1  0.05620000  0.57543900  0.25999600  1
  N  882  1  0.08048000  0.54087600  0.31584700  1
  N  883  1  0.14881600  0.63320600  0.25998700  1
  N  884  1  0.14087600  0.63290400  0.33145700  1
  N  907  1  0.95277400  0.43404300  0.26043300  1
  N  908  1  0.92742100  0.46816700  0.31658800  1
  N  909  1  0.85871600  0.37845200  0.25652000  1
  N  910  1  0.86394400  0.37804200  0.32821900  1
  N  933  1  0.05845800  0.43616600  0.84237200  1
  N  934  1  0.08136300  0.46615400  0.78299200  1
  N  935  1  0.15120000  0.37833300  0.84500300  1
  N  936  1  0.14441800  0.37508800  0.77362400  1
  N  959  1  0.94493500  0.81469500  0.49436500  1
  N  960  1  0.93813000  0.74518000  0.51195200  1
  N  961  1  0.85957900  0.80283300  0.42863600  1
  N  962  1  0.87345700  0.73253300  0.42341000  1
  N  985  1  0.05427600  0.21748800  0.48406400  1
  N  986  1  0.08189100  0.27318400  0.51692400  1
  N  987  1  0.14735200  0.21114900  0.42636100  1
  N  988  1  0.14359400  0.28287000  0.42492700  1
  N  1011  1  0.95091500  0.21281700  0.62085500  1
  N  1012  1  0.92648400  0.27084900  0.58953500  1
  N  1013  1  0.85667500  0.20932200  0.67680000  1
  N  1014  1  0.86594200  0.28094700  0.68162700  1
  N  1037  1  0.06046800  0.79650100  0.62063100  1
  N  1038  1  0.08089700  0.73641600  0.59037800  1
  N  1039  1  0.15239500  0.79472000  0.67945800  1
  N  1040  1  0.14304300  0.72341500  0.68140900  1
  N  1063  1  0.81306600  0.56206000  0.11421100  1
  N  1064  1  0.74334900  0.54498500  0.11888000  1
  N  1065  1  0.79820200  0.62997700  0.19726000  1
  N  1066  1  0.72845800  0.63523400  0.18068600  1
  N  1089  1  0.21285800  0.57469300  0.00061100  1
  N  1090  1  0.27067200  0.54332100  0.97597400  1
  N  1091  1  0.20860900  0.63003000  0.90603600  1
  N  1092  1  0.28020700  0.63516900  0.91484000  1
  N  1115  1  0.21778000  0.43688200  0.10442300  1
  N  1116  1  0.27333400  0.47019400  0.13183900  1
  N  1117  1  0.21228400  0.37897400  0.19747400  1
  N  1118  1  0.28388100  0.37811600  0.19319700  1
  N  1141  1  0.79808600  0.43628200  0.99728300  1
  N  1142  1  0.73818800  0.46639100  0.97626100  1
  N  1143  1  0.79893400  0.37892100  0.90430400  1
  N  1144  1  0.72755800  0.37674600  0.91173200  1
  N  1167  1  0.56427300  0.94355400  0.24075100  1
  N  1168  1  0.54657600  0.93735900  0.31031800  1
  N  1169  1  0.62871800  0.85764200  0.25372200  1
  N  1170  1  0.63682400  0.87504600  0.32344000  1
  N  1193  1  0.57543700  0.05620900  0.84430800  1
  N  1194  1  0.54085700  0.08049800  0.78847200  1
  N  1195  1  0.63321500  0.14881600  0.84430600  1
  N  1196  1  0.63290000  0.14087400  0.77283600  1
  N  1219  1  0.43404300  0.95277100  0.84384600  1
  N  1220  1  0.46816700  0.92740800  0.78769300  1
  N  1221  1  0.37844900  0.85871400  0.84776600  1
  N  1222  1  0.37803600  0.86394100  0.77606700  1
  N  1245  1  0.43616100  0.05844300  0.26193600  1
  N  1246  1  0.46614000  0.08136500  0.32131400  1
  N  1247  1  0.37832000  0.15118300  0.25928500  1
  N  1248  1  0.37506800  0.14441200  0.33066600  1
  N  1250  1  0.19286400  0.16378300  0.42533600  1
  N  1253  1  0.17695300  0.18161500  0.39236800  1
  N  1268  1  0.81090300  0.84711500  0.42583300  1
  N  1271  1  0.83006700  0.83106000  0.39364700  1
  N  1286  1  0.80909400  0.16338600  0.67444700  1
  N  1289  1  0.82631300  0.17828300  0.70826700  1
  N  1304  1  0.19908900  0.84086600  0.68003600  1
  N  1307  1  0.18321100  0.82319100  0.71313600  1
  N  1322  1  0.37771900  0.19705700  0.21246600  1
  N  1325  1  0.34455200  0.18183000  0.23051800  1
  N  1340  1  0.37686000  0.81314500  0.89508400  1
  N  1343  1  0.34415800  0.82875100  0.87649800  1
  N  1358  1  0.62648800  0.80837600  0.20975200  1
  N  1361  1  0.66011900  0.82723000  0.22312600  1
  N  1376  1  0.63349300  0.19563200  0.89037000  1
  N  1379  1  0.66666667  0.17962700  0.87288800  1
  N  1394  1  0.16536300  0.37672700  0.24310500  1
  N  1397  1  0.18483900  0.34420400  0.22831600  1
  N  1412  1  0.84613900  0.37705100  0.85877100  1
  N  1415  1  0.82721900  0.34441000  0.87408300  1
  N  1430  1  0.16251700  0.62696000  0.85875300  1
  N  1433  1  0.17707100  0.66103100  0.87577300  1
  N  1448  1  0.84066600  0.63183900  0.24746500  1
  N  1451  1  0.82576900  0.66439000  0.22795700  1
  N  1466  1  0.16379000  0.19287800  0.67896800  1
  N  1469  1  0.18162400  0.17696500  0.71193300  1
  N  1484  1  0.84711800  0.81090700  0.67845900  1
  N  1487  1  0.83106300  0.83007100  0.71064700  1
  N  1502  1  0.16339200  0.80909700  0.42985900  1
  N  1505  1  0.17829400  0.82631600  0.39604000  1
  N  1520  1  0.84085600  0.19909000  0.42425200  1
  N  1523  1  0.82318600  0.18320800  0.39115100  1
  N  1538  1  0.19706900  0.37772500  0.89182800  1
  N  1541  1  0.18184500  0.34456300  0.87376700  1
  N  1556  1  0.81314700  0.37685700  0.20920200  1
  N  1559  1  0.82875400  0.34415600  0.22778700  1
  N  1574  1  0.80838700  0.62648800  0.89454300  1
  N  1577  1  0.82724000  0.66011900  0.88117100  1
  N  1592  1  0.19563200  0.63349500  0.21392100  1
  N  1595  1  0.17962000  0.66666667  0.23140400  1
  N  1610  1  0.37672600  0.16536600  0.86119000  1
  N  1613  1  0.34420400  0.18484200  0.87597900  1
  N  1628  1  0.37708000  0.84611800  0.24554100  1
  N  1631  1  0.34443100  0.82722800  0.23020800  1
  N  1646  1  0.62696500  0.16251700  0.24553800  1
  N  1649  1  0.66103700  0.17707200  0.22852100  1
  N  1664  1  0.63184400  0.84066900  0.85683100  1
  N  1667  1  0.66439600  0.82577200  0.87633800  1
  N  1682  1  0.67912400  0.67386200  0.94131800  1
  N  1685  1  0.66320200  0.69844300  0.91294700  1
  N  1700  1  0.33460100  0.33888700  0.92860100  1
  N  1703  1  0.34856000  0.31259000  0.90076800  1
  N  1718  1  0.33183000  0.67379600  0.17485600  1
  N  1721  1  0.34627600  0.69973500  0.20279100  1
  N  1736  1  0.67861000  0.33419000  0.16790300  1
  N  1739  1  0.66425100  0.31044900  0.19783800  1
  N  1754  1  0.89550700  0.68148800  0.72753900  1
  N  1757  1  0.86582900  0.66474900  0.75000000  1
  N  1772  1  0.88088800  0.33516100  0.38392800  1
  N  1775  1  0.85329800  0.34878800  0.35718700  1
  N  1790  1  0.12659900  0.32981200  0.72016700  1
  N  1793  1  0.15449100  0.34411200  0.74622800  1
  N  1808  1  0.12248300  0.67494800  0.38733400  1
  N  1811  1  0.15082500  0.66105600  0.36153400  1
  N  1826  1  0.67813400  0.88892200  0.72580300  1
  N  1829  1  0.70326000  0.86151600  0.70908300  1
  N  1844  1  0.33543900  0.88776000  0.38000700  1
  N  1847  1  0.31178700  0.85769600  0.39423600  1
  N  1862  1  0.66878800  0.12356000  0.37961900  1
  N  1865  1  0.69398700  0.15242100  0.39356600  1
  N  1880  1  0.33805600  0.12694500  0.72302000  1
  N  1883  1  0.31180200  0.15451000  0.70843500  1
  N  1898  1  0.67386300  0.67911400  0.16297100  1
  N  1901  1  0.69844300  0.66319100  0.19134100  1
  N  1916  1  0.33887900  0.33459200  0.17569600  1
  N  1919  1  0.31258400  0.34855400  0.20352900  1
  N  1934  1  0.67377000  0.33184100  0.92941300  1
  N  1937  1  0.69971200  0.34627600  0.90147600  1
  N  1952  1  0.33418800  0.67861200  0.93638700  1
  N  1955  1  0.31044900  0.66425000  0.90645300  1
  N  1970  1  0.68148200  0.89550600  0.37675500  1
  N  1973  1  0.66474400  0.86582800  0.35429200  1
  N  1988  1  0.33516000  0.88090000  0.72035800  1
  N  1991  1  0.34878300  0.85330300  0.74709300  1
  N  2006  1  0.32979500  0.12659400  0.38412800  1
  N  2009  1  0.34409400  0.15448600  0.35806400  1
  N  2024  1  0.67494000  0.12247900  0.71696000  1
  N  2027  1  0.66104800  0.15082200  0.74275600  1
  N  2042  1  0.88892200  0.67812800  0.37849300  1
  N  2045  1  0.86151600  0.70325700  0.39521200  1
  N  2060  1  0.88776500  0.33541600  0.72433400  1
  N  2063  1  0.85769600  0.31177500  0.71009400  1
  N  2078  1  0.12356900  0.66879700  0.72467200  1
  N  2081  1  0.15243000  0.69399500  0.71072300  1
  N  2096  1  0.12695000  0.33805300  0.38127600  1
  N  2099  1  0.15451700  0.31179900  0.39586100  1
  N  2114  1  0.21912100  0.01357800  0.49701600  1
  N  2117  1  0.19801500  0.98963500  0.47146800  1
  N  2132  1  0.79713100  0.99788300  0.49798100  1
  N  2135  1  0.81395900  0.02383600  0.47139400  1
  N  2150  1  0.78774200  0.00911300  0.60411900  1
  N  2153  1  0.80362000  0.98456300  0.63289100  1
  N  2168  1  0.22081600  0.99042200  0.60688200  1
  N  2171  1  0.20272400  0.01617100  0.63269700  1
  N  2186  1  0.45046400  0.22062200  0.06417800  1
  N  2189  1  0.42407300  0.20414900  0.03793700  1
  N  2204  1  0.44984700  0.79731900  0.04413200  1
  N  2207  1  0.42346800  0.81444300  0.07010900  1
  N  2222  1  0.55544400  0.78784300  0.05467500  1
  N  2225  1  0.58436600  0.80422000  0.03066400  1
  N  2240  1  0.56122600  0.21893400  0.04098500  1
  N  2243  1  0.58710800  0.19831400  0.06501900  1
  N  2258  1  0.01885200  0.44552700  0.25948900  1
  N  2261  1  0.98986100  0.41831900  0.25038100  1
  N  2276  1  0.99505600  0.45045000  0.84366900  1
  N  2279  1  0.02174200  0.42395400  0.85927700  1
  N  2294  1  0.00923200  0.55833900  0.83870400  1
  N  2297  1  0.98139900  0.58662200  0.84917400  1
  N  2312  1  0.99039400  0.56381900  0.26041500  1
  N  2315  1  0.01892100  0.59129000  0.25053100  1
  N  2330  1  0.01357800  0.21911900  0.60729900  1
  N  2333  1  0.98963200  0.19802200  0.63285000  1
  N  2348  1  0.99788500  0.79713300  0.60631100  1
  N  2351  1  0.02383800  0.81396100  0.63289600  1
  N  2366  1  0.00911400  0.78774400  0.50017100  1
  N  2369  1  0.98456400  0.80361800  0.47139900  1
  N  2384  1  0.99040000  0.22084800  0.49741400  1
  N  2387  1  0.01615400  0.20276700  0.47159500  1
  N  2402  1  0.22062200  0.45046700  0.04012000  1
  N  2405  1  0.20414400  0.42407500  0.06635800  1
  N  2420  1  0.79732700  0.44982700  0.06014900  1
  N  2423  1  0.81442200  0.42344200  0.03415800  1
  N  2438  1  0.78785100  0.55544600  0.04961500  1
  N  2441  1  0.80421900  0.58436900  0.07363100  1
  N  2456  1  0.21894100  0.56122300  0.06331100  1
  N  2459  1  0.19831900  0.58710500  0.03927700  1
  N  2474  1  0.44553200  0.01885100  0.84480600  1
  N  2477  1  0.41832400  0.98985800  0.85390300  1
  N  2492  1  0.45046700  0.99502400  0.26062600  1
  N  2495  1  0.42396600  0.02172200  0.24505200  1
  N  2510  1  0.55837900  0.00928600  0.26548300  1
  N  2513  1  0.58659900  0.98132600  0.25519100  1
  N  2528  1  0.56382100  0.99040000  0.84386600  1
  N  2531  1  0.59129200  0.01892500  0.85375800  1
  N  2546  1  0.70902800  0.51800400  0.01531700  1
  N  2549  1  0.70884400  0.49713300  0.98003500  1
  N  2564  1  0.30930500  0.49285900  0.01008500  1
  N  2567  1  0.28934400  0.50598800  0.97701600  1
  N  2582  1  0.29650400  0.52561400  0.09665800  1
  N  2585  1  0.30387600  0.50197700  0.12943200  1
  N  2600  1  0.70439500  0.49381100  0.08799400  1
  N  2603  1  0.73042500  0.50464700  0.11723000  1
  N  2618  1  0.96932300  0.70508400  0.56218500  1
  N  2621  1  0.94000300  0.73126300  0.55198900  1
  N  2636  1  0.96078700  0.30968400  0.53940300  1
  N  2639  1  0.92791900  0.28912300  0.55203500  1
  N  2654  1  0.04726600  0.29693900  0.57260200  1
  N  2657  1  0.08015800  0.30333100  0.54886000  1
  N  2672  1  0.04288000  0.70901700  0.53710900  1
  N  2675  1  0.07727200  0.70724700  0.55934500  1
  N  2690  1  0.51756600  0.96244100  0.74852900  1
  N  2693  1  0.50623400  0.92988200  0.77029800  1
  N  2708  1  0.49562000  0.96858600  0.34975600  1
  N  2711  1  0.50682800  0.93824600  0.32504800  1
  N  2726  1  0.52053000  0.04486900  0.34551900  1
  N  2729  1  0.49630800  0.07718300  0.35282500  1
  N  2744  1  0.48981400  0.04362500  0.75298300  1
  N  2747  1  0.50336700  0.07853200  0.76949300  1
  N  2762  1  0.51800100  0.70901200  0.08895400  1
  N  2765  1  0.49714400  0.70886900  0.12424500  1
  N  2780  1  0.49285500  0.30930000  0.09421600  1
  N  2783  1  0.50598800  0.28934100  0.12728600  1
  N  2798  1  0.52561400  0.29649600  0.00763700  1
  N  2801  1  0.50197700  0.30388300  0.97486600  1
  N  2816  1  0.49381900  0.70437800  0.01628600  1
  N  2819  1  0.50465400  0.73041600  0.98705700  1
  N  2834  1  0.70508200  0.96932300  0.54210700  1
  N  2837  1  0.73126100  0.94000300  0.55230100  1
  N  2852  1  0.30968200  0.96081400  0.56489800  1
  N  2855  1  0.28911100  0.92794800  0.55228100  1
  N  2870  1  0.29694600  0.04725100  0.53170200  1
  N  2873  1  0.30331000  0.08015100  0.55544300  1
  N  2888  1  0.70901700  0.04287900  0.56718300  1
  N  2891  1  0.70724500  0.07727100  0.54494500  1
  N  2906  1  0.96247100  0.51757300  0.35573100  1
  N  2909  1  0.92989400  0.50623200  0.33399300  1
  N  2924  1  0.96856700  0.49561200  0.75453000  1
  N  2927  1  0.93824200  0.50681900  0.77925600  1
  N  2942  1  0.04486300  0.52053800  0.75873900  1
  N  2945  1  0.07719700  0.49632500  0.75149600  1
  N  2960  1  0.04365200  0.48984000  0.35139200  1
  N  2963  1  0.07851400  0.50335600  0.33476600  1
  O  1257  1  0.19888400  0.17648300  0.35738400  1
  O  1258  1  0.19253300  0.14572000  0.36158000  1
  O  1260  1  0.18678200  0.18662000  0.46019100  1
  O  1261  1  0.15758100  0.17529900  0.45636800  1
  O  1275  1  0.81152900  0.83752600  0.35693600  1
  O  1276  1  0.81612800  0.86811900  0.36325500  1
  O  1278  1  0.81448000  0.82072300  0.45919600  1
  O  1279  1  0.84183900  0.83636700  0.46004000  1
  O  1293  1  0.80665800  0.16918800  0.74372600  1
  O  1294  1  0.81225900  0.13909000  0.73597500  1
  O  1296  1  0.81307800  0.19075200  0.64241300  1
  O  1297  1  0.84211600  0.17811400  0.64285300  1
  O  1311  1  0.20513300  0.82844400  0.74802500  1
  O  1312  1  0.19888500  0.85913900  0.74379500  1
  O  1314  1  0.19287500  0.81682200  0.64567300  1
  O  1315  1  0.16454300  0.83033800  0.64873100  1
  O  1329  1  0.31021200  0.20501000  0.22632900  1
  O  1330  1  0.31369500  0.19878500  0.19545300  1
  O  1332  1  0.41268900  0.18941100  0.23478600  1
  O  1333  1  0.40786400  0.16079900  0.22239300  1
  O  1347  1  0.30899800  0.80704600  0.88141400  1
  O  1348  1  0.31280900  0.81336700  0.91210700  1
  O  1350  1  0.41189800  0.81889000  0.87223400  1
  O  1351  1  0.40822900  0.84793400  0.88398300  1
  O  1365  1  0.69604000  0.80931900  0.21229600  1
  O  1366  1  0.68656500  0.81457900  0.18263000  1
  O  1368  1  0.59660900  0.81100500  0.24040400  1
  O  1369  1  0.59329700  0.83821000  0.22454300  1
  O  1383  1  0.70165600  0.20119300  0.87866300  1
  O  1384  1  0.69706200  0.19488500  0.90929500  1
  O  1386  1  0.59937000  0.19003200  0.86590400  1
  O  1387  1  0.60197500  0.16143300  0.87895400  1
  O  1401  1  0.18293900  0.31027600  0.25241700  1
  O  1402  1  0.15182400  0.31197500  0.24667700  1
  O  1404  1  0.18458400  0.41291100  0.23391100  1
  O  1405  1  0.17355000  0.40599900  0.20516000  1
  O  1419  1  0.83152600  0.30945900  0.85188700  1
  O  1420  1  0.86229300  0.31278700  0.85812600  1
  O  1422  1  0.82353200  0.41225100  0.86514000  1
  O  1423  1  0.83611500  0.40821200  0.89378400  1
  O  1437  1  0.16738400  0.69631600  0.85611800  1
  O  1438  1  0.13739900  0.68815500  0.86175100  1
  O  1440  1  0.19038200  0.59534100  0.86263200  1
  O  1441  1  0.17780500  0.59561100  0.89169900  1
  O  1455  1  0.83222600  0.70077300  0.24696600  1
  O  1456  1  0.86286500  0.69410200  0.24294700  1
  O  1458  1  0.81350100  0.59909100  0.24279400  1
  O  1459  1  0.83067100  0.59782800  0.21638400  1
  O  1473  1  0.17649500  0.19889600  0.74691900  1
  O  1474  1  0.14573200  0.19254500  0.74272400  1
  O  1476  1  0.18662600  0.18679600  0.64411200  1
  O  1477  1  0.17530000  0.15759600  0.64793300  1
  O  1491  1  0.83752900  0.81153200  0.74735700  1
  O  1492  1  0.86812200  0.81613100  0.74103800  1
  O  1494  1  0.82072400  0.81448300  0.64509700  1
  O  1495  1  0.83637000  0.84184100  0.64425400  1
  O  1509  1  0.16920300  0.80666400  0.36057900  1
  O  1510  1  0.13910400  0.81226400  0.36832800  1
  O  1512  1  0.19075600  0.81307800  0.46189400  1
  O  1513  1  0.17811700  0.84211600  0.46145500  1
  O  1527  1  0.82844100  0.20512800  0.35626100  1
  O  1528  1  0.85913600  0.19888400  0.36049500  1
  O  1530  1  0.81680900  0.19287500  0.45861400  1
  O  1531  1  0.83032700  0.16454400  0.45555800  1
  O  1545  1  0.20502700  0.31022300  0.87795600  1
  O  1546  1  0.19879700  0.31369900  0.90883000  1
  O  1548  1  0.18942300  0.41269800  0.86950700  1
  O  1549  1  0.16081300  0.40787300  0.88190400  1
  O  1563  1  0.80705400  0.30899500  0.22287500  1
  O  1564  1  0.81337100  0.31280600  0.19218000  1
  O  1566  1  0.81889000  0.41189600  0.23205000  1
  O  1567  1  0.84793400  0.40822900  0.22030100  1
  O  1581  1  0.80933100  0.69604000  0.89200500  1
  O  1582  1  0.81458900  0.68656200  0.92166900  1
  O  1584  1  0.81101600  0.59660900  0.86389200  1
  O  1585  1  0.83822400  0.59330000  0.87974700  1
  O  1599  1  0.20118100  0.70165800  0.22563200  1
  O  1600  1  0.19487600  0.69706300  0.19500100  1
  O  1602  1  0.19003500  0.59936700  0.23838200  1
  O  1603  1  0.16143400  0.60197200  0.22533400  1
  O  1617  1  0.31027500  0.18294200  0.85187800  1
  O  1618  1  0.31197500  0.15182700  0.85761800  1
  O  1620  1  0.41290900  0.18458900  0.87038600  1
  O  1621  1  0.40599700  0.17355300  0.89913600  1
  O  1635  1  0.30949400  0.83150200  0.25243300  1
  O  1636  1  0.31281500  0.86227600  0.24623300  1
  O  1638  1  0.41228000  0.82353500  0.23912200  1
  O  1639  1  0.40822300  0.83612800  0.21048600  1
  O  1653  1  0.69632100  0.16738500  0.24817900  1
  O  1654  1  0.68816100  0.13740100  0.24254400  1
  O  1656  1  0.59534600  0.19038200  0.24165500  1
  O  1657  1  0.59561700  0.17780200  0.21258900  1
  O  1671  1  0.70077800  0.83223200  0.85733100  1
  O  1672  1  0.69410600  0.86286900  0.86134900  1
  O  1674  1  0.59909700  0.81350100  0.86150200  1
  O  1675  1  0.59783200  0.83067100  0.88791100  1
  O  1689  1  0.68342000  0.69894700  0.87657600  1
  O  1690  1  0.67697300  0.66793700  0.87559000  1
  O  1692  1  0.65365400  0.67379100  0.97613600  1
  O  1693  1  0.67180000  0.69929200  0.97960900  1
  O  1707  1  0.32431200  0.30742900  0.86737800  1
  O  1708  1  0.32825100  0.33841000  0.86282000  1
  O  1710  1  0.36397300  0.34371200  0.95987800  1
  O  1711  1  0.34778200  0.31788000  0.96773500  1
  O  1725  1  0.32238600  0.70479200  0.23646800  1
  O  1726  1  0.32617100  0.67374400  0.24069400  1
  O  1728  1  0.36226900  0.66929900  0.14401800  1
  O  1729  1  0.34413200  0.69384000  0.13565500  1
  O  1743  1  0.68747100  0.30974800  0.23229500  1
  O  1744  1  0.68135800  0.34072400  0.23367600  1
  O  1746  1  0.65043400  0.33481800  0.13531700  1
  O  1747  1  0.66734900  0.30865700  0.13068900  1
  O  1761  1  0.82912200  0.68432000  0.74795100  1
  O  1762  1  0.83042200  0.67739800  0.71705400  1
  O  1764  1  0.93081700  0.65699300  0.72973400  1
  O  1765  1  0.93203400  0.67463600  0.75579900  1
  O  1779  1  0.81978600  0.32462700  0.35234000  1
  O  1780  1  0.81503000  0.32943500  0.38316800  1
  O  1782  1  0.91213800  0.36485500  0.38820400  1
  O  1783  1  0.92030200  0.34747700  0.36325400  1
  O  1797  1  0.18774000  0.31975300  0.75188100  1
  O  1798  1  0.19232800  0.32315600  0.72084200  1
  O  1800  1  0.09619900  0.36045900  0.71494000  1
  O  1801  1  0.08742400  0.34306300  0.73986800  1
  O  1815  1  0.18477600  0.68469000  0.35810000  1
  O  1816  1  0.18840000  0.67956800  0.38907500  1
  O  1818  1  0.09055700  0.64607300  0.39046200  1
  O  1819  1  0.08372700  0.66298800  0.36480000  1
  O  1833  1  0.70531300  0.82497400  0.72888900  1
  O  1834  1  0.67424500  0.82305800  0.72295800  1
  O  1836  1  0.67648900  0.92391400  0.70048900  1
  O  1837  1  0.70193300  0.92811200  0.71855600  1
  O  1851  1  0.31179900  0.82291000  0.37137200  1
  O  1852  1  0.34273100  0.82209100  0.37761800  1
  O  1854  1  0.33525600  0.92063700  0.40783000  1
  O  1855  1  0.30925000  0.92475100  0.39054700  1
  O  1869  1  0.69666000  0.18665200  0.37010000  1
  O  1870  1  0.66557200  0.18935600  0.37484700  1
  O  1872  1  0.66659100  0.09192800  0.40920800  1
  O  1873  1  0.69149000  0.08522000  0.39086800  1
  O  1887  1  0.30660600  0.18822800  0.73210100  1
  O  1888  1  0.33755300  0.19289800  0.72772200  1
  O  1890  1  0.34309300  0.09518100  0.69428600  1
  O  1891  1  0.31709000  0.08754200  0.71031200  1
  O  1905  1  0.69894700  0.68340800  0.22771300  1
  O  1906  1  0.66793500  0.67696200  0.22869900  1
  O  1908  1  0.67379400  0.65364600  0.12815200  1
  O  1909  1  0.69929600  0.67179000  0.12468000  1
  O  1923  1  0.30742000  0.32430700  0.23691800  1
  O  1924  1  0.33840100  0.32824400  0.24147800  1
  O  1926  1  0.34370700  0.36396400  0.14441800  1
  O  1927  1  0.31787400  0.34777500  0.13656200  1
  O  1941  1  0.70477200  0.32237500  0.86780700  1
  O  1942  1  0.67372600  0.32616000  0.86357600  1
  O  1944  1  0.66927200  0.36229200  0.96024000  1
  O  1945  1  0.69380700  0.34415200  0.96861300  1
  O  1959  1  0.30974900  0.68746600  0.87199400  1
  O  1960  1  0.34072600  0.68135200  0.87061600  1
  O  1962  1  0.33481500  0.65043800  0.96897700  1
  O  1963  1  0.30865300  0.66735300  0.97360200  1
  O  1977  1  0.68431700  0.82912000  0.35633800  1
  O  1978  1  0.67739600  0.83042000  0.38723600  1
  O  1980  1  0.65698200  0.93081400  0.37456100  1
  O  1981  1  0.67462700  0.93203400  0.34849700  1
  O  1995  1  0.32461900  0.81979400  0.75193300  1
  O  1996  1  0.32943000  0.81504200  0.72110400  1
  O  1998  1  0.36485500  0.91214900  0.71608700  1
  O  1999  1  0.34747800  0.92031000  0.74104100  1
  O  2013  1  0.31973600  0.18773500  0.35241400  1
  O  2014  1  0.32314200  0.19232400  0.38345300  1
  O  2016  1  0.36044000  0.09619300  0.38935200  1
  O  2017  1  0.34304400  0.08741900  0.36442200  1
  O  2031  1  0.68468200  0.18477200  0.74619500  1
  O  2032  1  0.67956500  0.18839500  0.71521800  1
  O  2034  1  0.64606400  0.09055500  0.71383000  1
  O  2035  1  0.66297900  0.08372300  0.73949200  1
  O  2049  1  0.82497400  0.70530800  0.37540300  1
  O  2050  1  0.82306000  0.67423900  0.38133700  1
  O  2052  1  0.92391400  0.67648600  0.40380900  1
  O  2053  1  0.92811200  0.70193100  0.38574100  1
  O  2067  1  0.82290700  0.31178900  0.73295000  1
  O  2068  1  0.82209700  0.34272400  0.72672100  1
  O  2070  1  0.92064400  0.33523300  0.69651700  1
  O  2071  1  0.92475000  0.30921800  0.71379000  1
  O  2085  1  0.18666300  0.69667100  0.73418800  1
  O  2086  1  0.18936500  0.66558100  0.72944300  1
  O  2088  1  0.09193700  0.66659900  0.69508400  1
  O  2089  1  0.08522900  0.69149700  0.71342200  1
  O  2103  1  0.18823300  0.30660400  0.37219400  1
  O  2104  1  0.19290200  0.33755200  0.37657300  1
  O  2106  1  0.09518600  0.34309000  0.41000800  1
  O  2107  1  0.08754800  0.31708700  0.39398600  1
  O  2121  1  0.18112600  0.01449100  0.44016900  1
  O  2122  1  0.21057600  0.00748600  0.43093100  1
  O  2124  1  0.20694000  0.98627000  0.53655500  1
  O  2125  1  0.23753100  0.99088500  0.52880300  1
  O  2139  1  0.82976500  0.00222300  0.43755000  1
  O  2140  1  0.79891200  0.00481300  0.43174200  1
  O  2142  1  0.81024100  0.02606900  0.53685400  1
  O  2143  1  0.78033400  0.01646500  0.53227200  1
  O  2157  1  0.79430700  0.01811300  0.66790800  1
  O  2158  1  0.78659800  0.98773400  0.67165600  1
  O  2160  1  0.78781100  0.98947200  0.56639800  1
  O  2161  1  0.81910700  0.99496300  0.56868100  1
  O  2175  1  0.19142400  0.97906800  0.66325200  1
  O  2176  1  0.20426500  0.00591000  0.67371700  1
  O  2178  1  0.23582200  0.00498100  0.57217900  1
  O  2179  1  0.20803200  0.02094400  0.56801100  1
  O  2193  1  0.39224100  0.19412400  0.07445100  1
  O  2194  1  0.38307400  0.20851900  0.04774900  1
  O  2196  1  0.48593300  0.23418100  0.04980600  1
  O  2197  1  0.48903800  0.20587800  0.03448900  1
  O  2211  1  0.38916200  0.82944900  0.04866700  1
  O  2212  1  0.38369200  0.79860400  0.05198200  1
  O  2214  1  0.48907800  0.81145700  0.07103300  1
  O  2215  1  0.48442600  0.78111600  0.06289400  1
  O  2229  1  0.61866200  0.79682100  0.06546800  1
  O  2230  1  0.62360600  0.78873700  0.03535700  1
  O  2232  1  0.51813200  0.78626400  0.03466100  1
  O  2233  1  0.51946600  0.81794900  0.03773400  1
  O  2247  1  0.61715300  0.18253700  0.03528600  1
  O  2248  1  0.62794200  0.20770300  0.05091800  1
  O  2250  1  0.52188800  0.20607000  0.06842200  1
  O  2251  1  0.52898800  0.23674300  0.06336500  1
  O  2265  1  0.00731100  0.37977100  0.24289200  1
  O  2266  1  0.00639000  0.38193700  0.27446100  1
  O  2268  1  0.01057000  0.48401700  0.24450100  1
  O  2269  1  0.98971300  0.48045400  0.26899800  1
  O  2283  1  0.00084800  0.38964200  0.87515900  1
  O  2284  1  0.00285800  0.38426500  0.84418700  1
  O  2286  1  0.02525400  0.48876600  0.85667100  1
  O  2287  1  0.00953500  0.48697300  0.82940800  1
  O  2301  1  0.01179500  0.62285500  0.83533100  1
  O  2302  1  0.98146000  0.62251700  0.82670100  1
  O  2304  1  0.98550700  0.52060700  0.84609900  1
  O  2305  1  0.00595500  0.52582400  0.86985300  1
  O  2319  1  0.00069100  0.62949400  0.24334900  1
  O  2320  1  0.00314100  0.62777100  0.27475000  1
  O  2322  1  0.99870400  0.52549100  0.24485800  1
  O  2323  1  0.01987900  0.52903800  0.26908600  1
  O  2337  1  0.01448300  0.18113800  0.66415500  1
  O  2338  1  0.00748200  0.21059200  0.67338500  1
  O  2340  1  0.98627200  0.20693300  0.56776200  1
  O  2341  1  0.99090000  0.23752300  0.57550400  1
  O  2355  1  0.00222600  0.82976700  0.66674100  1
  O  2356  1  0.00481500  0.79891400  0.67254800  1
  O  2358  1  0.02607000  0.81024100  0.56743500  1
  O  2359  1  0.01646600  0.78033600  0.57201900  1
  O  2373  1  0.01811400  0.79430600  0.43638300  1
  O  2374  1  0.98773500  0.78659500  0.43263600  1
  O  2376  1  0.98947200  0.78781400  0.53789300  1
  O  2377  1  0.99496400  0.81911000  0.53560800  1
  O  2391  1  0.97905500  0.19147400  0.44103200  1
  O  2392  1  0.00589500  0.20432300  0.43057500  1
  O  2394  1  0.00495300  0.23584200  0.53212500  1
  O  2395  1  0.02092500  0.20805500  0.53628300  1
  O  2409  1  0.19412000  0.39224600  0.02984100  1
  O  2410  1  0.20851000  0.38307500  0.05654400  1
  O  2412  1  0.23418300  0.48593300  0.05449700  1
  O  2413  1  0.20587800  0.48903900  0.06981000  1
  O  2427  1  0.82941100  0.38911900  0.05558300  1
  O  2428  1  0.79856000  0.38367400  0.05228900  1
  O  2430  1  0.81148500  0.48905300  0.03324900  1
  O  2431  1  0.78114700  0.48442600  0.04140800  1
  O  2445  1  0.79680600  0.61866800  0.03883600  1
  O  2446  1  0.78871800  0.62360300  0.06894800  1
  O  2448  1  0.78628500  0.51813200  0.06963300  1
  O  2449  1  0.81796600  0.51947300  0.06652400  1
  O  2463  1  0.18254600  0.61714400  0.06903400  1
  O  2464  1  0.20768800  0.62794100  0.05336500  1
  O  2466  1  0.20607500  0.52188500  0.03587500  1
  O  2467  1  0.23674900  0.52898800  0.04092700  1
  O  2481  1  0.37977600  0.00730800  0.86140100  1
  O  2482  1  0.38194000  0.00639200  0.82983100  1
  O  2484  1  0.48402000  0.01056500  0.85979000  1
  O  2485  1  0.48045700  0.98971600  0.83528700  1
  O  2499  1  0.38964300  0.00084200  0.22917100  1
  O  2500  1  0.38428000  0.00283100  0.26014800  1
  O  2502  1  0.48876400  0.02525300  0.24760700  1
  O  2503  1  0.48703700  0.00943700  0.27481600  1
  O  2517  1  0.62288100  0.01160400  0.26915800  1
  O  2518  1  0.62239600  0.98127700  0.27781100  1
  O  2520  1  0.52063300  0.98545300  0.25779500  1
  O  2521  1  0.52593400  0.00627400  0.23439100  1
  O  2535  1  0.62949600  0.00069700  0.86093700  1
  O  2536  1  0.62777400  0.00314500  0.82953600  1
  O  2538  1  0.52549500  0.99870500  0.85942500  1
  O  2539  1  0.52904000  0.01988600  0.83520100  1
  O  2553  1  0.67801000  0.51053300  0.95418200  1
  O  2554  1  0.69771400  0.53522100  0.95206200  1
  O  2556  1  0.74034200  0.50618300  0.04067900  1
  O  2557  1  0.72145000  0.47986100  0.04228700  1
  O  2571  1  0.31179200  0.47305800  0.94863900  1
  O  2572  1  0.28029900  0.47569700  0.94795300  1
  O  2574  1  0.28795600  0.52623200  0.03875900  1
  O  2575  1  0.31993000  0.52192000  0.03772500  1
  O  2589  1  0.33527000  0.51539800  0.15363200  1
  O  2590  1  0.31758400  0.54127900  0.15724800  1
  O  2592  1  0.26181200  0.51264400  0.07660400  1
  O  2593  1  0.28237200  0.49060200  0.06656800  1
  O  2607  1  0.71215900  0.47096700  0.14737500  1
  O  2608  1  0.74341600  0.47381700  0.14369900  1
  O  2610  1  0.71743900  0.53780100  0.06291700  1
  O  2611  1  0.68927200  0.52183900  0.06257800  1
  O  2625  1  0.91037400  0.71245500  0.58640500  1
  O  2626  1  0.91389900  0.74383800  0.58333700  1
  O  2628  1  0.99387800  0.71859900  0.51795400  1
  O  2629  1  0.99466700  0.69044500  0.53390900  1
  O  2643  1  0.89999200  0.31097000  0.51793800  1
  O  2644  1  0.89915900  0.27960100  0.52177200  1
  O  2646  1  0.98922600  0.28934300  0.57378100  1
  O  2647  1  0.98754300  0.32121900  0.56892700  1
  O  2661  1  0.10528400  0.33402900  0.56228300  1
  O  2662  1  0.10863300  0.31598600  0.58795000  1
  O  2664  1  0.02612400  0.26295000  0.55972100  1
  O  2665  1  0.01658000  0.28381800  0.53775200  1
  O  2679  1  0.10291700  0.67621500  0.54704700  1
  O  2680  1  0.10583600  0.69459200  0.52154800  1
  O  2682  1  0.01829800  0.74120600  0.54812300  1
  O  2683  1  0.01508700  0.72244800  0.57440300  1
  O  2697  1  0.54156300  0.90266000  0.75012200  1
  O  2698  1  0.53792900  0.90337000  0.78164200  1
  O  2700  1  0.48248400  0.99060700  0.76663300  1
  O  2701  1  0.48562600  0.98586100  0.73477900  1
  O  2715  1  0.47410700  0.90804900  0.34569100  1
  O  2716  1  0.47616000  0.91045500  0.31422600  1
  O  2718  1  0.53427600  0.99674100  0.33212500  1
  O  2719  1  0.52471700  0.99445600  0.36293300  1
  O  2733  1  0.50770300  0.10026700  0.38580800  1
  O  2734  1  0.53460100  0.10453200  0.36986900  1
  O  2736  1  0.50954200  0.02671500  0.30895400  1
  O  2737  1  0.48770300  0.01467900  0.32858000  1
  O  2751  1  0.47269400  0.10541200  0.74438300  1
  O  2752  1  0.47252000  0.10800600  0.77585400  1
  O  2754  1  0.51975000  0.01541100  0.77670100  1
  O  2755  1  0.52221800  0.01712600  0.74439700  1
  O  2769  1  0.51055900  0.67804400  0.15011000  1
  O  2770  1  0.53522000  0.69778000  0.15222800  1
  O  2772  1  0.50616900  0.74030300  0.06356400  1
  O  2773  1  0.47984400  0.72141400  0.06199000  1
  O  2787  1  0.47307200  0.31179200  0.15567000  1
  O  2788  1  0.47569400  0.28029700  0.15634800  1
  O  2790  1  0.52621900  0.28794400  0.06553900  1
  O  2791  1  0.52191000  0.31991800  0.06656800  1
  O  2805  1  0.51539800  0.33528300  0.95067700  1
  O  2806  1  0.54127900  0.31759900  0.94705500  1
  O  2808  1  0.51264400  0.26180000  0.02768100  1
  O  2809  1  0.49060000  0.28235300  0.03772100  1
  O  2823  1  0.47097100  0.71216000  0.95691000  1
  O  2824  1  0.47382800  0.74341600  0.96059100  1
  O  2826  1  0.53781900  0.71740600  0.04135800  1
  O  2827  1  0.52184100  0.68924600  0.04170200  1
  O  2841  1  0.71245200  0.91037200  0.51788600  1
  O  2842  1  0.74383600  0.91389900  0.52095500  1
  O  2844  1  0.71859900  0.99387800  0.58633800  1
  O  2845  1  0.69044300  0.99466700  0.57038300  1
  O  2859  1  0.31094100  0.90003800  0.58640900  1
  O  2860  1  0.27957300  0.89920500  0.58255300  1
  O  2862  1  0.28937200  0.98923800  0.53048200  1
  O  2863  1  0.32124300  0.98754100  0.53535900  1
  O  2877  1  0.33399600  0.10529400  0.54202100  1
  O  2878  1  0.31594500  0.10863600  0.51635900  1
  O  2880  1  0.26296700  0.02609200  0.54458000  1
  O  2881  1  0.28384100  0.01655700  0.56654700  1
  O  2895  1  0.67621500  0.10291700  0.55724400  1
  O  2896  1  0.69459000  0.10583500  0.58274300  1
  O  2898  1  0.74120600  0.01829700  0.55616800  1
  O  2899  1  0.72244800  0.01508500  0.52988900  1
  O  2913  1  0.90267700  0.54154500  0.35420100  1
  O  2914  1  0.90336300  0.53792200  0.32267900  1
  O  2916  1  0.99064500  0.48253100  0.33759300  1
  O  2917  1  0.98590100  0.48561500  0.36945500  1
  O  2931  1  0.90804100  0.47408300  0.75864000  1
  O  2932  1  0.91046400  0.47614800  0.79010400  1
  O  2934  1  0.99670400  0.53431900  0.77212000  1
  O  2935  1  0.99443600  0.52469300  0.74133100  1
  O  2949  1  0.10032100  0.50771100  0.71853600  1
  O  2950  1  0.10456100  0.53461300  0.73447500  1
  O  2952  1  0.02665100  0.50957300  0.79527400  1
  O  2953  1  0.01466200  0.48770600  0.77565100  1
  O  2967  1  0.10538600  0.47251700  0.35978800  1
  O  2968  1  0.10798800  0.47256100  0.32831500  1
  O  2970  1  0.01541500  0.51988600  0.32779000  1
  O  2971  1  0.01719200  0.52221400  0.36009800  1
