# generated using pymatgen
data_H11C19N
_symmetry_space_group_name_H-M   'P 1'
_cell_length_a   76.54540000
_cell_length_b   79.85000000
_cell_length_c   79.85050000
_cell_angle_alpha   89.99960000
_cell_angle_beta   90.00000000
_cell_angle_gamma   90.00000000
_symmetry_Int_Tables_number   1
_chemical_formula_structural   H11C19N
_chemical_formula_sum   'H1056 C1824 N96'
_cell_volume   488058.24873470
_cell_formula_units_Z   96
loop_
 _symmetry_equiv_pos_site_id
 _symmetry_equiv_pos_as_xyz
  1  'x, y, z'
loop_
 _atom_site_type_symbol
 _atom_site_label
 _atom_site_symmetry_multiplicity
 _atom_site_fract_x
 _atom_site_fract_y
 _atom_site_fract_z
 _atom_site_occupancy
  H  18  1  0.63879800  0.66647100  0.89628000  1
  H  19  1  0.62548800  0.66973200  0.92311500  1
  H  20  1  0.68880600  0.66918100  0.91861200  1
  H  21  1  0.54749100  0.68882500  0.01856800  1
  H  22  1  0.54439100  0.65870100  0.97508400  1
  H  23  1  0.51328900  0.65841900  0.97734200  1
  H  24  1  0.51637100  0.68881800  0.02060200  1
  H  25  1  0.63375700  0.67340800  0.06761400  1
  H  26  1  0.69616600  0.66524100  0.05999300  1
  H  27  1  0.67789600  0.66895300  0.03599700  1
  H  28  1  0.65214600  0.66973600  0.09163700  1
  H  35  1  0.60079100  0.67333600  0.96840600  1
  H  36  1  0.60170500  0.67350900  0.02128500  1
  H  37  1  0.64900600  0.67306700  0.99408100  1
  H  38  1  0.67549500  0.67248200  0.94555400  1
  H  49  1  0.66566100  0.65742000  0.88118800  1
  H  50  1  0.48899400  0.67402900  0.01273900  1
  H  51  1  0.69500500  0.65429800  0.09055000  1
  H  69  1  0.63878800  0.28645800  0.09279100  1
  H  70  1  0.62548300  0.28320700  0.06595200  1
  H  71  1  0.68879900  0.28373300  0.07046700  1
  H  72  1  0.54749200  0.26409200  0.97050100  1
  H  73  1  0.54439500  0.29422300  0.01398100  1
  H  74  1  0.51329300  0.29450600  0.01172300  1
  H  75  1  0.51637200  0.26410200  0.96846800  1
  H  76  1  0.63375700  0.27951100  0.92145400  1
  H  77  1  0.69616700  0.28767400  0.92907300  1
  H  78  1  0.67789700  0.28397200  0.95306900  1
  H  79  1  0.65214900  0.28317400  0.89742800  1
  H  86  1  0.60079300  0.27958900  0.02066100  1
  H  87  1  0.60170800  0.27941200  0.96778300  1
  H  88  1  0.64900800  0.27985900  0.99498800  1
  H  89  1  0.67549200  0.28044200  0.04352300  1
  H  100  1  0.66565400  0.29549300  0.10789500  1
  H  101  1  0.48899800  0.27890600  0.97633000  1
  H  102  1  0.69500200  0.29862200  0.89851500  1
  H  120  1  0.63859800  0.87818100  0.30515100  1
  H  121  1  0.62505500  0.90489900  0.30178500  1
  H  122  1  0.68840500  0.90103400  0.30335400  1
  H  123  1  0.54690800  0.00043800  0.28227500  1
  H  124  1  0.54373100  0.95715500  0.31269000  1
  H  125  1  0.51262800  0.95941200  0.31287900  1
  H  126  1  0.51578400  0.00246800  0.28219200  1
  H  127  1  0.63343600  0.04941600  0.29928900  1
  H  128  1  0.69594100  0.04128600  0.30631200  1
  H  129  1  0.67745200  0.01746500  0.30239700  1
  H  130  1  0.65204200  0.07325600  0.30315300  1
  H  137  1  0.60007500  0.95033500  0.29818500  1
  H  138  1  0.60110100  0.00321900  0.29803100  1
  H  139  1  0.64834100  0.97592100  0.29881900  1
  H  140  1  0.67486500  0.92784900  0.29994400  1
  H  151  1  0.66543500  0.86318000  0.31429100  1
  H  152  1  0.48837800  0.99469500  0.29705700  1
  H  153  1  0.69497100  0.07181700  0.31795400  1
  H  171  1  0.63862300  0.07473600  0.68393000  1
  H  172  1  0.62507100  0.04802200  0.68730100  1
  H  173  1  0.68842000  0.05186700  0.68570300  1
  H  174  1  0.54691500  0.95248400  0.70680000  1
  H  175  1  0.54373500  0.99576200  0.67637700  1
  H  176  1  0.51263200  0.99350500  0.67619200  1
  H  177  1  0.51579100  0.95045500  0.70688600  1
  H  178  1  0.63345300  0.90350000  0.68978900  1
  H  179  1  0.69595600  0.91164600  0.68276000  1
  H  180  1  0.67745800  0.93546200  0.68667000  1
  H  181  1  0.65206400  0.87966600  0.68592800  1
  H  188  1  0.60008100  0.00258200  0.69088400  1
  H  189  1  0.60110600  0.94969700  0.69103900  1
  H  190  1  0.64834600  0.97699500  0.69025800  1
  H  191  1  0.67487300  0.02505700  0.68911800  1
  H  202  1  0.66546300  0.08971800  0.67475700  1
  H  203  1  0.48838500  0.95822600  0.69202600  1
  H  204  1  0.69500900  0.88110800  0.67113800  1
  H  222  1  0.33589900  0.66642800  0.09348100  1
  H  223  1  0.34938400  0.66965200  0.06672100  1
  H  224  1  0.28603600  0.66897200  0.07082700  1
  H  225  1  0.42750000  0.68869000  0.97106100  1
  H  226  1  0.43072800  0.65852700  0.01451100  1
  H  227  1  0.46182700  0.65831500  0.01221400  1
  H  228  1  0.45861800  0.68875100  0.96899000  1
  H  229  1  0.34114700  0.67206900  0.92222100  1
  H  230  1  0.27865100  0.66470200  0.93007700  1
  H  231  1  0.29702100  0.66859100  0.95398600  1
  H  232  1  0.32266000  0.66823200  0.89829000  1
  H  239  1  0.37431900  0.67321600  0.02131800  1
  H  240  1  0.37331200  0.67304100  0.96843800  1
  H  241  1  0.32606200  0.67261000  0.99572100  1
  H  242  1  0.29952200  0.67223700  0.04396300  1
  H  253  1  0.30896700  0.65737500  0.10843900  1
  H  254  1  0.48605000  0.67399500  0.97682200  1
  H  255  1  0.27982600  0.65318500  0.89949500  1
  H  273  1  0.33589300  0.28648300  0.89557800  1
  H  274  1  0.34938100  0.28324500  0.92233400  1
  H  275  1  0.28603300  0.28397700  0.91824100  1
  H  276  1  0.42749800  0.26422800  0.01799600  1
  H  277  1  0.43073300  0.29439200  0.97454800  1
  H  278  1  0.46183200  0.29460800  0.97685200  1
  H  279  1  0.45861700  0.26417000  0.02007500  1
  H  280  1  0.34116000  0.28088400  0.06683500  1
  H  281  1  0.27865300  0.28819000  0.05899200  1
  H  282  1  0.29702000  0.28430300  0.03507900  1
  H  283  1  0.32267700  0.28472000  0.09076700  1
  H  290  1  0.37432100  0.27970300  0.96773900  1
  H  291  1  0.37331600  0.27988300  0.02062000  1
  H  292  1  0.32606400  0.28031200  0.99333800  1
  H  293  1  0.29952200  0.28069900  0.94510200  1
  H  304  1  0.30896100  0.29556600  0.88063500  1
  H  305  1  0.48605200  0.27891400  0.01224700  1
  H  306  1  0.27983000  0.29973300  0.08956100  1
  H  324  1  0.33557400  0.87750200  0.68449300  1
  H  325  1  0.34898300  0.90429400  0.68775300  1
  H  326  1  0.28564800  0.90004100  0.68693200  1
  H  327  1  0.42696500  0.99985600  0.70687400  1
  H  328  1  0.43013100  0.95656300  0.67647200  1
  H  329  1  0.46123100  0.95885500  0.67622400  1
  H  330  1  0.45808800  0.00192100  0.70689600  1
  H  331  1  0.34072400  0.04875100  0.68998600  1
  H  332  1  0.27817900  0.04103300  0.68282900  1
  H  333  1  0.29649400  0.01708900  0.68675900  1
  H  334  1  0.32229700  0.07271600  0.68610500  1
  H  341  1  0.37378800  0.94968100  0.69130200  1
  H  342  1  0.37276600  0.00256200  0.69112400  1
  H  343  1  0.32552100  0.97526600  0.69068200  1
  H  344  1  0.29905600  0.92693400  0.69023400  1
  H  355  1  0.30869700  0.86248100  0.67539100  1
  H  356  1  0.48548100  0.99415500  0.69197200  1
  H  357  1  0.27938500  0.07157100  0.67121700  1
  H  375  1  0.33556500  0.07542500  0.30459700  1
  H  376  1  0.34897600  0.04863300  0.30134400  1
  H  377  1  0.28564000  0.05288900  0.30210000  1
  H  378  1  0.42696100  0.95307400  0.28219200  1
  H  379  1  0.43012700  0.99636400  0.31259800  1
  H  380  1  0.46122600  0.99406600  0.31285400  1
  H  381  1  0.45808400  0.95100400  0.28217800  1
  H  382  1  0.34073800  0.90417900  0.29904800  1
  H  383  1  0.27820100  0.91186900  0.30628300  1
  H  384  1  0.29649900  0.93582200  0.30234700  1
  H  385  1  0.32232300  0.88020500  0.30293500  1
  H  392  1  0.37378200  0.00324900  0.29776000  1
  H  393  1  0.37276200  0.95036900  0.29794000  1
  H  394  1  0.32551700  0.97766300  0.29838200  1
  H  395  1  0.29905000  0.02599600  0.29880400  1
  H  406  1  0.30868000  0.09044600  0.31367900  1
  H  407  1  0.48547700  0.95876600  0.29710300  1
  H  408  1  0.27945800  0.88132500  0.31789900  1
  H  426  1  0.13806800  0.17679200  0.39746100  1
  H  427  1  0.12519900  0.17628300  0.42460400  1
  H  428  1  0.18705500  0.16407500  0.41844700  1
  H  429  1  0.04681100  0.18703800  0.51900700  1
  H  430  1  0.04380600  0.15666600  0.47568700  1
  H  431  1  0.01268600  0.15669200  0.47767600  1
  H  432  1  0.01566800  0.18733600  0.52077100  1
  H  433  1  0.13575900  0.16327300  0.56842600  1
  H  434  1  0.19671600  0.17690300  0.55852700  1
  H  435  1  0.17673000  0.17719200  0.53569300  1
  H  436  1  0.15586400  0.16294400  0.59136900  1
  H  443  1  0.10023300  0.17050400  0.46930700  1
  H  444  1  0.10096300  0.17089900  0.52219200  1
  H  445  1  0.14834500  0.16967000  0.49513500  1
  H  446  1  0.17413000  0.16353400  0.44570600  1
  H  457  1  0.16322500  0.17499800  0.37975800  1
  H  458  1  0.98825300  0.17257800  0.51280500  1
  H  459  1  0.20318800  0.17066000  0.58718200  1
  H  477  1  0.13807500  0.77612500  0.59160700  1
  H  478  1  0.12520600  0.77663400  0.56446500  1
  H  479  1  0.18705800  0.78886000  0.57062200  1
  H  480  1  0.04680900  0.76588500  0.47006500  1
  H  481  1  0.04381200  0.79626400  0.51338100  1
  H  482  1  0.01269200  0.79623900  0.51139300  1
  H  483  1  0.01566700  0.76559000  0.46830400  1
  H  484  1  0.13576000  0.78966300  0.42064500  1
  H  485  1  0.19671400  0.77600600  0.43053500  1
  H  486  1  0.17672800  0.77571800  0.45337100  1
  H  487  1  0.15586400  0.78999100  0.39770100  1
  H  494  1  0.10023500  0.78242200  0.51976300  1
  H  495  1  0.10096500  0.78202600  0.46687800  1
  H  496  1  0.14834800  0.78325500  0.49393500  1
  H  497  1  0.17413100  0.78940100  0.54336300  1
  H  508  1  0.16323600  0.77791600  0.60930800  1
  H  509  1  0.98825800  0.78036600  0.47626900  1
  H  510  1  0.20318700  0.78227900  0.40188500  1
  H  528  1  0.13838100  0.37936700  0.79429000  1
  H  529  1  0.12559800  0.40655000  0.79476100  1
  H  530  1  0.18742900  0.40023300  0.80700500  1
  H  531  1  0.04736800  0.50084800  0.78381200  1
  H  532  1  0.04441300  0.45769500  0.81443700  1
  H  533  1  0.01329200  0.45967900  0.81443600  1
  H  534  1  0.01622200  0.50260300  0.78354300  1
  H  535  1  0.13618900  0.55031800  0.80781900  1
  H  536  1  0.19714400  0.54061700  0.79402700  1
  H  537  1  0.17722300  0.51772900  0.79372800  1
  H  538  1  0.15622700  0.57331400  0.80815900  1
  H  545  1  0.10077300  0.45123200  0.80048200  1
  H  546  1  0.10151500  0.50411900  0.80008000  1
  H  547  1  0.14889400  0.47705100  0.80134600  1
  H  548  1  0.17458800  0.42752800  0.80750700  1
  H  559  1  0.16349300  0.36159500  0.79612100  1
  H  560  1  0.98884000  0.49470400  0.79846700  1
  H  561  1  0.20354200  0.56927500  0.80032100  1
  H  579  1  0.13838500  0.57355500  0.19477100  1
  H  580  1  0.12560000  0.54637300  0.19429500  1
  H  581  1  0.18743800  0.55268900  0.18207700  1
  H  582  1  0.04737400  0.45208000  0.20525700  1
  H  583  1  0.04441700  0.49522300  0.17462100  1
  H  584  1  0.01329600  0.49324000  0.17462200  1
  H  585  1  0.01622900  0.45032400  0.20552800  1
  H  586  1  0.13618900  0.40260000  0.18126400  1
  H  587  1  0.19715100  0.41230500  0.19502000  1
  H  588  1  0.17723400  0.43519500  0.19531500  1
  H  589  1  0.15622400  0.37960300  0.18092900  1
  H  596  1  0.10077900  0.50168900  0.18858100  1
  H  597  1  0.10152100  0.44880400  0.18898200  1
  H  598  1  0.14889900  0.47587100  0.18771800  1
  H  599  1  0.17459600  0.52539400  0.18157000  1
  H  610  1  0.16350500  0.59132100  0.19297200  1
  H  611  1  0.98884800  0.45821600  0.19060500  1
  H  612  1  0.20354400  0.38363900  0.18876600  1
  H  630  1  0.83586400  0.17745200  0.59237300  1
  H  631  1  0.84868300  0.17689900  0.56521100  1
  H  632  1  0.78680200  0.16488800  0.57146500  1
  H  633  1  0.92702800  0.18709300  0.47070500  1
  H  634  1  0.93003300  0.15675900  0.51405200  1
  H  635  1  0.96115000  0.15672200  0.51201900  1
  H  636  1  0.95816900  0.18732700  0.46889800  1
  H  637  1  0.83837800  0.16339000  0.42136200  1
  H  638  1  0.77737400  0.17710700  0.43085000  1
  H  639  1  0.79719800  0.17739500  0.45381300  1
  H  640  1  0.81843300  0.16306000  0.39828800  1
  H  647  1  0.87359100  0.17089800  0.52050200  1
  H  648  1  0.87288200  0.17098800  0.46761800  1
  H  649  1  0.82548400  0.17008100  0.49466000  1
  H  650  1  0.79967800  0.16431400  0.54418700  1
  H  661  1  0.81085400  0.17524500  0.61022500  1
  H  662  1  0.98557700  0.17250400  0.47686300  1
  H  663  1  0.77108800  0.17081400  0.40217900  1
  H  681  1  0.83586600  0.77547600  0.39668900  1
  H  682  1  0.84868600  0.77603100  0.42385200  1
  H  683  1  0.78680100  0.78803100  0.41759900  1
  H  684  1  0.92702800  0.76583000  0.51835500  1
  H  685  1  0.93003900  0.79616800  0.47501200  1
  H  686  1  0.96115500  0.79621000  0.47705300  1
  H  687  1  0.95816900  0.76560200  0.52017000  1
  H  688  1  0.83838400  0.78954300  0.56770100  1
  H  689  1  0.77737900  0.77582100  0.55821600  1
  H  690  1  0.79720200  0.77553200  0.53525300  1
  H  691  1  0.81843900  0.78987200  0.59077600  1
  H  698  1  0.87359200  0.78202700  0.46856000  1
  H  699  1  0.87288500  0.78193900  0.52144400  1
  H  700  1  0.82548700  0.78284500  0.49440300  1
  H  701  1  0.79967800  0.78860600  0.44487700  1
  H  712  1  0.81085500  0.77768200  0.37883800  1
  H  713  1  0.98557900  0.78041100  0.51221300  1
  H  714  1  0.77109300  0.78211800  0.58688600  1
  H  732  1  0.83623500  0.37871700  0.19477200  1
  H  733  1  0.84921500  0.40581300  0.19423500  1
  H  734  1  0.78734100  0.39987200  0.18198900  1
  H  735  1  0.92764800  0.50023700  0.20516100  1
  H  736  1  0.93071700  0.45710700  0.17451500  1
  H  737  1  0.96183400  0.45914100  0.17455400  1
  H  738  1  0.95879300  0.50204100  0.20546800  1
  H  739  1  0.83890000  0.54954900  0.18067300  1
  H  740  1  0.77782500  0.53983500  0.19399100  1
  H  741  1  0.79777800  0.51697000  0.19457500  1
  H  742  1  0.81883300  0.57251100  0.18004500  1
  H  749  1  0.87431300  0.45053800  0.18850700  1
  H  750  1  0.87356400  0.50342800  0.18868900  1
  H  751  1  0.82619300  0.47635000  0.18740900  1
  H  752  1  0.80038000  0.42708100  0.18141400  1
  H  763  1  0.81091900  0.36116300  0.19323900  1
  H  764  1  0.98621900  0.49417300  0.19055600  1
  H  765  1  0.77144800  0.56845100  0.18729800  1
  H  783  1  0.83622500  0.57421000  0.79427000  1
  H  784  1  0.84920600  0.54711400  0.79480700  1
  H  785  1  0.78733500  0.55305600  0.80707300  1
  H  786  1  0.92764300  0.45268500  0.78390500  1
  H  787  1  0.93071200  0.49582300  0.81453900  1
  H  788  1  0.96182800  0.49378600  0.81450800  1
  H  789  1  0.95878800  0.45087600  0.78360400  1
  H  790  1  0.83889200  0.40338400  0.80840900  1
  H  791  1  0.77782600  0.41308700  0.79504600  1
  H  792  1  0.79778000  0.43595100  0.79445600  1
  H  793  1  0.81882700  0.38042200  0.80904400  1
  H  800  1  0.87430800  0.50239100  0.80054700  1
  H  801  1  0.87355900  0.44950100  0.80036700  1
  H  802  1  0.82618800  0.47657700  0.80164300  1
  H  803  1  0.80037600  0.52584700  0.80764600  1
  H  814  1  0.81090700  0.59176200  0.79580300  1
  H  815  1  0.98621500  0.45874700  0.79851000  1
  H  816  1  0.77144600  0.38448100  0.80178900  1
  H  835  1  0.73800100  0.72547300  0.77691900  1
  H  836  1  0.73813600  0.70560400  0.79930600  1
  H  837  1  0.73463900  0.68610500  0.74185700  1
  H  838  1  0.70512300  0.63989300  0.84029000  1
  H  839  1  0.72333900  0.68963200  0.84490900  1
  H  840  1  0.70660300  0.69283100  0.87007600  1
  H  841  1  0.68883100  0.64303900  0.86552600  1
  H  842  1  0.73829100  0.61281300  0.81643300  1
  H  843  1  0.79776200  0.61753000  0.79618700  1
  H  844  1  0.78030200  0.64199900  0.79837800  1
  H  845  1  0.75603600  0.58827800  0.81461000  1
  H  852  1  0.71856600  0.68446600  0.81312200  1
  H  853  1  0.73722000  0.63923500  0.83309700  1
  H  854  1  0.75409100  0.65513300  0.78571600  1
  H  855  1  0.73431100  0.66621400  0.76415800  1
  H  877  1  0.73800100  0.22745200  0.21214600  1
  H  878  1  0.73813700  0.24732100  0.18975900  1
  H  879  1  0.73465000  0.26682000  0.24720700  1
  H  880  1  0.70512500  0.31303200  0.14877900  1
  H  881  1  0.72335000  0.26329700  0.14415200  1
  H  882  1  0.70660800  0.26009600  0.11898900  1
  H  883  1  0.68882800  0.30988500  0.12354700  1
  H  884  1  0.73829800  0.34011100  0.17262500  1
  H  885  1  0.79777000  0.33539900  0.19287400  1
  H  886  1  0.78031000  0.31092900  0.19068400  1
  H  887  1  0.75604300  0.36464600  0.17444400  1
  H  894  1  0.71857200  0.26846100  0.17594700  1
  H  895  1  0.73722100  0.31368900  0.15596600  1
  H  896  1  0.75410200  0.29779300  0.20334600  1
  H  897  1  0.73432300  0.28671200  0.22490800  1
  H  919  1  0.73931700  0.76567400  0.24246100  1
  H  920  1  0.73951600  0.78581800  0.26453000  1
  H  921  1  0.73553000  0.72670900  0.27792500  1
  H  922  1  0.70483800  0.82203400  0.33141600  1
  H  923  1  0.72429800  0.82854500  0.28231500  1
  H  924  1  0.70745000  0.85366700  0.27957900  1
  H  925  1  0.68840900  0.84727100  0.32874200  1
  H  926  1  0.73762900  0.79646000  0.35794000  1
  H  927  1  0.79753300  0.77750600  0.35303500  1
  H  928  1  0.78016500  0.78002200  0.32851100  1
  H  929  1  0.75526600  0.79434600  0.38250400  1
  H  936  1  0.71918600  0.79699100  0.28588600  1
  H  937  1  0.73687500  0.81429200  0.33247100  1
  H  938  1  0.75427300  0.76793000  0.31407700  1
  H  939  1  0.73525900  0.74683900  0.30009300  1
  H  961  1  0.73931200  0.18725100  0.74660100  1
  H  962  1  0.73951000  0.16710700  0.72453200  1
  H  963  1  0.73552800  0.22621600  0.71113600  1
  H  964  1  0.70484200  0.13088100  0.65765000  1
  H  965  1  0.72429400  0.12438700  0.70675400  1
  H  966  1  0.70745700  0.09925700  0.70949200  1
  H  967  1  0.68842400  0.10563700  0.66032300  1
  H  968  1  0.73762800  0.15646200  0.63112300  1
  H  969  1  0.79753100  0.17542000  0.63602800  1
  H  970  1  0.78016200  0.17290600  0.66055100  1
  H  971  1  0.75526700  0.15857300  0.60655900  1
  H  978  1  0.71918600  0.15593100  0.70317900  1
  H  979  1  0.73687800  0.13863100  0.65659400  1
  H  980  1  0.75427000  0.18499400  0.67498500  1
  H  981  1  0.73525800  0.20608600  0.68896900  1
  H  1003  1  0.23637100  0.72535900  0.21214000  1
  H  1004  1  0.23615200  0.70542500  0.18981700  1
  H  1005  1  0.23965200  0.68608900  0.24731700  1
  H  1006  1  0.26926700  0.63970300  0.14903400  1
  H  1007  1  0.25100300  0.68941900  0.14432100  1
  H  1008  1  0.26785700  0.69263400  0.11922800  1
  H  1009  1  0.28567400  0.64286300  0.12386700  1
  H  1010  1  0.23620000  0.61262500  0.17285200  1
  H  1011  1  0.17670300  0.61708900  0.19308200  1
  H  1012  1  0.19405000  0.64163800  0.19088300  1
  H  1013  1  0.21856700  0.58802000  0.17466600  1
  H  1020  1  0.25570700  0.68428700  0.17610000  1
  H  1021  1  0.23716400  0.63900300  0.15616800  1
  H  1022  1  0.22019900  0.65493800  0.20350900  1
  H  1023  1  0.23990000  0.66612600  0.22507700  1
  H  1045  1  0.23637300  0.22756400  0.77692400  1
  H  1046  1  0.23615400  0.24749800  0.79924600  1
  H  1047  1  0.23964800  0.26683300  0.74174400  1
  H  1048  1  0.26926500  0.31322200  0.84002600  1
  H  1049  1  0.25100200  0.26350600  0.84474100  1
  H  1050  1  0.26786000  0.26029200  0.86983300  1
  H  1051  1  0.28567500  0.31006200  0.86519000  1
  H  1052  1  0.23619700  0.34029800  0.81621200  1
  H  1053  1  0.17670100  0.33583300  0.79598000  1
  H  1054  1  0.19404700  0.31128500  0.79818000  1
  H  1055  1  0.21856500  0.36490300  0.81440000  1
  H  1062  1  0.25570700  0.26863700  0.81295800  1
  H  1063  1  0.23716700  0.31392000  0.83289400  1
  H  1064  1  0.22019500  0.29798600  0.78555400  1
  H  1065  1  0.23989600  0.28679500  0.76398400  1
  H  1087  1  0.23627700  0.75884400  0.74335500  1
  H  1088  1  0.23596900  0.78111600  0.72337000  1
  H  1089  1  0.23953800  0.72357800  0.70416400  1
  H  1090  1  0.26905500  0.82183600  0.65764700  1
  H  1091  1  0.25069100  0.82655600  0.70732800  1
  H  1092  1  0.26752300  0.85165900  0.71056600  1
  H  1093  1  0.28544500  0.84701300  0.66083100  1
  H  1094  1  0.23596000  0.79799400  0.63054400  1
  H  1095  1  0.17647700  0.77774100  0.63504700  1
  H  1096  1  0.19385000  0.77991600  0.65957800  1
  H  1097  1  0.21830100  0.79620400  0.60595400  1
  H  1104  1  0.25548700  0.79478600  0.70221600  1
  H  1105  1  0.23694100  0.81466200  0.65691500  1
  H  1106  1  0.22001000  0.76731900  0.67289200  1
  H  1107  1  0.23970100  0.74577100  0.68414700  1
  H  1129  1  0.23627800  0.19408000  0.24571200  1
  H  1130  1  0.23597000  0.17181100  0.26569900  1
  H  1131  1  0.23953100  0.22935100  0.28490000  1
  H  1132  1  0.26904900  0.13109000  0.33142000  1
  H  1133  1  0.25068700  0.12637800  0.28173600  1
  H  1134  1  0.26751100  0.10126800  0.27849900  1
  H  1135  1  0.28543100  0.10590800  0.32823700  1
  H  1136  1  0.23595400  0.15493600  0.35852600  1
  H  1137  1  0.17647300  0.17519400  0.35402200  1
  H  1138  1  0.19384600  0.17301900  0.32949000  1
  H  1139  1  0.21829400  0.15672500  0.38311300  1
  H  1146  1  0.25548100  0.15813700  0.28685100  1
  H  1147  1  0.23693200  0.13826500  0.33215200  1
  H  1148  1  0.22000400  0.18561000  0.31617500  1
  H  1149  1  0.23969300  0.20715900  0.30491900  1
  H  1171  1  0.23588300  0.22363000  0.20583400  1
  H  1172  1  0.23579300  0.24550100  0.18548700  1
  H  1173  1  0.23870300  0.25949100  0.24451300  1
  H  1174  1  0.26668900  0.31298000  0.14599400  1
  H  1175  1  0.25457900  0.26132700  0.14487700  1
  H  1176  1  0.27193700  0.25821600  0.12020600  1
  H  1177  1  0.28336700  0.30984400  0.12096500  1
  H  1178  1  0.23722600  0.33799200  0.17355900  1
  H  1179  1  0.17720900  0.33503000  0.19277700  1
  H  1180  1  0.19393000  0.30980300  0.19036600  1
  H  1181  1  0.22037800  0.36289900  0.17539400  1
  H  1188  1  0.25620900  0.26707300  0.17460800  1
  H  1189  1  0.23689900  0.31248600  0.15580900  1
  H  1190  1  0.22007400  0.29499800  0.20264900  1
  H  1191  1  0.23905900  0.28148300  0.22416900  1
  H  1213  1  0.23587100  0.72929200  0.78322900  1
  H  1214  1  0.23578200  0.70742000  0.80357600  1
  H  1215  1  0.23870400  0.69343400  0.74454900  1
  H  1216  1  0.26668900  0.63994600  0.84306600  1
  H  1217  1  0.25456700  0.69159700  0.84418600  1
  H  1218  1  0.27192300  0.69470900  0.86885700  1
  H  1219  1  0.28336600  0.64308300  0.86809500  1
  H  1220  1  0.23722000  0.61493000  0.81550900  1
  H  1221  1  0.17721000  0.61788600  0.79627200  1
  H  1222  1  0.19392700  0.64311600  0.79868900  1
  H  1223  1  0.22037600  0.59002200  0.81367100  1
  H  1230  1  0.25620300  0.68585000  0.81445300  1
  H  1231  1  0.23689600  0.64043700  0.83325300  1
  H  1232  1  0.22006900  0.65792200  0.78641300  1
  H  1233  1  0.23906200  0.67144100  0.76489300  1
  H  1255  1  0.23573400  0.18777200  0.74726500  1
  H  1256  1  0.23556100  0.16748100  0.72534400  1
  H  1257  1  0.23863400  0.22653300  0.71149500  1
  H  1258  1  0.26646600  0.12805000  0.65786700  1
  H  1259  1  0.25429800  0.12693800  0.70950800  1
  H  1260  1  0.27163000  0.10225500  0.71263700  1
  H  1261  1  0.28311900  0.10300200  0.66102000  1
  H  1262  1  0.23698000  0.15566200  0.63284000  1
  H  1263  1  0.17695700  0.17484300  0.63586400  1
  H  1264  1  0.19371200  0.17245700  0.66107200  1
  H  1265  1  0.22010000  0.15747200  0.60795300  1
  H  1272  1  0.25599900  0.15665800  0.70376600  1
  H  1273  1  0.23667700  0.13790600  0.65834300  1
  H  1274  1  0.21987100  0.18474100  0.67587500  1
  H  1275  1  0.23890600  0.20623900  0.68945100  1
  H  1297  1  0.23573200  0.76515000  0.24179900  1
  H  1298  1  0.23555700  0.78544100  0.26371900  1
  H  1299  1  0.23863100  0.72638900  0.27756800  1
  H  1300  1  0.26645900  0.82487200  0.33119400  1
  H  1301  1  0.25428200  0.82599000  0.27955500  1
  H  1302  1  0.27161700  0.85067100  0.27642600  1
  H  1303  1  0.28311600  0.84991500  0.32804000  1
  H  1304  1  0.23697200  0.79726900  0.35622100  1
  H  1305  1  0.17695600  0.77806600  0.35320200  1
  H  1306  1  0.19370800  0.78045300  0.32799300  1
  H  1307  1  0.22009200  0.79545800  0.38110700  1
  H  1314  1  0.25599000  0.79626800  0.28529500  1
  H  1315  1  0.23666600  0.81501800  0.33071800  1
  H  1316  1  0.21986700  0.76818000  0.31318700  1
  H  1317  1  0.23890000  0.74668200  0.29961200  1
  H  1339  1  0.73771500  0.22686900  0.77652000  1
  H  1340  1  0.73793600  0.24666200  0.79895800  1
  H  1341  1  0.73507500  0.26637800  0.74155700  1
  H  1342  1  0.70827500  0.31286900  0.84268800  1
  H  1343  1  0.71959500  0.26105300  0.84228900  1
  H  1344  1  0.70223200  0.25749900  0.86693800  1
  H  1345  1  0.69156000  0.30927300  0.86760200  1
  H  1346  1  0.73817600  0.33852800  0.81691900  1
  H  1347  1  0.79774500  0.33604900  0.79636000  1
  H  1348  1  0.78105800  0.31078000  0.79845800  1
  H  1349  1  0.75501200  0.36348000  0.81537100  1
  H  1356  1  0.71826100  0.26801700  0.81241700  1
  H  1357  1  0.73828900  0.31218400  0.83350900  1
  H  1358  1  0.75465600  0.29701300  0.78577700  1
  H  1359  1  0.73486300  0.28621900  0.76393000  1
  H  1381  1  0.73771300  0.72605600  0.21254000  1
  H  1382  1  0.73793200  0.70626300  0.19010200  1
  H  1383  1  0.73507900  0.68654800  0.24750400  1
  H  1384  1  0.70827000  0.64005100  0.14638200  1
  H  1385  1  0.71959100  0.69186700  0.14677200  1
  H  1386  1  0.70222300  0.69541800  0.12212300  1
  H  1387  1  0.69155100  0.64364200  0.12147000  1
  H  1388  1  0.73817600  0.61439600  0.17214800  1
  H  1389  1  0.79775000  0.61687800  0.19268900  1
  H  1390  1  0.78106300  0.64214800  0.19059100  1
  H  1391  1  0.75501200  0.58944400  0.17369500  1
  H  1398  1  0.71826000  0.68490500  0.17664700  1
  H  1399  1  0.73828500  0.64073900  0.15555500  1
  H  1400  1  0.75465900  0.65591200  0.20328200  1
  H  1401  1  0.73486600  0.66670600  0.22513200  1
  H  1423  1  0.73894900  0.18777100  0.24194300  1
  H  1424  1  0.73919800  0.16754500  0.26392200  1
  H  1425  1  0.73589500  0.22662500  0.27759900  1
  H  1426  1  0.70808100  0.12827900  0.33137300  1
  H  1427  1  0.72033900  0.12710100  0.27975100  1
  H  1428  1  0.70290300  0.10248700  0.27660100  1
  H  1429  1  0.69132700  0.10329500  0.32820000  1
  H  1430  1  0.73750600  0.15582700  0.35641200  1
  H  1431  1  0.79752500  0.17504200  0.35360700  1
  H  1432  1  0.78086500  0.17266700  0.32833800  1
  H  1433  1  0.75429200  0.15761800  0.38135200  1
  H  1440  1  0.71867400  0.15681200  0.28546900  1
  H  1441  1  0.73788900  0.13809000  0.33094100  1
  H  1442  1  0.75475900  0.18490500  0.31339500  1
  H  1443  1  0.73570600  0.20639000  0.29970400  1
  H  1465  1  0.73894500  0.76515500  0.74712000  1
  H  1466  1  0.73919800  0.78537900  0.72514000  1
  H  1467  1  0.73589900  0.72629900  0.71146500  1
  H  1468  1  0.70808100  0.82464500  0.65769000  1
  H  1469  1  0.72033300  0.82581600  0.70931400  1
  H  1470  1  0.70289400  0.85042600  0.71246600  1
  H  1471  1  0.69132200  0.84962500  0.66086600  1
  H  1472  1  0.73751000  0.79709900  0.63265100  1
  H  1473  1  0.79753100  0.77788600  0.63545800  1
  H  1474  1  0.78086900  0.78025700  0.66072500  1
  H  1475  1  0.75429800  0.79531200  0.60771300  1
  H  1482  1  0.71867400  0.79610900  0.70359400  1
  H  1483  1  0.73789000  0.81483400  0.65812500  1
  H  1484  1  0.75476400  0.76802000  0.67566800  1
  H  1485  1  0.73571300  0.74653100  0.68935900  1
  H  1506  1  0.42977200  0.60385400  0.83366300  1
  H  1507  1  0.41646200  0.60711500  0.86049800  1
  H  1508  1  0.47978000  0.60656400  0.85599500  1
  H  1509  1  0.33846500  0.62620800  0.95595100  1
  H  1510  1  0.33536500  0.59608400  0.91246700  1
  H  1511  1  0.30426300  0.59580200  0.91472500  1
  H  1512  1  0.30734500  0.62620100  0.95798500  1
  H  1513  1  0.42473100  0.61079100  0.00499700  1
  H  1514  1  0.48714000  0.60262400  0.99737598  1
  H  1515  1  0.46887000  0.60633600  0.97338000  1
  H  1516  1  0.44312000  0.60711900  0.02902000  1
  H  1523  1  0.39176500  0.61071900  0.90578900  1
  H  1524  1  0.39267900  0.61089200  0.95866800  1
  H  1525  1  0.43998000  0.61045000  0.93146400  1
  H  1526  1  0.46646900  0.60986500  0.88293700  1
  H  1537  1  0.45663500  0.59480300  0.81857100  1
  H  1538  1  0.27996800  0.61141200  0.95012200  1
  H  1539  1  0.48597900  0.59168100  0.02793300  1
  H  1557  1  0.42976200  0.22384100  0.03017400  1
  H  1558  1  0.41645700  0.22059000  0.00333500  1
  H  1559  1  0.47977300  0.22111600  0.00785000  1
  H  1560  1  0.33846600  0.20147500  0.90788400  1
  H  1561  1  0.33536900  0.23160600  0.95136400  1
  H  1562  1  0.30426700  0.23188900  0.94910600  1
  H  1563  1  0.30734600  0.20148500  0.90585100  1
  H  1564  1  0.42473100  0.21689400  0.85883700  1
  H  1565  1  0.48714100  0.22505700  0.86645600  1
  H  1566  1  0.46887100  0.22135500  0.89045200  1
  H  1567  1  0.44312300  0.22055700  0.83481100  1
  H  1574  1  0.39176700  0.21697200  0.95804400  1
  H  1575  1  0.39268200  0.21679500  0.90516600  1
  H  1576  1  0.43998200  0.21724200  0.93237100  1
  H  1577  1  0.46646600  0.21782500  0.98090600  1
  H  1588  1  0.45662800  0.23287600  0.04527800  1
  H  1589  1  0.27997200  0.21628900  0.91371300  1
  H  1590  1  0.48597600  0.23600500  0.83589800  1
  H  1608  1  0.42957200  0.81556400  0.24253400  1
  H  1609  1  0.41602900  0.84228200  0.23916800  1
  H  1610  1  0.47937900  0.83841700  0.24073700  1
  H  1611  1  0.33788200  0.93782060  0.21965800  1
  H  1612  1  0.33470500  0.89453800  0.25007300  1
  H  1613  1  0.30360200  0.89679500  0.25026200  1
  H  1614  1  0.30675800  0.93985060  0.21957500  1
  H  1615  1  0.42441000  0.98679860  0.23667200  1
  H  1616  1  0.48691500  0.97866860  0.24369500  1
  H  1617  1  0.46842600  0.95484760  0.23978000  1
  H  1618  1  0.44301600  0.01063900  0.24053600  1
  H  1625  1  0.39104900  0.88771800  0.23556800  1
  H  1626  1  0.39207500  0.94060160  0.23541400  1
  H  1627  1  0.43931500  0.91330360  0.23620200  1
  H  1628  1  0.46583900  0.86523200  0.23732700  1
  H  1639  1  0.45640900  0.80056300  0.25167400  1
  H  1640  1  0.27935200  0.93207760  0.23444000  1
  H  1641  1  0.48594500  0.00920000  0.25533700  1
  H  1659  1  0.42959700  0.01211900  0.62131300  1
  H  1660  1  0.41604500  0.98540460  0.62468400  1
  H  1661  1  0.47939400  0.98924960  0.62308600  1
  H  1662  1  0.33788900  0.88986700  0.64418300  1
  H  1663  1  0.33470900  0.93314460  0.61376000  1
  H  1664  1  0.30360600  0.93088760  0.61357500  1
  H  1665  1  0.30676500  0.88783800  0.64426900  1
  H  1666  1  0.42442700  0.84088300  0.62717200  1
  H  1667  1  0.48693000  0.84902900  0.62014300  1
  H  1668  1  0.46843200  0.87284500  0.62405300  1
  H  1669  1  0.44303800  0.81704900  0.62331100  1
  H  1676  1  0.39105500  0.93996460  0.62826700  1
  H  1677  1  0.39208000  0.88708000  0.62842200  1
  H  1678  1  0.43932000  0.91437760  0.62764100  1
  H  1679  1  0.46584700  0.96243960  0.62650100  1
  H  1690  1  0.45643700  0.02710100  0.61214000  1
  H  1691  1  0.27935900  0.89560900  0.62940900  1
  H  1692  1  0.48598300  0.81849100  0.60852100  1
  H  1710  1  0.12687300  0.60381100  0.03086400  1
  H  1711  1  0.14035800  0.60703500  0.00410400  1
  H  1712  1  0.07701000  0.60635500  0.00821000  1
  H  1713  1  0.21847400  0.62607300  0.90844400  1
  H  1714  1  0.22170200  0.59591000  0.95189400  1
  H  1715  1  0.25280100  0.59569800  0.94959700  1
  H  1716  1  0.24959200  0.62613400  0.90637300  1
  H  1717  1  0.13212100  0.60945200  0.85960400  1
  H  1718  1  0.06962500  0.60208500  0.86746000  1
  H  1719  1  0.08799500  0.60597400  0.89136900  1
  H  1720  1  0.11363400  0.60561500  0.83567300  1
  H  1727  1  0.16529300  0.61059900  0.95870100  1
  H  1728  1  0.16428600  0.61042400  0.90582100  1
  H  1729  1  0.11703600  0.60999300  0.93310400  1
  H  1730  1  0.09049600  0.60962000  0.98134600  1
  H  1741  1  0.09994100  0.59475800  0.04582200  1
  H  1742  1  0.27702400  0.61137800  0.91420500  1
  H  1743  1  0.07080000  0.59056800  0.83687800  1
  H  1761  1  0.12686700  0.22386600  0.83296100  1
  H  1762  1  0.14035500  0.22062800  0.85971700  1
  H  1763  1  0.07700700  0.22136000  0.85562400  1
  H  1764  1  0.21847200  0.20161100  0.95537900  1
  H  1765  1  0.22170700  0.23177500  0.91193100  1
  H  1766  1  0.25280600  0.23199100  0.91423500  1
  H  1767  1  0.24959100  0.20155300  0.95745800  1
  H  1768  1  0.13213400  0.21826700  0.00421800  1
  H  1769  1  0.06962700  0.22557300  0.99637498  1
  H  1770  1  0.08799400  0.22168600  0.97246200  1
  H  1771  1  0.11365100  0.22210300  0.02815000  1
  H  1778  1  0.16529500  0.21708600  0.90512200  1
  H  1779  1  0.16429000  0.21726600  0.95800300  1
  H  1780  1  0.11703800  0.21769500  0.93072100  1
  H  1781  1  0.09049600  0.21808200  0.88248500  1
  H  1792  1  0.09993500  0.23294900  0.81801800  1
  H  1793  1  0.27702600  0.21629700  0.94963000  1
  H  1794  1  0.07080400  0.23711600  0.02694400  1
  H  1812  1  0.12654800  0.81488500  0.62187600  1
  H  1813  1  0.13995700  0.84167700  0.62513600  1
  H  1814  1  0.07662200  0.83742400  0.62431500  1
  H  1815  1  0.21793900  0.93723860  0.64425700  1
  H  1816  1  0.22110500  0.89394600  0.61385500  1
  H  1817  1  0.25220500  0.89623800  0.61360700  1
  H  1818  1  0.24906200  0.93930360  0.64427900  1
  H  1819  1  0.13169800  0.98613360  0.62736900  1
  H  1820  1  0.06915300  0.97841560  0.62021200  1
  H  1821  1  0.08746800  0.95447160  0.62414200  1
  H  1822  1  0.11327100  0.01009900  0.62348800  1
  H  1829  1  0.16476200  0.88706400  0.62868500  1
  H  1830  1  0.16374000  0.93994460  0.62850700  1
  H  1831  1  0.11649500  0.91264860  0.62806500  1
  H  1832  1  0.09003000  0.86431700  0.62761700  1
  H  1843  1  0.09967100  0.79986400  0.61277400  1
  H  1844  1  0.27645500  0.93153760  0.62935500  1
  H  1845  1  0.07035900  0.00895400  0.60860000  1
  H  1863  1  0.12653900  0.01280800  0.24198000  1
  H  1864  1  0.13995000  0.98601560  0.23872700  1
  H  1865  1  0.07661400  0.99027159  0.23948300  1
  H  1866  1  0.21793500  0.89045700  0.21957500  1
  H  1867  1  0.22110100  0.93374660  0.24998100  1
  H  1868  1  0.25220000  0.93144860  0.25023700  1
  H  1869  1  0.24905800  0.88838700  0.21956100  1
  H  1870  1  0.13171200  0.84156200  0.23643100  1
  H  1871  1  0.06917500  0.84925200  0.24366600  1
  H  1872  1  0.08747300  0.87320500  0.23973000  1
  H  1873  1  0.11329700  0.81758800  0.24031800  1
  H  1880  1  0.16475600  0.94063160  0.23514300  1
  H  1881  1  0.16373600  0.88775200  0.23532300  1
  H  1882  1  0.11649100  0.91504560  0.23576500  1
  H  1883  1  0.09002400  0.96337860  0.23618700  1
  H  1894  1  0.09965400  0.02782900  0.25106200  1
  H  1895  1  0.27645100  0.89614900  0.23448600  1
  H  1896  1  0.07043200  0.81870800  0.25528200  1
  H  1914  1  0.92904170  0.11417500  0.33484400  1
  H  1915  1  0.91617270  0.11366600  0.36198700  1
  H  1916  1  0.97802870  0.10145800  0.35583000  1
  H  1917  1  0.83778500  0.12442100  0.45639000  1
  H  1918  1  0.83478000  0.09404900  0.41307000  1
  H  1919  1  0.80366000  0.09407500  0.41505900  1
  H  1920  1  0.80664200  0.12471900  0.45815400  1
  H  1921  1  0.92673270  0.10065600  0.50580900  1
  H  1922  1  0.98768970  0.11428600  0.49591000  1
  H  1923  1  0.96770370  0.11457500  0.47307600  1
  H  1924  1  0.94683770  0.10032700  0.52875200  1
  H  1931  1  0.89120700  0.10788700  0.40669000  1
  H  1932  1  0.89193700  0.10828200  0.45957500  1
  H  1933  1  0.93931870  0.10705300  0.43251800  1
  H  1934  1  0.96510370  0.10091700  0.38308900  1
  H  1945  1  0.95419870  0.11238100  0.31714100  1
  H  1946  1  0.77922700  0.10996100  0.45018800  1
  H  1947  1  0.99416172  0.10804300  0.52456500  1
  H  1965  1  0.92904870  0.71350800  0.52899000  1
  H  1966  1  0.91617970  0.71401700  0.50184800  1
  H  1967  1  0.97803170  0.72624300  0.50800500  1
  H  1968  1  0.83778300  0.70326800  0.40744800  1
  H  1969  1  0.83478600  0.73364700  0.45076400  1
  H  1970  1  0.80366600  0.73362200  0.44877600  1
  H  1971  1  0.80664100  0.70297300  0.40568700  1
  H  1972  1  0.92673370  0.72704600  0.35802800  1
  H  1973  1  0.98768770  0.71338900  0.36791800  1
  H  1974  1  0.96770170  0.71310100  0.39075400  1
  H  1975  1  0.94683770  0.72737400  0.33508400  1
  H  1982  1  0.89120900  0.71980500  0.45714600  1
  H  1983  1  0.89193900  0.71940900  0.40426100  1
  H  1984  1  0.93932170  0.72063800  0.43131800  1
  H  1985  1  0.96510470  0.72678400  0.48074600  1
  H  1996  1  0.95420970  0.71529900  0.54669100  1
  H  1997  1  0.77923200  0.71774900  0.41365200  1
  H  1998  1  0.99416072  0.71966200  0.33926800  1
  H  2016  1  0.92935470  0.31675000  0.73167300  1
  H  2017  1  0.91657170  0.34393300  0.73214400  1
  H  2018  1  0.97840270  0.33761600  0.74438800  1
  H  2019  1  0.83834200  0.43823100  0.72119500  1
  H  2020  1  0.83538700  0.39507800  0.75182000  1
  H  2021  1  0.80426600  0.39706200  0.75181900  1
  H  2022  1  0.80719600  0.43998600  0.72092600  1
  H  2023  1  0.92716270  0.48770100  0.74520200  1
  H  2024  1  0.98811770  0.47800000  0.73141000  1
  H  2025  1  0.96819670  0.45511200  0.73111100  1
  H  2026  1  0.94720070  0.51069700  0.74554200  1
  H  2033  1  0.89174700  0.38861500  0.73786500  1
  H  2034  1  0.89248900  0.44150200  0.73746300  1
  H  2035  1  0.93986770  0.41443400  0.73872900  1
  H  2036  1  0.96556170  0.36491100  0.74489000  1
  H  2047  1  0.95446670  0.29897800  0.73350400  1
  H  2048  1  0.77981400  0.43208700  0.73585000  1
  H  2049  1  0.99451572  0.50665800  0.73770400  1
  H  2067  1  0.92935870  0.51093800  0.13215400  1
  H  2068  1  0.91657370  0.48375600  0.13167800  1
  H  2069  1  0.97841170  0.49007200  0.11946000  1
  H  2070  1  0.83834800  0.38946300  0.14264000  1
  H  2071  1  0.83539100  0.43260600  0.11200400  1
  H  2072  1  0.80427000  0.43062300  0.11200500  1
  H  2073  1  0.80720300  0.38770700  0.14291100  1
  H  2074  1  0.92716270  0.33998300  0.11864700  1
  H  2075  1  0.98812470  0.34968800  0.13240300  1
  H  2076  1  0.96820770  0.37257800  0.13269800  1
  H  2077  1  0.94719770  0.31698600  0.11831200  1
  H  2084  1  0.89175300  0.43907200  0.12596400  1
  H  2085  1  0.89249500  0.38618700  0.12636500  1
  H  2086  1  0.93987270  0.41325400  0.12510100  1
  H  2087  1  0.96556970  0.46277700  0.11895300  1
  H  2098  1  0.95447870  0.52870400  0.13035500  1
  H  2099  1  0.77982200  0.39559900  0.12798800  1
  H  2100  1  0.99451772  0.32102200  0.12614900  1
  H  2118  1  0.62683800  0.11483500  0.52975600  1
  H  2119  1  0.63965700  0.11428200  0.50259400  1
  H  2120  1  0.57777600  0.10227100  0.50884800  1
  H  2121  1  0.71800200  0.12447600  0.40808800  1
  H  2122  1  0.72100700  0.09414200  0.45143500  1
  H  2123  1  0.75212400  0.09410500  0.44940200  1
  H  2124  1  0.74914300  0.12471000  0.40628100  1
  H  2125  1  0.62935200  0.10077300  0.35874500  1
  H  2126  1  0.56834800  0.11449000  0.36823300  1
  H  2127  1  0.58817200  0.11477800  0.39119600  1
  H  2128  1  0.60940700  0.10044300  0.33567100  1
  H  2135  1  0.66456500  0.10828100  0.45788500  1
  H  2136  1  0.66385600  0.10837100  0.40500100  1
  H  2137  1  0.61645800  0.10746400  0.43204300  1
  H  2138  1  0.59065200  0.10169700  0.48157000  1
  H  2149  1  0.60182800  0.11262800  0.54760800  1
  H  2150  1  0.77655100  0.10988700  0.41424600  1
  H  2151  1  0.56206200  0.10819700  0.33956200  1
  H  2169  1  0.62684000  0.71285900  0.33407200  1
  H  2170  1  0.63966000  0.71341400  0.36123500  1
  H  2171  1  0.57777500  0.72541400  0.35498200  1
  H  2172  1  0.71800200  0.70321300  0.45573800  1
  H  2173  1  0.72101300  0.73355100  0.41239500  1
  H  2174  1  0.75212900  0.73359300  0.41443600  1
  H  2175  1  0.74914300  0.70298500  0.45755300  1
  H  2176  1  0.62935800  0.72692600  0.50508400  1
  H  2177  1  0.56835300  0.71320400  0.49559900  1
  H  2178  1  0.58817600  0.71291500  0.47263600  1
  H  2179  1  0.60941300  0.72725500  0.52815900  1
  H  2186  1  0.66456600  0.71941000  0.40594300  1
  H  2187  1  0.66385900  0.71932200  0.45882700  1
  H  2188  1  0.61646100  0.72022800  0.43178600  1
  H  2189  1  0.59065200  0.72598900  0.38226000  1
  H  2200  1  0.60182900  0.71506500  0.31622100  1
  H  2201  1  0.77655300  0.71779400  0.44959600  1
  H  2202  1  0.56206700  0.71950100  0.52426900  1
  H  2220  1  0.62720900  0.31610000  0.13215500  1
  H  2221  1  0.64018900  0.34319600  0.13161800  1
  H  2222  1  0.57831500  0.33725500  0.11937200  1
  H  2223  1  0.71862200  0.43762000  0.14254400  1
  H  2224  1  0.72169100  0.39449000  0.11189800  1
  H  2225  1  0.75280800  0.39652400  0.11193700  1
  H  2226  1  0.74976700  0.43942400  0.14285100  1
  H  2227  1  0.62987400  0.48693200  0.11805600  1
  H  2228  1  0.56879900  0.47721800  0.13137400  1
  H  2229  1  0.58875200  0.45435300  0.13195800  1
  H  2230  1  0.60980700  0.50989400  0.11742800  1
  H  2237  1  0.66528700  0.38792100  0.12589000  1
  H  2238  1  0.66453800  0.44081100  0.12607200  1
  H  2239  1  0.61716700  0.41373300  0.12479200  1
  H  2240  1  0.59135400  0.36446400  0.11879700  1
  H  2251  1  0.60189300  0.29854600  0.13062200  1
  H  2252  1  0.77719300  0.43155600  0.12793900  1
  H  2253  1  0.56242200  0.50583400  0.12468100  1
  H  2271  1  0.62719900  0.51159300  0.73165300  1
  H  2272  1  0.64018000  0.48449700  0.73219000  1
  H  2273  1  0.57830900  0.49043900  0.74445600  1
  H  2274  1  0.71861700  0.39006800  0.72128800  1
  H  2275  1  0.72168600  0.43320600  0.75192200  1
  H  2276  1  0.75280200  0.43116900  0.75189100  1
  H  2277  1  0.74976200  0.38825900  0.72098700  1
  H  2278  1  0.62986600  0.34076700  0.74579200  1
  H  2279  1  0.56880000  0.35047000  0.73242900  1
  H  2280  1  0.58875400  0.37333400  0.73183900  1
  H  2281  1  0.60980100  0.31780500  0.74642700  1
  H  2288  1  0.66528200  0.43977400  0.73793000  1
  H  2289  1  0.66453300  0.38688400  0.73775000  1
  H  2290  1  0.61716200  0.41396000  0.73902600  1
  H  2291  1  0.59135000  0.46323000  0.74502900  1
  H  2302  1  0.60188100  0.52914500  0.73318600  1
  H  2303  1  0.77718900  0.39613000  0.73589300  1
  H  2304  1  0.56242000  0.32186400  0.73917200  1
  H  2323  1  0.52897500  0.66285600  0.71430200  1
  H  2324  1  0.52911000  0.64298700  0.73668900  1
  H  2325  1  0.52561300  0.62348800  0.67924000  1
  H  2326  1  0.49609700  0.57727600  0.77767300  1
  H  2327  1  0.51431300  0.62701500  0.78229200  1
  H  2328  1  0.49757700  0.63021400  0.80745900  1
  H  2329  1  0.47980500  0.58042200  0.80290900  1
  H  2330  1  0.52926500  0.55019600  0.75381600  1
  H  2331  1  0.58873600  0.55491300  0.73357000  1
  H  2332  1  0.57127600  0.57938200  0.73576100  1
  H  2333  1  0.54701000  0.52566100  0.75199300  1
  H  2340  1  0.50954000  0.62184900  0.75050500  1
  H  2341  1  0.52819400  0.57661800  0.77048000  1
  H  2342  1  0.54506500  0.59251600  0.72309900  1
  H  2343  1  0.52528500  0.60359700  0.70154100  1
  H  2365  1  0.52897500  0.16483500  0.14952900  1
  H  2366  1  0.52911100  0.18470400  0.12714200  1
  H  2367  1  0.52562400  0.20420300  0.18459000  1
  H  2368  1  0.49609900  0.25041500  0.08616200  1
  H  2369  1  0.51432400  0.20068000  0.08153500  1
  H  2370  1  0.49758200  0.19747900  0.05637200  1
  H  2371  1  0.47980200  0.24726800  0.06093000  1
  H  2372  1  0.52927200  0.27749400  0.11000800  1
  H  2373  1  0.58874400  0.27278200  0.13025700  1
  H  2374  1  0.57128400  0.24831200  0.12806700  1
  H  2375  1  0.54701700  0.30202900  0.11182700  1
  H  2382  1  0.50954600  0.20584400  0.11333000  1
  H  2383  1  0.52819500  0.25107200  0.09334900  1
  H  2384  1  0.54507600  0.23517600  0.14072900  1
  H  2385  1  0.52529700  0.22409500  0.16229100  1
  H  2407  1  0.53029100  0.70305700  0.17984400  1
  H  2408  1  0.53049000  0.72320100  0.20191300  1
  H  2409  1  0.52650400  0.66409200  0.21530800  1
  H  2410  1  0.49581200  0.75941700  0.26879900  1
  H  2411  1  0.51527200  0.76592800  0.21969800  1
  H  2412  1  0.49842400  0.79105000  0.21696200  1
  H  2413  1  0.47938300  0.78465400  0.26612500  1
  H  2414  1  0.52860300  0.73384300  0.29532300  1
  H  2415  1  0.58850700  0.71488900  0.29041800  1
  H  2416  1  0.57113900  0.71740500  0.26589400  1
  H  2417  1  0.54624000  0.73172900  0.31988700  1
  H  2424  1  0.51016000  0.73437400  0.22326900  1
  H  2425  1  0.52784900  0.75167500  0.26985400  1
  H  2426  1  0.54524700  0.70531300  0.25146000  1
  H  2427  1  0.52623300  0.68422200  0.23747600  1
  H  2449  1  0.53028600  0.12463400  0.68398400  1
  H  2450  1  0.53048400  0.10449000  0.66191500  1
  H  2451  1  0.52650200  0.16359900  0.64851900  1
  H  2452  1  0.49581600  0.06826400  0.59503300  1
  H  2453  1  0.51526800  0.06177000  0.64413700  1
  H  2454  1  0.49843100  0.03664000  0.64687500  1
  H  2455  1  0.47939800  0.04302000  0.59770600  1
  H  2456  1  0.52860200  0.09384500  0.56850600  1
  H  2457  1  0.58850500  0.11280300  0.57341100  1
  H  2458  1  0.57113600  0.11028900  0.59793400  1
  H  2459  1  0.54624100  0.09595600  0.54394200  1
  H  2466  1  0.51016000  0.09331400  0.64056200  1
  H  2467  1  0.52785200  0.07601400  0.59397700  1
  H  2468  1  0.54524400  0.12237700  0.61236800  1
  H  2469  1  0.52623200  0.14346900  0.62635200  1
  H  2491  1  0.02734500  0.66274200  0.14952300  1
  H  2492  1  0.02712600  0.64280800  0.12720000  1
  H  2493  1  0.03062600  0.62347200  0.18470000  1
  H  2494  1  0.06024100  0.57708600  0.08641700  1
  H  2495  1  0.04197700  0.62680200  0.08170400  1
  H  2496  1  0.05883100  0.63001700  0.05661100  1
  H  2497  1  0.07664800  0.58024600  0.06125000  1
  H  2498  1  0.02717400  0.55000800  0.11023500  1
  H  2499  1  0.96767670  0.55447200  0.13046500  1
  H  2500  1  0.98502370  0.57902100  0.12826600  1
  H  2501  1  0.00954100  0.52540300  0.11204900  1
  H  2508  1  0.04668100  0.62167000  0.11348300  1
  H  2509  1  0.02813800  0.57638600  0.09355100  1
  H  2510  1  0.01117300  0.59232100  0.14089200  1
  H  2511  1  0.03087400  0.60350900  0.16246000  1
  H  2533  1  0.02734700  0.16494700  0.71430700  1
  H  2534  1  0.02712800  0.18488100  0.73662900  1
  H  2535  1  0.03062200  0.20421600  0.67912700  1
  H  2536  1  0.06023900  0.25060500  0.77740900  1
  H  2537  1  0.04197600  0.20088900  0.78212400  1
  H  2538  1  0.05883400  0.19767500  0.80721600  1
  H  2539  1  0.07664900  0.24744500  0.80257300  1
  H  2540  1  0.02717100  0.27768100  0.75359500  1
  H  2541  1  0.96767470  0.27321600  0.73336300  1
  H  2542  1  0.98502070  0.24866800  0.73556300  1
  H  2543  1  0.00953900  0.30228600  0.75178300  1
  H  2550  1  0.04668100  0.20602000  0.75034100  1
  H  2551  1  0.02814100  0.25130300  0.77027700  1
  H  2552  1  0.01116900  0.23536900  0.72293700  1
  H  2553  1  0.03087000  0.22417800  0.70136700  1
  H  2575  1  0.02725100  0.69622700  0.68073800  1
  H  2576  1  0.02694300  0.71849900  0.66075300  1
  H  2577  1  0.03051200  0.66096100  0.64154700  1
  H  2578  1  0.06002900  0.75921900  0.59503000  1
  H  2579  1  0.04166500  0.76393900  0.64471100  1
  H  2580  1  0.05849700  0.78904200  0.64794900  1
  H  2581  1  0.07641900  0.78439600  0.59821400  1
  H  2582  1  0.02693400  0.73537700  0.56792700  1
  H  2583  1  0.96745070  0.71512400  0.57243000  1
  H  2584  1  0.98482370  0.71729900  0.59696100  1
  H  2585  1  0.00927500  0.73358700  0.54333700  1
  H  2592  1  0.04646100  0.73216900  0.63959900  1
  H  2593  1  0.02791500  0.75204500  0.59429800  1
  H  2594  1  0.01098400  0.70470200  0.61027500  1
  H  2595  1  0.03067500  0.68315400  0.62153000  1
  H  2617  1  0.02725200  0.13146300  0.18309500  1
  H  2618  1  0.02694400  0.10919400  0.20308200  1
  H  2619  1  0.03050500  0.16673400  0.22228300  1
  H  2620  1  0.06002300  0.06847300  0.26880300  1
  H  2621  1  0.04166100  0.06376100  0.21911900  1
  H  2622  1  0.05848500  0.03865100  0.21588200  1
  H  2623  1  0.07640500  0.04329100  0.26562000  1
  H  2624  1  0.02692800  0.09231900  0.29590900  1
  H  2625  1  0.96744670  0.11257700  0.29140500  1
  H  2626  1  0.98481970  0.11040200  0.26687300  1
  H  2627  1  0.00926800  0.09410800  0.32049600  1
  H  2634  1  0.04645500  0.09552000  0.22423400  1
  H  2635  1  0.02790600  0.07564800  0.26953500  1
  H  2636  1  0.01097800  0.12299300  0.25355800  1
  H  2637  1  0.03066700  0.14454200  0.24230200  1
  H  2659  1  0.02685700  0.16101300  0.14321700  1
  H  2660  1  0.02676700  0.18288400  0.12287000  1
  H  2661  1  0.02967700  0.19687400  0.18189600  1
  H  2662  1  0.05766300  0.25036300  0.08337700  1
  H  2663  1  0.04555300  0.19871000  0.08226000  1
  H  2664  1  0.06291100  0.19559900  0.05758900  1
  H  2665  1  0.07434100  0.24722700  0.05834800  1
  H  2666  1  0.02820000  0.27537500  0.11094200  1
  H  2667  1  0.96818270  0.27241300  0.13016000  1
  H  2668  1  0.98490370  0.24718600  0.12774900  1
  H  2669  1  0.01135200  0.30028200  0.11277700  1
  H  2676  1  0.04718300  0.20445600  0.11199100  1
  H  2677  1  0.02787300  0.24986900  0.09319200  1
  H  2678  1  0.01104800  0.23238100  0.14003200  1
  H  2679  1  0.03003300  0.21886600  0.16155200  1
  H  2701  1  0.02684500  0.66666667  0.72061200  1
  H  2702  1  0.02675600  0.64480300  0.74095900  1
  H  2703  1  0.02967800  0.63081700  0.68193200  1
  H  2704  1  0.05766300  0.57732900  0.78044900  1
  H  2705  1  0.04554100  0.62898000  0.78156900  1
  H  2706  1  0.06289700  0.63209200  0.80624000  1
  H  2707  1  0.07434000  0.58046600  0.80547800  1
  H  2708  1  0.02819400  0.55231300  0.75289200  1
  H  2709  1  0.96818370  0.55526900  0.73365500  1
  H  2710  1  0.98490070  0.58049900  0.73607200  1
  H  2711  1  0.01135000  0.52740500  0.75105400  1
  H  2718  1  0.04717700  0.62323300  0.75183600  1
  H  2719  1  0.02787000  0.57782000  0.77063600  1
  H  2720  1  0.01104300  0.59530500  0.72379600  1
  H  2721  1  0.03003600  0.60882400  0.70227600  1
  H  2743  1  0.02670800  0.12515500  0.68464800  1
  H  2744  1  0.02653500  0.10486400  0.66272700  1
  H  2745  1  0.02960800  0.16391600  0.64887800  1
  H  2746  1  0.05744000  0.06543300  0.59525000  1
  H  2747  1  0.04527200  0.06432100  0.64689100  1
  H  2748  1  0.06260400  0.03963800  0.65002000  1
  H  2749  1  0.07409300  0.04038500  0.59840300  1
  H  2750  1  0.02795400  0.09304500  0.57022300  1
  H  2751  1  0.96793070  0.11222600  0.57324700  1
  H  2752  1  0.98468570  0.10984000  0.59845500  1
  H  2753  1  0.01107400  0.09485500  0.54533600  1
  H  2760  1  0.04697300  0.09404100  0.64114900  1
  H  2761  1  0.02765100  0.07528900  0.59572600  1
  H  2762  1  0.01084500  0.12212400  0.61325800  1
  H  2763  1  0.02988000  0.14362200  0.62683400  1
  H  2785  1  0.02670600  0.70253300  0.17918200  1
  H  2786  1  0.02653100  0.72282400  0.20110200  1
  H  2787  1  0.02960500  0.66377200  0.21495100  1
  H  2788  1  0.05743300  0.76225500  0.26857700  1
  H  2789  1  0.04525600  0.76337300  0.21693800  1
  H  2790  1  0.06259100  0.78805400  0.21380900  1
  H  2791  1  0.07409000  0.78729800  0.26542300  1
  H  2792  1  0.02794600  0.73465200  0.29360400  1
  H  2793  1  0.96792970  0.71544900  0.29058500  1
  H  2794  1  0.98468170  0.71783600  0.26537600  1
  H  2795  1  0.01106600  0.73284100  0.31849000  1
  H  2802  1  0.04696400  0.73365100  0.22267800  1
  H  2803  1  0.02764000  0.75240100  0.26810100  1
  H  2804  1  0.01084100  0.70556300  0.25057000  1
  H  2805  1  0.02987400  0.68406500  0.23699500  1
  H  2827  1  0.52868900  0.16425200  0.71390300  1
  H  2828  1  0.52891000  0.18404500  0.73634100  1
  H  2829  1  0.52604900  0.20376100  0.67894000  1
  H  2830  1  0.49924900  0.25025200  0.78007100  1
  H  2831  1  0.51056900  0.19843600  0.77967200  1
  H  2832  1  0.49320600  0.19488200  0.80432100  1
  H  2833  1  0.48253400  0.24665600  0.80498500  1
  H  2834  1  0.52915000  0.27591100  0.75430200  1
  H  2835  1  0.58871900  0.27343200  0.73374300  1
  H  2836  1  0.57203200  0.24816300  0.73584100  1
  H  2837  1  0.54598600  0.30086300  0.75275400  1
  H  2844  1  0.50923500  0.20540000  0.74980000  1
  H  2845  1  0.52926300  0.24956700  0.77089200  1
  H  2846  1  0.54563000  0.23439600  0.72316000  1
  H  2847  1  0.52583700  0.22360200  0.70131300  1
  H  2869  1  0.52868700  0.66343900  0.14992300  1
  H  2870  1  0.52890600  0.64364600  0.12748500  1
  H  2871  1  0.52605300  0.62393100  0.18488700  1
  H  2872  1  0.49924400  0.57743400  0.08376500  1
  H  2873  1  0.51056500  0.62925000  0.08415500  1
  H  2874  1  0.49319700  0.63280100  0.05950600  1
  H  2875  1  0.48252500  0.58102500  0.05885300  1
  H  2876  1  0.52915000  0.55177900  0.10953100  1
  H  2877  1  0.58872400  0.55426100  0.13007200  1
  H  2878  1  0.57203700  0.57953100  0.12797400  1
  H  2879  1  0.54598600  0.52682700  0.11107800  1
  H  2886  1  0.50923400  0.62228800  0.11403000  1
  H  2887  1  0.52925900  0.57812200  0.09293800  1
  H  2888  1  0.54563300  0.59329500  0.14066500  1
  H  2889  1  0.52584000  0.60408900  0.16251500  1
  H  2911  1  0.52992300  0.12515400  0.17932600  1
  H  2912  1  0.53017200  0.10492800  0.20130500  1
  H  2913  1  0.52686900  0.16400800  0.21498200  1
  H  2914  1  0.49905500  0.06566200  0.26875600  1
  H  2915  1  0.51131300  0.06448400  0.21713400  1
  H  2916  1  0.49387700  0.03987000  0.21398400  1
  H  2917  1  0.48230100  0.04067800  0.26558300  1
  H  2918  1  0.52848000  0.09321000  0.29379500  1
  H  2919  1  0.58849900  0.11242500  0.29099000  1
  H  2920  1  0.57183900  0.11005000  0.26572100  1
  H  2921  1  0.54526600  0.09500100  0.31873500  1
  H  2928  1  0.50964800  0.09419500  0.22285200  1
  H  2929  1  0.52886300  0.07547300  0.26832400  1
  H  2930  1  0.54573300  0.12228800  0.25077800  1
  H  2931  1  0.52668000  0.14377300  0.23708700  1
  H  2953  1  0.52991900  0.70253800  0.68450300  1
  H  2954  1  0.53017200  0.72276200  0.66252300  1
  H  2955  1  0.52687300  0.66368200  0.64884800  1
  H  2956  1  0.49905500  0.76202800  0.59507300  1
  H  2957  1  0.51130700  0.76319900  0.64669700  1
  H  2958  1  0.49386800  0.78780900  0.64984900  1
  H  2959  1  0.48229600  0.78700800  0.59824900  1
  H  2960  1  0.52848400  0.73448200  0.57003400  1
  H  2961  1  0.58850500  0.71526900  0.57284100  1
  H  2962  1  0.57184300  0.71764000  0.59810800  1
  H  2963  1  0.54527200  0.73269500  0.54509600  1
  H  2970  1  0.50964800  0.73349200  0.64097700  1
  H  2971  1  0.52886400  0.75221700  0.59550800  1
  H  2972  1  0.54573800  0.70540300  0.61305100  1
  H  2973  1  0.52668700  0.68391400  0.62674200  1
  C  1  1  0.54886000  0.67389600  0.99653700  1
  C  2  1  0.64925400  0.67155400  0.93683400  1
  C  3  1  0.65413400  0.67168900  0.04957600  1
  C  4  1  0.66763000  0.67149500  0.93521200  1
  C  5  1  0.66513000  0.66776300  0.90473600  1
  C  6  1  0.64672900  0.66797600  0.90651700  1
  C  7  1  0.63886500  0.66989600  0.92232900  1
  C  8  1  0.53862000  0.66523800  0.98465200  1
  C  9  1  0.52025800  0.66518100  0.98593600  1
  C  10  1  0.51160000  0.67391700  0.99898300  1
  C  11  1  0.52205600  0.68249700  0.01084800  1
  C  12  1  0.54041300  0.68252500  0.00966500  1
  C  13  1  0.64694700  0.67204500  0.06586800  1
  C  14  1  0.65777500  0.66997900  0.08000400  1
  C  15  1  0.67597500  0.66746000  0.07815500  1
  C  16  1  0.68307600  0.66726700  0.06179900  1
  C  17  1  0.67232000  0.66944400  0.04766900  1
  C  29  1  0.62668200  0.67336000  0.00981300  1
  C  30  1  0.60821700  0.67346500  0.01002900  1
  C  31  1  0.59864800  0.67347300  0.99488000  1
  C  32  1  0.60769300  0.67336200  0.97944500  1
  C  33  1  0.62616100  0.67325100  0.97908000  1
  C  34  1  0.63558000  0.67322300  0.99430000  1
  C  39  1  0.64414100  0.67272400  0.03633200  1
  C  40  1  0.63554900  0.67318200  0.02382200  1
  C  41  1  0.64180800  0.67251800  0.95154000  1
  C  42  1  0.63446800  0.67299800  0.96476200  1
  C  43  1  0.58155100  0.67356800  0.99516700  1
  C  44  1  0.56592500  0.67370100  0.99564800  1
  C  45  1  0.68657400  0.66372800  0.09172100  1
  C  46  1  0.49344200  0.67364400  0.00103200  1
  C  47  1  0.67241000  0.66454300  0.88911900  1
  C  48  1  0.67546200  0.66964900  0.91933400  1
  C  52  1  0.54886100  0.27902000  0.99253300  1
  C  53  1  0.64925000  0.28138600  0.05223600  1
  C  54  1  0.65413400  0.28123200  0.93949100  1
  C  55  1  0.66762600  0.28142400  0.05386500  1
  C  56  1  0.66512200  0.28516700  0.08433900  1
  C  57  1  0.64672100  0.28496500  0.08255300  1
  C  58  1  0.63886000  0.28305000  0.06674000  1
  C  59  1  0.53862400  0.28768500  0.00441300  1
  C  60  1  0.52026000  0.28773300  0.00313700  1
  C  61  1  0.51160100  0.27899500  0.99009200  1
  C  62  1  0.52205900  0.27042100  0.97822400  1
  C  63  1  0.54041400  0.27038800  0.97940800  1
  C  64  1  0.64694700  0.28088800  0.92319900  1
  C  65  1  0.65777300  0.28295800  0.90906300  1
  C  66  1  0.67597900  0.28545000  0.91091000  1
  C  67  1  0.68307600  0.28565700  0.92726600  1
  C  68  1  0.67232000  0.28348100  0.94139800  1
  C  80  1  0.62668400  0.27956500  0.97925600  1
  C  81  1  0.60822000  0.27945900  0.97903900  1
  C  82  1  0.59865000  0.27945100  0.99418700  1
  C  83  1  0.60769600  0.27956300  0.00962300  1
  C  84  1  0.62616200  0.27967400  0.00998900  1
  C  85  1  0.63558200  0.27970200  0.99476900  1
  C  90  1  0.64414200  0.28019900  0.95273600  1
  C  91  1  0.63555100  0.27974200  0.96524700  1
  C  92  1  0.64180800  0.28041400  0.03752900  1
  C  93  1  0.63446900  0.27993100  0.02430800  1
  C  94  1  0.58155300  0.27935400  0.99390000  1
  C  95  1  0.56592700  0.27922000  0.99341900  1
  C  96  1  0.68658100  0.28918300  0.89734700  1
  C  97  1  0.49344500  0.27928100  0.98803800  1
  C  98  1  0.67240200  0.28837400  0.09995900  1
  C  99  1  0.67545600  0.28328000  0.06974200  1
  C  103  1  0.54822900  0.97850600  0.29735600  1
  C  104  1  0.64870900  0.91885000  0.30042100  1
  C  105  1  0.65373600  0.03124300  0.30031800  1
  C  106  1  0.66709700  0.91742500  0.30077400  1
  C  107  1  0.66485400  0.88692000  0.30436300  1
  C  108  1  0.64644000  0.88850800  0.30384700  1
  C  109  1  0.63844200  0.90424500  0.30185700  1
  C  110  1  0.53797600  0.96667600  0.30607100  1
  C  111  1  0.51961600  0.96795600  0.30607000  1
  C  112  1  0.51098700  0.98094800  0.29722700  1
  C  113  1  0.52145800  0.99275800  0.28859100  1
  C  114  1  0.53981200  0.99157500  0.28861300  1
  C  115  1  0.64663600  0.04756900  0.30042900  1
  C  116  1  0.65758500  0.06159400  0.30260700  1
  C  117  1  0.67581100  0.05957900  0.30479400  1
  C  118  1  0.68282800  0.04319600  0.30454200  1
  C  119  1  0.67194400  0.02917600  0.30224800  1
  C  131  1  0.62604600  0.99168800  0.29835800  1
  C  132  1  0.60758600  0.99194900  0.29811300  1
  C  133  1  0.59799300  0.97681800  0.29803000  1
  C  134  1  0.60699800  0.96136300  0.29820400  1
  C  135  1  0.62546000  0.96097200  0.29845200  1
  C  136  1  0.63491500  0.97616600  0.29855400  1
  C  141  1  0.64364000  0.01809700  0.29917500  1
  C  142  1  0.63495400  0.00565700  0.29862300  1
  C  143  1  0.64114300  0.93347700  0.29935700  1
  C  144  1  0.63374700  0.94666100  0.29878900  1
  C  145  1  0.58090600  0.97713200  0.29782800  1
  C  146  1  0.56528400  0.97762400  0.29761600  1
  C  147  1  0.68654000  0.07302500  0.30852900  1
  C  148  1  0.49283600  0.98299000  0.29745500  1
  C  149  1  0.67225700  0.87135000  0.30750900  1
  C  150  1  0.67506200  0.90162700  0.30271400  1
  C  154  1  0.54823400  0.97441100  0.69171200  1
  C  155  1  0.64872100  0.03406400  0.68865500  1
  C  156  1  0.65374900  0.92167800  0.68875600  1
  C  157  1  0.66710900  0.03548200  0.68828700  1
  C  158  1  0.66487500  0.06599000  0.68471400  1
  C  159  1  0.64646100  0.06440700  0.68522600  1
  C  160  1  0.63845800  0.04867200  0.68722300  1
  C  161  1  0.53798000  0.98624000  0.68299500  1
  C  162  1  0.51962000  0.98496400  0.68300400  1
  C  163  1  0.51099200  0.97197400  0.69184900  1
  C  164  1  0.52146300  0.96016500  0.70048700  1
  C  165  1  0.53981700  0.96134500  0.70045900  1
  C  166  1  0.64665300  0.90535000  0.68865600  1
  C  167  1  0.65760300  0.89132900  0.68646200  1
  C  168  1  0.67582900  0.89334900  0.68426800  1
  C  169  1  0.68284100  0.90973300  0.68451900  1
  C  170  1  0.67195600  0.92375000  0.68682400  1
  C  182  1  0.62605100  0.96122800  0.69071700  1
  C  183  1  0.60759100  0.96096700  0.69095800  1
  C  184  1  0.59799800  0.97609900  0.69104000  1
  C  185  1  0.60700300  0.99155300  0.69086600  1
  C  186  1  0.62546600  0.99194400  0.69062100  1
  C  187  1  0.63492000  0.97675000  0.69052100  1
  C  192  1  0.64364700  0.93482100  0.68990000  1
  C  193  1  0.63495900  0.94726000  0.69045300  1
  C  194  1  0.64115000  0.01943900  0.68971800  1
  C  195  1  0.63375300  0.00625500  0.69028600  1
  C  196  1  0.58091200  0.97578400  0.69124100  1
  C  197  1  0.56529000  0.97529300  0.69145200  1
  C  198  1  0.68656300  0.87990000  0.68055100  1
  C  199  1  0.49284100  0.96993100  0.69162500  1
  C  200  1  0.67228200  0.08155400  0.68154800  1
  C  201  1  0.67507800  0.05127800  0.68635100  1
  C  205  1  0.42619700  0.67374200  0.99308400  1
  C  206  1  0.32570400  0.67138000  0.05285400  1
  C  207  1  0.32078300  0.67085500  0.94031400  1
  C  208  1  0.30731700  0.67129900  0.05435800  1
  C  209  1  0.30962200  0.66762700  0.08485400  1
  C  210  1  0.32803400  0.66787700  0.08318900  1
  C  211  1  0.33600000  0.66977600  0.06742300  1
  C  212  1  0.43647100  0.66509300  0.00494800  1
  C  213  1  0.45483100  0.66507900  0.00364200  1
  C  214  1  0.46345200  0.67385000  0.99059500  1
  C  215  1  0.45295900  0.68240900  0.97874500  1
  C  216  1  0.43460500  0.68240200  0.97995300  1
  C  217  1  0.32794700  0.67085800  0.92401100  1
  C  218  1  0.31706700  0.66869400  0.90993300  1
  C  219  1  0.29884300  0.66640900  0.91186500  1
  C  220  1  0.29176400  0.66653700  0.92822500  1
  C  221  1  0.30257500  0.66883400  0.94229700  1
  C  233  1  0.34836100  0.67287900  0.97995800  1
  C  234  1  0.36682300  0.67304900  0.97970600  1
  C  235  1  0.37641700  0.67319000  0.99483800  1
  C  236  1  0.36739900  0.67315000  0.01028900  1
  C  237  1  0.34893300  0.67297800  0.01068200  1
  C  238  1  0.33948800  0.67281500  0.99548000  1
  C  243  1  0.33082000  0.67200100  0.95350800  1
  C  244  1  0.33946400  0.67257500  0.96597700  1
  C  245  1  0.33324300  0.67232700  0.03819400  1
  C  246  1  0.34063500  0.67277400  0.02500000  1
  C  247  1  0.39351200  0.67333700  0.99451900  1
  C  248  1  0.40913500  0.67350900  0.99400000  1
  C  249  1  0.28818400  0.66268000  0.89836200  1
  C  250  1  0.48160900  0.67361400  0.98853100  1
  C  251  1  0.30224200  0.66443300  0.10043100  1
  C  252  1  0.29938300  0.66944800  0.07018600  1
  C  256  1  0.42619800  0.27918200  0.99597800  1
  C  257  1  0.32570200  0.28152100  0.93620600  1
  C  258  1  0.32078800  0.28207100  0.04874600  1
  C  259  1  0.30731600  0.28162500  0.93470600  1
  C  260  1  0.30961700  0.28529100  0.90421000  1
  C  261  1  0.32802900  0.28502300  0.90586900  1
  C  262  1  0.33599700  0.28311600  0.92163400  1
  C  263  1  0.43647500  0.28783700  0.98412000  1
  C  264  1  0.45483500  0.28784800  0.98542700  1
  C  265  1  0.46345200  0.27908200  0.99847700  1
  C  266  1  0.45295900  0.27051600  0.01032200  1
  C  267  1  0.43460500  0.27052400  0.00911100  1
  C  268  1  0.32795600  0.28207100  0.06504700  1
  C  269  1  0.31708000  0.28424400  0.07912700  1
  C  270  1  0.29885400  0.28651200  0.07719900  1
  C  271  1  0.29176800  0.28636400  0.06084100  1
  C  272  1  0.30257800  0.28407400  0.04676600  1
  C  284  1  0.34836400  0.28004500  0.00910100  1
  C  285  1  0.36682600  0.27987300  0.00935300  1
  C  286  1  0.37641900  0.27973000  0.99422000  1
  C  287  1  0.36740100  0.27977100  0.97876800  1
  C  288  1  0.34893600  0.27994300  0.97837600  1
  C  289  1  0.33949000  0.28010600  0.99357800  1
  C  294  1  0.33082200  0.28092300  0.03555000  1
  C  295  1  0.33946700  0.28034900  0.02308100  1
  C  296  1  0.33324300  0.28058600  0.95086500  1
  C  297  1  0.34063600  0.28014400  0.96405800  1
  C  298  1  0.39351500  0.27958400  0.99453900  1
  C  299  1  0.40913800  0.27941200  0.99505700  1
  C  300  1  0.28819900  0.29025000  0.09070300  1
  C  301  1  0.48161000  0.27930600  0.00053900  1
  C  302  1  0.30223500  0.28850200  0.88863700  1
  C  303  1  0.29938000  0.28346600  0.91887700  1
  C  307  1  0.42563800  0.97791200  0.69180900  1
  C  308  1  0.32526200  0.91810300  0.68943900  1
  C  309  1  0.32030000  0.03070800  0.68889400  1
  C  310  1  0.30688100  0.91655800  0.68931800  1
  C  311  1  0.30927300  0.88607000  0.68564300  1
  C  312  1  0.32768000  0.88777500  0.68593400  1
  C  313  1  0.33560100  0.90355900  0.68785200  1
  C  314  1  0.43588800  0.96609100  0.68307900  1
  C  315  1  0.45424700  0.96739200  0.68304400  1
  C  316  1  0.46288000  0.98039200  0.69187200  1
  C  317  1  0.45241300  0.99220000  0.70051300  1
  C  318  1  0.43405900  0.99099800  0.70052400  1
  C  319  1  0.32751600  0.04699000  0.68881100  1
  C  320  1  0.31667100  0.06108900  0.68661600  1
  C  321  1  0.29843600  0.05919400  0.68438800  1
  C  322  1  0.29130600  0.04285600  0.68461000  1
  C  323  1  0.30208400  0.02876400  0.68692000  1
  C  335  1  0.34781700  0.99103400  0.69096000  1
  C  336  1  0.36627800  0.99129200  0.69113400  1
  C  337  1  0.37587100  0.97616200  0.69127800  1
  C  338  1  0.36686200  0.96070700  0.69123600  1
  C  339  1  0.34839900  0.96031200  0.69105900  1
  C  340  1  0.33894700  0.97550900  0.69089400  1
  C  345  1  0.33030400  0.01749600  0.69006000  1
  C  346  1  0.33892500  0.00501400  0.69064600  1
  C  347  1  0.33275600  0.93277900  0.69039400  1
  C  348  1  0.34011400  0.94598900  0.69085000  1
  C  349  1  0.39296100  0.97648500  0.69142500  1
  C  350  1  0.40858300  0.97700200  0.69159100  1
  C  351  1  0.28780100  0.07271400  0.68066200  1
  C  352  1  0.48102900  0.98244800  0.69160900  1
  C  353  1  0.30193600  0.87048000  0.68242900  1
  C  354  1  0.29899300  0.90071000  0.68745800  1
  C  358  1  0.42563400  0.97501300  0.29726200  1
  C  359  1  0.32525600  0.03482600  0.29962900  1
  C  360  1  0.32030800  0.92221300  0.30017000  1
  C  361  1  0.30687400  0.03637200  0.29973600  1
  C  362  1  0.30926400  0.06685800  0.30342400  1
  C  363  1  0.32767300  0.06515200  0.30314900  1
  C  364  1  0.33559500  0.04937000  0.30122100  1
  C  365  1  0.43588400  0.98683400  0.30599200  1
  C  366  1  0.45424300  0.98553000  0.30603200  1
  C  367  1  0.46287500  0.97252500  0.29721300  1
  C  368  1  0.45240800  0.96072200  0.28856200  1
  C  369  1  0.43405500  0.96192900  0.28854500  1
  C  370  1  0.32753000  0.90593400  0.30023600  1
  C  371  1  0.31669300  0.89182900  0.30242600  1
  C  372  1  0.29846000  0.89371500  0.30467400  1
  C  373  1  0.29132400  0.91005200  0.30447800  1
  C  374  1  0.30209200  0.92415000  0.30215700  1
  C  386  1  0.34781400  0.96189600  0.29810400  1
  C  387  1  0.36627400  0.96163800  0.29792800  1
  C  388  1  0.37586700  0.97676800  0.29778300  1
  C  389  1  0.36685800  0.99222200  0.29782400  1
  C  390  1  0.34839400  0.99261800  0.29800200  1
  C  391  1  0.33894300  0.97742000  0.29816900  1
  C  396  1  0.33030400  0.93543100  0.29900300  1
  C  397  1  0.33892200  0.94791500  0.29841800  1
  C  398  1  0.33275100  0.02015000  0.29867000  1
  C  399  1  0.34011000  0.00694000  0.29821300  1
  C  400  1  0.39295700  0.97644500  0.29763800  1
  C  401  1  0.40857900  0.97592600  0.29747400  1
  C  402  1  0.28784100  0.88019100  0.30842600  1
  C  403  1  0.48102500  0.97047200  0.29747100  1
  C  404  1  0.30192600  0.08244800  0.30663500  1
  C  405  1  0.29898500  0.05221800  0.30160700  1
  C  409  1  0.04822500  0.17196000  0.49708100  1
  C  410  1  0.14846300  0.16984400  0.43770400  1
  C  411  1  0.15434300  0.17032500  0.54993400  1
  C  412  1  0.16640500  0.16631800  0.43559600  1
  C  413  1  0.16390200  0.17046300  0.40511900  1
  C  414  1  0.14591000  0.17395100  0.40747400  1
  C  415  1  0.13827000  0.17365200  0.42349100  1
  C  416  1  0.03801300  0.16333100  0.48515400  1
  C  417  1  0.01964100  0.16345600  0.48627800  1
  C  418  1  0.01095500  0.17235000  0.49920000  1
  C  419  1  0.02138400  0.18091500  0.51109700  1
  C  420  1  0.03974900  0.18076100  0.51007500  1
  C  421  1  0.14857500  0.16628000  0.56623700  1
  C  422  1  0.16044100  0.16612400  0.57975300  1
  C  423  1  0.17834700  0.16999600  0.57735000  1
  C  424  1  0.18388900  0.17408600  0.56091000  1
  C  425  1  0.17210900  0.17426600  0.54739500  1
  C  437  1  0.12596600  0.17024800  0.51079500  1
  C  438  1  0.10750800  0.17065300  0.51095700  1
  C  439  1  0.09800100  0.17074500  0.49577500  1
  C  440  1  0.10709500  0.17042300  0.48036900  1
  C  441  1  0.12555700  0.17001100  0.48006400  1
  C  442  1  0.13492000  0.16993800  0.49531300  1
  C  447  1  0.14366000  0.17022500  0.53716100  1
  C  448  1  0.13481200  0.17021000  0.52481000  1
  C  449  1  0.14120400  0.16970000  0.45252300  1
  C  450  1  0.13390700  0.16978200  0.46577300  1
  C  451  1  0.08091200  0.17115300  0.49599300  1
  C  452  1  0.06529000  0.17154100  0.49636200  1
  C  453  1  0.19065100  0.16947400  0.59024000  1
  C  454  1  0.99278600  0.17218100  0.50112700  1
  C  455  1  0.17089800  0.17105900  0.38898700  1
  C  456  1  0.17400000  0.16662300  0.41950700  1
  C  460  1  0.04822800  0.78096300  0.49199100  1
  C  461  1  0.14846700  0.78308100  0.55136400  1
  C  462  1  0.15434300  0.78259600  0.43913300  1
  C  463  1  0.16640800  0.78661500  0.55347300  1
  C  464  1  0.16390700  0.78246200  0.58394900  1
  C  465  1  0.14591600  0.77897000  0.58159500  1
  C  466  1  0.13827700  0.77926900  0.56557700  1
  C  467  1  0.03801800  0.78959900  0.50391400  1
  C  468  1  0.01964600  0.78946400  0.50280000  1
  C  469  1  0.01095700  0.78056800  0.48988100  1
  C  470  1  0.02138400  0.77200900  0.47797900  1
  C  471  1  0.03974900  0.77215600  0.47900100  1
  C  472  1  0.14857600  0.78665400  0.42283300  1
  C  473  1  0.16044200  0.78681100  0.40931600  1
  C  474  1  0.17834400  0.78292200  0.41171600  1
  C  475  1  0.18388600  0.77883000  0.42815400  1
  C  476  1  0.17210700  0.77864700  0.44166900  1
  C  488  1  0.12596900  0.78267700  0.47827400  1
  C  489  1  0.10751200  0.78227200  0.47811300  1
  C  490  1  0.09800400  0.78218200  0.49329500  1
  C  491  1  0.10709800  0.78250300  0.50870100  1
  C  492  1  0.12556000  0.78291500  0.50900500  1
  C  493  1  0.13492300  0.78298700  0.49375700  1
  C  498  1  0.14366200  0.78269700  0.45190700  1
  C  499  1  0.13481500  0.78271400  0.46425900  1
  C  500  1  0.14120700  0.78322600  0.53654700  1
  C  501  1  0.13390900  0.78314600  0.52329700  1
  C  502  1  0.08091600  0.78177200  0.49307700  1
  C  503  1  0.06529200  0.78138400  0.49270600  1
  C  504  1  0.19064800  0.78344900  0.39882600  1
  C  505  1  0.99278900  0.78075100  0.48794800  1
  C  506  1  0.17090400  0.78186600  0.60008000  1
  C  507  1  0.17400400  0.78630800  0.56956100  1
  C  511  1  0.04879900  0.47900400  0.79901300  1
  C  512  1  0.14890000  0.41958700  0.80119300  1
  C  513  1  0.15481300  0.53189700  0.80067700  1
  C  514  1  0.16683300  0.41743500  0.80473000  1
  C  515  1  0.16423600  0.38696300  0.80061900  1
  C  516  1  0.14625200  0.38936100  0.79712100  1
  C  517  1  0.13866300  0.40540100  0.79739700  1
  C  518  1  0.03860900  0.46712300  0.80772300  1
  C  519  1  0.02023900  0.46823900  0.80760900  1
  C  520  1  0.01154700  0.48111300  0.79865400  1
  C  521  1  0.02195100  0.49296900  0.79001000  1
  C  522  1  0.04031500  0.49194800  0.79014500  1
  C  523  1  0.14900500  0.54817100  0.80478100  1
  C  524  1  0.16082900  0.56171900  0.80493900  1
  C  525  1  0.17873200  0.55937200  0.80101500  1
  C  526  1  0.18431500  0.54295900  0.79687500  1
  C  527  1  0.17257500  0.52941200  0.79669000  1
  C  539  1  0.12651600  0.49271500  0.80075100  1
  C  540  1  0.10806100  0.49288300  0.80033200  1
  C  541  1  0.09855500  0.47770200  0.80023700  1
  C  542  1  0.10764000  0.46229300  0.80056700  1
  C  543  1  0.12609900  0.46198700  0.80099200  1
  C  544  1  0.13546900  0.47723200  0.80106800  1
  C  549  1  0.14417200  0.51909800  0.80077700  1
  C  550  1  0.13535300  0.50673000  0.80079100  1
  C  551  1  0.14169300  0.43442400  0.80132100  1
  C  552  1  0.13443400  0.44769200  0.80123100  1
  C  553  1  0.08147500  0.47792300  0.79981700  1
  C  554  1  0.06585600  0.47829300  0.79942500  1
  C  555  1  0.19099800  0.57229200  0.80155200  1
  C  556  1  0.99338500  0.48302900  0.79884400  1
  C  557  1  0.17118500  0.37081400  0.80005100  1
  C  558  1  0.17437900  0.40132700  0.80444500  1
  C  562  1  0.04880400  0.47391700  0.19004900  1
  C  563  1  0.14890600  0.53333500  0.18787300  1
  C  564  1  0.15481800  0.42102400  0.18838600  1
  C  565  1  0.16684100  0.53548500  0.18434200  1
  C  566  1  0.16424200  0.56595900  0.18844900  1
  C  567  1  0.14625600  0.56356000  0.19194200  1
  C  568  1  0.13866700  0.54752100  0.19166300  1
  C  569  1  0.03861300  0.48579700  0.18133500  1
  C  570  1  0.02024300  0.48468400  0.18145400  1
  C  571  1  0.01155200  0.47181200  0.19041200  1
  C  572  1  0.02195700  0.45995800  0.19906100  1
  C  573  1  0.04032000  0.46097700  0.19892200  1
  C  574  1  0.14900600  0.40474700  0.18429900  1
  C  575  1  0.16083200  0.39120000  0.18413600  1
  C  576  1  0.17873600  0.39354800  0.18804600  1
  C  577  1  0.18432200  0.40996300  0.19217600  1
  C  578  1  0.17258300  0.42350900  0.19236600  1
  C  590  1  0.12652100  0.46020600  0.18831200  1
  C  591  1  0.10806600  0.46004000  0.18873200  1
  C  592  1  0.09856000  0.47522000  0.18882700  1
  C  593  1  0.10764500  0.49062900  0.18849700  1
  C  594  1  0.12610600  0.49093400  0.18807100  1
  C  595  1  0.13547400  0.47568900  0.18799500  1
  C  600  1  0.14417800  0.43382300  0.18828600  1
  C  601  1  0.13535800  0.44619100  0.18827200  1
  C  602  1  0.14169800  0.51849700  0.18774200  1
  C  603  1  0.13444000  0.50523000  0.18783300  1
  C  604  1  0.08148000  0.47499900  0.18924500  1
  C  605  1  0.06586100  0.47463000  0.18963700  1
  C  606  1  0.19100000  0.38062600  0.18752100  1
  C  607  1  0.99339100  0.46989100  0.19022100  1
  C  608  1  0.17119300  0.58210600  0.18902800  1
  C  609  1  0.17438600  0.55159400  0.18463000  1
  C  613  1  0.92561200  0.17204600  0.49265400  1
  C  614  1  0.82538100  0.17054700  0.55213800  1
  C  615  1  0.81967700  0.17048600  0.43972800  1
  C  616  1  0.80742700  0.16708900  0.55428200  1
  C  617  1  0.80998900  0.17122100  0.58476500  1
  C  618  1  0.82799000  0.17465200  0.58237300  1
  C  619  1  0.83560200  0.17432800  0.56634000  1
  C  620  1  0.93582500  0.16340900  0.50457400  1
  C  621  1  0.95419500  0.16350000  0.50342500  1
  C  622  1  0.96288200  0.17236500  0.49048500  1
  C  623  1  0.95245400  0.18092800  0.47858500  1
  C  624  1  0.93408900  0.18081600  0.47963700  1
  C  625  1  0.82555100  0.16641200  0.42346500  1
  C  626  1  0.81378100  0.16625900  0.40986900  1
  C  627  1  0.79586500  0.17016300  0.41215100  1
  C  628  1  0.79021500  0.17427000  0.42855200  1
  C  629  1  0.80189900  0.17445400  0.44214300  1
  C  641  1  0.84786900  0.17048600  0.47900500  1
  C  642  1  0.86632900  0.17082800  0.47885100  1
  C  643  1  0.87583200  0.17097300  0.49403500  1
  C  644  1  0.86673000  0.17077400  0.50943900  1
  C  645  1  0.84826400  0.17042900  0.50974500  1
  C  646  1  0.83891000  0.17029900  0.49448900  1
  C  651  1  0.83026900  0.17039500  0.45257400  1
  C  652  1  0.83904600  0.17040500  0.46497200  1
  C  653  1  0.83262600  0.17032700  0.53730500  1
  C  654  1  0.83991100  0.17031400  0.52404500  1
  C  655  1  0.89292400  0.17132800  0.49381000  1
  C  656  1  0.90854700  0.17167200  0.49340800  1
  C  657  1  0.78364400  0.16963500  0.39918600  1
  C  658  1  0.98105000  0.17216300  0.48854400  1
  C  659  1  0.80303900  0.17173900  0.60093000  1
  C  660  1  0.79985700  0.16742500  0.57038400  1
  C  664  1  0.92561500  0.78088500  0.49641300  1
  C  665  1  0.82538200  0.78237800  0.43692600  1
  C  666  1  0.81968100  0.78244600  0.54933600  1
  C  667  1  0.80742700  0.78583300  0.43478300  1
  C  668  1  0.80999000  0.78170300  0.40429800  1
  C  669  1  0.82799100  0.77827500  0.40669000  1
  C  670  1  0.83560400  0.77860100  0.42272300  1
  C  671  1  0.93582900  0.78953000  0.48449900  1
  C  672  1  0.95419900  0.78943800  0.48564900  1
  C  673  1  0.96288400  0.78057500  0.49859200  1
  C  674  1  0.95245500  0.77200500  0.51048600  1
  C  675  1  0.93409000  0.77211600  0.50943100  1
  C  676  1  0.82555600  0.78651600  0.56559900  1
  C  677  1  0.81378500  0.78667100  0.57919400  1
  C  678  1  0.79587000  0.78276800  0.57691300  1
  C  679  1  0.79022000  0.77865700  0.56051300  1
  C  680  1  0.80190500  0.77847500  0.54692100  1
  C  692  1  0.84787300  0.78243900  0.51005900  1
  C  693  1  0.86633300  0.78209900  0.51021100  1
  C  694  1  0.87583500  0.78195200  0.49502700  1
  C  695  1  0.86673100  0.78215100  0.47962300  1
  C  696  1  0.84826500  0.78249700  0.47931900  1
  C  697  1  0.83891300  0.78262700  0.49457500  1
  C  702  1  0.83027300  0.78253300  0.53648900  1
  C  703  1  0.83905000  0.78252100  0.52409100  1
  C  704  1  0.83262800  0.78260000  0.45175800  1
  C  705  1  0.83991200  0.78261200  0.46501800  1
  C  706  1  0.89292600  0.78159800  0.49525100  1
  C  707  1  0.90855000  0.78125600  0.49565400  1
  C  708  1  0.78364900  0.78329700  0.58987800  1
  C  709  1  0.98105200  0.78077000  0.50053200  1
  C  710  1  0.80303900  0.78118200  0.38813400  1
  C  711  1  0.79985700  0.78549600  0.41868000  1
  C  715  1  0.92627600  0.47839600  0.18995200  1
  C  716  1  0.82600700  0.41898400  0.18775600  1
  C  717  1  0.82022800  0.53114300  0.18774700  1
  C  718  1  0.80806000  0.41694400  0.18421200  1
  C  719  1  0.81043900  0.38647100  0.18840900  1
  C  720  1  0.82843900  0.38875600  0.19190800  1
  C  721  1  0.83614300  0.40474400  0.19159200  1
  C  722  1  0.93649700  0.46653500  0.18124800  1
  C  723  1  0.95486300  0.46768300  0.18138000  1
  C  724  1  0.96352300  0.48056000  0.19035900  1
  C  725  1  0.95308700  0.49240100  0.19899200  1
  C  726  1  0.93472500  0.49135200  0.19883300  1
  C  727  1  0.82605900  0.54740100  0.18361500  1
  C  728  1  0.81421600  0.56092700  0.18328400  1
  C  729  1  0.79628200  0.55856700  0.18705800  1
  C  730  1  0.79067600  0.54217300  0.19123600  1
  C  731  1  0.80243400  0.52864600  0.19159400  1
  C  743  1  0.84857100  0.49201200  0.18800500  1
  C  744  1  0.86702300  0.49218900  0.18847100  1
  C  745  1  0.87652800  0.47700900  0.18865400  1
  C  746  1  0.86744700  0.46159800  0.18836300  1
  C  747  1  0.84898800  0.46129100  0.18788900  1
  C  748  1  0.83961800  0.47653200  0.18772600  1
  C  753  1  0.83088900  0.51836700  0.18778300  1
  C  754  1  0.83973000  0.50601600  0.18787100  1
  C  755  1  0.83331600  0.43377200  0.18760500  1
  C  756  1  0.84064000  0.44700500  0.18767600  1
  C  757  1  0.89360500  0.47724500  0.18910700  1
  C  758  1  0.90922300  0.47764900  0.18952300  1
  C  759  1  0.78402000  0.57147100  0.18635600  1
  C  760  1  0.98168200  0.48249600  0.19019300  1
  C  761  1  0.80336800  0.37037700  0.18905300  1
  C  762  1  0.80040100  0.40088600  0.18453500  1
  C  766  1  0.92627100  0.47452800  0.79911100  1
  C  767  1  0.82600100  0.53394300  0.80129600  1
  C  768  1  0.82022600  0.42178300  0.80130500  1
  C  769  1  0.80805500  0.53598400  0.80484500  1
  C  770  1  0.81043300  0.56645700  0.80064200  1
  C  771  1  0.82843000  0.56417100  0.79713900  1
  C  772  1  0.83613500  0.54818400  0.79745600  1
  C  773  1  0.93649200  0.48639100  0.80781400  1
  C  774  1  0.95485800  0.48524100  0.80768400  1
  C  775  1  0.96351700  0.47235500  0.79871600  1
  C  776  1  0.95308200  0.46051700  0.79008000  1
  C  777  1  0.93472000  0.46156900  0.79023300  1
  C  778  1  0.82605400  0.40552900  0.80545600  1
  C  779  1  0.81421200  0.39200400  0.80578600  1
  C  780  1  0.79628000  0.39435900  0.80199800  1
  C  781  1  0.79067700  0.41075000  0.79780800  1
  C  782  1  0.80243500  0.42427500  0.79744200  1
  C  794  1  0.84856600  0.46091500  0.80104900  1
  C  795  1  0.86701900  0.46074000  0.80058500  1
  C  796  1  0.87652300  0.47592000  0.80040100  1
  C  797  1  0.86744200  0.49133100  0.80069100  1
  C  798  1  0.84898300  0.49163700  0.80116400  1
  C  799  1  0.83961300  0.47639600  0.80132700  1
  C  804  1  0.83088500  0.43456100  0.80127000  1
  C  805  1  0.83972500  0.44691200  0.80118400  1
  C  806  1  0.83331100  0.51915600  0.80144900  1
  C  807  1  0.84063500  0.50592200  0.80137600  1
  C  808  1  0.89360000  0.47568400  0.79995000  1
  C  809  1  0.90921800  0.47527800  0.79953500  1
  C  810  1  0.78401700  0.38145800  0.80271700  1
  C  811  1  0.98167700  0.47042400  0.79887800  1
  C  812  1  0.80336000  0.58255000  0.79999800  1
  C  813  1  0.80039400  0.55204000  0.80451900  1
  C  817  1  0.71583000  0.66448200  0.83996500  1
  C  818  1  0.73625600  0.68381700  0.78408600  1
  C  819  1  0.75745300  0.62996700  0.80758800  1
  C  820  1  0.73530100  0.67865000  0.76712600  1
  C  821  1  0.73535500  0.69035900  0.75394600  1
  C  822  1  0.73635300  0.70767800  0.75722100  1
  C  823  1  0.73721100  0.71299400  0.77410100  1
  C  824  1  0.73713900  0.70125600  0.78728500  1
  C  825  1  0.71582400  0.67980600  0.84889900  1
  C  826  1  0.70610800  0.68166400  0.86378300  1
  C  827  1  0.69580700  0.66840100  0.87001400  1
  C  828  1  0.69577900  0.65307200  0.86114500  1
  C  829  1  0.70558000  0.65117700  0.84636900  1
  C  830  1  0.75087200  0.61405100  0.81227300  1
  C  831  1  0.76127100  0.59954700  0.81108400  1
  C  832  1  0.77862000  0.60039900  0.80518600  1
  C  833  1  0.78523700  0.61625900  0.80043100  1
  C  834  1  0.77484200  0.63074400  0.80160800  1
  C  846  1  0.74700500  0.64478800  0.80903900  1
  C  847  1  0.73670900  0.64768200  0.82345300  1
  C  848  1  0.72628500  0.66220200  0.82528200  1
  C  849  1  0.72645500  0.67415100  0.81218100  1
  C  850  1  0.73649600  0.67180000  0.79745100  1
  C  851  1  0.74670100  0.65704100  0.79622900  1
  C  859  1  0.71583200  0.28844200  0.14910500  1
  C  860  1  0.73626900  0.26910900  0.20498000  1
  C  861  1  0.75746000  0.32295900  0.18147100  1
  C  862  1  0.73532200  0.27427700  0.22194000  1
  C  863  1  0.73536900  0.26256600  0.23512000  1
  C  864  1  0.73636200  0.24524800  0.23184500  1
  C  865  1  0.73722000  0.23993100  0.21496300  1
  C  866  1  0.73715500  0.25166900  0.20178100  1
  C  867  1  0.71581500  0.27311600  0.14017600  1
  C  868  1  0.70610800  0.27126200  0.12528600  1
  C  869  1  0.69580700  0.28452400  0.11905600  1
  C  870  1  0.69577700  0.29985200  0.12792800  1
  C  871  1  0.70558000  0.30174700  0.14270200  1
  C  872  1  0.75087900  0.33887400  0.17679000  1
  C  873  1  0.76127900  0.35337900  0.17797200  1
  C  874  1  0.77862800  0.35252600  0.18386800  1
  C  875  1  0.78524500  0.33666900  0.18862800  1
  C  876  1  0.77485000  0.32218300  0.18745300  1
  C  888  1  0.74701300  0.30813800  0.18002300  1
  C  889  1  0.73672000  0.30524100  0.16560800  1
  C  890  1  0.72629100  0.29072400  0.16378400  1
  C  891  1  0.72646300  0.27877400  0.17688600  1
  C  892  1  0.73650700  0.28112600  0.19161300  1
  C  893  1  0.74671100  0.29588600  0.19283300  1
  C  901  1  0.71616300  0.82265500  0.30709100  1
  C  902  1  0.73733100  0.76845000  0.28464200  1
  C  903  1  0.75704800  0.78843700  0.34064300  1
  C  904  1  0.73638400  0.75104700  0.28803300  1
  C  905  1  0.73639600  0.73915500  0.27498500  1
  C  906  1  0.73740700  0.74428500  0.25805900  1
  C  907  1  0.73849400  0.76156000  0.25459100  1
  C  908  1  0.73846600  0.77341900  0.26763300  1
  C  909  1  0.71652300  0.83214500  0.29210600  1
  C  910  1  0.70674900  0.84701300  0.29052500  1
  C  911  1  0.69603200  0.85267100  0.30373000  1
  C  912  1  0.69570400  0.84330900  0.31876100  1
  C  913  1  0.70557500  0.82854100  0.32038600  1
  C  914  1  0.75027900  0.79250700  0.35666100  1
  C  915  1  0.76062300  0.79116100  0.37118600  1
  C  916  1  0.77812400  0.78570600  0.37027600  1
  C  917  1  0.78490000  0.78143500  0.35433800  1
  C  918  1  0.77454800  0.78276100  0.33982300  1
  C  930  1  0.74677400  0.79053600  0.32576900  1
  C  931  1  0.73651300  0.80510700  0.32352200  1
  C  932  1  0.72642100  0.80779600  0.30893600  1
  C  933  1  0.72685900  0.79541900  0.29627500  1
  C  934  1  0.73700500  0.78066000  0.29783200  1
  C  935  1  0.74682200  0.77848800  0.31273000  1
  C  943  1  0.71616900  0.13026400  0.68197400  1
  C  944  1  0.73732900  0.18447600  0.70442000  1
  C  945  1  0.75704500  0.16448600  0.64841900  1
  C  946  1  0.73637900  0.20187700  0.70102900  1
  C  947  1  0.73639300  0.21376900  0.71407700  1
  C  948  1  0.73740400  0.20864000  0.73100300  1
  C  949  1  0.73849000  0.19136500  0.73447100  1
  C  950  1  0.73846400  0.17950600  0.72142900  1
  C  951  1  0.71653300  0.12077400  0.69695900  1
  C  952  1  0.70675800  0.10590700  0.69854400  1
  C  953  1  0.69605400  0.10023600  0.68533300  1
  C  954  1  0.69572100  0.10960100  0.67030400  1
  C  955  1  0.70558300  0.12437300  0.66867800  1
  C  956  1  0.75027900  0.16041300  0.63240300  1
  C  957  1  0.76062300  0.16175900  0.61787700  1
  C  958  1  0.77812300  0.16721600  0.61878700  1
  C  959  1  0.78489800  0.17149100  0.63472600  1
  C  960  1  0.77454700  0.17016000  0.64924000  1
  C  972  1  0.74677000  0.16238900  0.66329300  1
  C  973  1  0.73651300  0.14781700  0.66554100  1
  C  974  1  0.72642100  0.14512700  0.68012800  1
  C  975  1  0.72685400  0.15750600  0.69278600  1
  C  976  1  0.73700100  0.17226500  0.69123000  1
  C  977  1  0.74681800  0.17443700  0.67633200  1
  C  985  1  0.25852300  0.66427900  0.14930300  1
  C  986  1  0.23798500  0.68367600  0.20509800  1
  C  987  1  0.21695400  0.62970400  0.18167500  1
  C  988  1  0.23893200  0.67855600  0.22207200  1
  C  989  1  0.23892800  0.69030700  0.23521700  1
  C  990  1  0.23799000  0.70761800  0.23188900  1
  C  991  1  0.23712000  0.71288700  0.21499500  1
  C  992  1  0.23713900  0.70110800  0.20184900  1
  C  993  1  0.25854600  0.67959900  0.14036200  1
  C  994  1  0.26833100  0.68146600  0.12552200  1
  C  995  1  0.27868200  0.66821500  0.11934500  1
  C  996  1  0.27868300  0.65288400  0.12821300  1
  C  997  1  0.26881600  0.65098200  0.14294600  1
  C  998  1  0.22361000  0.61381300  0.17700200  1
  C  999  1  0.21327800  0.59926600  0.17818600  1
  C  1000  1  0.19591700  0.60004700  0.18406300  1
  C  1001  1  0.18922900  0.61587800  0.18882400  1
  C  1002  1  0.19956000  0.63040800  0.18765200  1
  C  1014  1  0.22733900  0.64456600  0.18020900  1
  C  1015  1  0.23764000  0.64746500  0.16579900  1
  C  1016  1  0.24803500  0.66200100  0.16396100  1
  C  1017  1  0.24782700  0.67396600  0.17704400  1
  C  1018  1  0.23776500  0.67162500  0.19176100  1
  C  1019  1  0.22759300  0.65684500  0.19299800  1
  C  1027  1  0.25852500  0.28864300  0.83975600  1
  C  1028  1  0.23797700  0.26924700  0.78396300  1
  C  1029  1  0.21695100  0.32321800  0.80739000  1
  C  1030  1  0.23891700  0.27436700  0.76698800  1
  C  1031  1  0.23892100  0.26261500  0.75384500  1
  C  1032  1  0.23798600  0.24530300  0.75717300  1
  C  1033  1  0.23711600  0.24003600  0.77406700  1
  C  1034  1  0.23712900  0.25181600  0.78721300  1
  C  1035  1  0.25856100  0.27332000  0.84868900  1
  C  1036  1  0.26833500  0.27145700  0.86353600  1
  C  1037  1  0.27868600  0.28471000  0.86971200  1
  C  1038  1  0.27868700  0.30003900  0.86084400  1
  C  1039  1  0.26881900  0.30194200  0.84611200  1
  C  1040  1  0.22360900  0.33910900  0.81205800  1
  C  1041  1  0.21327500  0.35365700  0.81087900  1
  C  1042  1  0.19591400  0.35287500  0.80500500  1
  C  1043  1  0.18922700  0.33704500  0.80024000  1
  C  1044  1  0.19955800  0.32251600  0.80141200  1
  C  1056  1  0.22733600  0.30835500  0.80885400  1
  C  1057  1  0.23763500  0.30545400  0.82326500  1
  C  1058  1  0.24803500  0.29092100  0.82509900  1
  C  1059  1  0.24782600  0.27895700  0.81201500  1
  C  1060  1  0.23776100  0.28129700  0.79730000  1
  C  1061  1  0.22759000  0.29607900  0.79606400  1
  C  1069  1  0.25826800  0.82157000  0.68220500  1
  C  1070  1  0.23778600  0.76578800  0.70165000  1
  C  1071  1  0.21674200  0.78913800  0.64763400  1
  C  1072  1  0.23874800  0.74880300  0.69657000  1
  C  1073  1  0.23879600  0.73568700  0.70835300  1
  C  1074  1  0.23789700  0.73905300  0.72565900  1
  C  1075  1  0.23700000  0.75595900  0.73088800  1
  C  1076  1  0.23697000  0.76907600  0.71907800  1
  C  1077  1  0.25826500  0.83050600  0.69752700  1
  C  1078  1  0.26802600  0.84536000  0.69940400  1
  C  1079  1  0.27839900  0.85153400  0.68616800  1
  C  1080  1  0.27843400  0.84266700  0.67083900  1
  C  1081  1  0.26858100  0.82792700  0.66892400  1
  C  1082  1  0.22337600  0.79382700  0.63174000  1
  C  1083  1  0.21302600  0.79266200  0.61720100  1
  C  1084  1  0.19566600  0.78678600  0.61799100  1
  C  1085  1  0.18900200  0.78199700  0.63382400  1
  C  1086  1  0.19935400  0.78314500  0.64834400  1
  C  1098  1  0.22713200  0.79061500  0.66249300  1
  C  1099  1  0.23742400  0.80503400  0.66538000  1
  C  1100  1  0.24780500  0.80689800  0.67992200  1
  C  1101  1  0.24759500  0.79383300  0.69190600  1
  C  1102  1  0.23755500  0.77910200  0.68957300  1
  C  1103  1  0.22739400  0.77783800  0.67478800  1
  C  1111  1  0.25825800  0.13135600  0.30686300  1
  C  1112  1  0.23778300  0.18714100  0.28741700  1
  C  1113  1  0.21673600  0.16379100  0.34143400  1
  C  1114  1  0.23874400  0.20412600  0.29249600  1
  C  1115  1  0.23879200  0.21724100  0.28071100  1
  C  1116  1  0.23789600  0.21387300  0.26340500  1
  C  1117  1  0.23700200  0.19696700  0.25817800  1
  C  1118  1  0.23696600  0.18385200  0.26999000  1
  C  1119  1  0.25824700  0.12241500  0.29154400  1
  C  1120  1  0.26801000  0.10756500  0.28966400  1
  C  1121  1  0.27837400  0.10138200  0.30290200  1
  C  1122  1  0.27841600  0.11025100  0.31823100  1
  C  1123  1  0.26857000  0.12499700  0.32014400  1
  C  1124  1  0.22337000  0.15909800  0.35732700  1
  C  1125  1  0.21302000  0.16026600  0.37186700  1
  C  1126  1  0.19566100  0.16614400  0.37107700  1
  C  1127  1  0.18899800  0.17093500  0.35524500  1
  C  1128  1  0.19934900  0.16978400  0.34072400  1
  C  1140  1  0.22712800  0.16231700  0.32657500  1
  C  1141  1  0.23741900  0.14789500  0.32368800  1
  C  1142  1  0.24780000  0.14603100  0.30914600  1
  C  1143  1  0.24759600  0.15909900  0.29716600  1
  C  1144  1  0.23755100  0.17382700  0.29949600  1
  C  1145  1  0.22739000  0.17509200  0.31428100  1
  C  1153  1  0.25868600  0.28751300  0.14804700  1
  C  1154  1  0.23752100  0.26579700  0.20269300  1
  C  1155  1  0.21733900  0.32128000  0.18178800  1
  C  1156  1  0.23816100  0.26937000  0.22006900  1
  C  1157  1  0.23809000  0.25642900  0.23208400  1
  C  1158  1  0.23731100  0.23944700  0.22709900  1
  C  1159  1  0.23654400  0.23580400  0.20984600  1
  C  1160  1  0.23663500  0.24873200  0.19786900  1
  C  1161  1  0.26073500  0.27169500  0.14019600  1
  C  1162  1  0.27085100  0.26982100  0.12557600  1
  C  1163  1  0.27894700  0.28378100  0.11806900  1
  C  1164  1  0.27723500  0.29956500  0.12588100  1
  C  1165  1  0.26731000  0.30136600  0.14060800  1
  C  1166  1  0.22457300  0.33706900  0.17762300  1
  C  1167  1  0.21470200  0.35186000  0.17893500  1
  C  1168  1  0.19721800  0.35146900  0.18466500  1
  C  1169  1  0.18991300  0.33578200  0.18881600  1
  C  1170  1  0.19982800  0.32095200  0.18752700  1
  C  1182  1  0.22739400  0.30626300  0.17978200  1
  C  1183  1  0.23760300  0.30378900  0.16520500  1
  C  1184  1  0.24825800  0.28948600  0.16289200  1
  C  1185  1  0.24816200  0.27725200  0.17572600  1
  C  1186  1  0.23776100  0.27883100  0.19032300  1
  C  1187  1  0.22756500  0.29353400  0.19213200  1
  C  1195  1  0.25868100  0.66541300  0.84101400  1
  C  1196  1  0.23751000  0.68712600  0.78636800  1
  C  1197  1  0.21733400  0.63164200  0.80727500  1
  C  1198  1  0.23814700  0.68355400  0.76899200  1
  C  1199  1  0.23808700  0.69649500  0.75697900  1
  C  1200  1  0.23730300  0.71347600  0.76196500  1
  C  1201  1  0.23653100  0.71711800  0.77921700  1
  C  1202  1  0.23661900  0.70418900  0.79119300  1
  C  1203  1  0.26073300  0.68123100  0.84886000  1
  C  1204  1  0.27084100  0.68310400  0.86348600  1
  C  1205  1  0.27893900  0.66914700  0.87099200  1
  C  1206  1  0.27723100  0.65336100  0.86317900  1
  C  1207  1  0.26730100  0.65155900  0.84845700  1
  C  1208  1  0.22456900  0.61585300  0.81144300  1
  C  1209  1  0.21469800  0.60106200  0.81013300  1
  C  1210  1  0.19721800  0.60145000  0.80439100  1
  C  1211  1  0.18991300  0.61713700  0.80023800  1
  C  1212  1  0.19982600  0.63196700  0.80153200  1
  C  1224  1  0.22738800  0.64666000  0.80928000  1
  C  1225  1  0.23759400  0.64913600  0.82385800  1
  C  1226  1  0.24825200  0.66343800  0.82617000  1
  C  1227  1  0.24815500  0.67567100  0.81333500  1
  C  1228  1  0.23775500  0.67409000  0.79873700  1
  C  1229  1  0.22755900  0.65938700  0.79693000  1
  C  1237  1  0.25844400  0.13010900  0.68332700  1
  C  1238  1  0.23732100  0.18473200  0.70508800  1
  C  1239  1  0.21711500  0.16389500  0.64957400  1
  C  1240  1  0.23800000  0.20211500  0.70155500  1
  C  1241  1  0.23798300  0.21409700  0.71452700  1
  C  1242  1  0.23721100  0.20907200  0.73149800  1
  C  1243  1  0.23639000  0.19181300  0.73509900  1
  C  1244  1  0.23643300  0.17986900  0.72214200  1
  C  1245  1  0.26047200  0.12226000  0.69914800  1
  C  1246  1  0.27056700  0.10762900  0.70103300  1
  C  1247  1  0.27867000  0.10011900  0.68708000  1
  C  1248  1  0.27698600  0.10793100  0.67129300  1
  C  1249  1  0.26707300  0.12266200  0.66948100  1
  C  1250  1  0.22433000  0.15972500  0.63377700  1
  C  1251  1  0.21443800  0.16102400  0.61899500  1
  C  1252  1  0.19694800  0.16673700  0.61940200  1
  C  1253  1  0.18966600  0.17089800  0.63509900  1
  C  1254  1  0.19960600  0.16963700  0.64991500  1
  C  1266  1  0.22718200  0.16188200  0.66458400  1
  C  1267  1  0.23738900  0.14729800  0.66704300  1
  C  1268  1  0.24803500  0.14496400  0.68134800  1
  C  1269  1  0.24794300  0.15778600  0.69359500  1
  C  1270  1  0.23755200  0.17238900  0.69202800  1
  C  1271  1  0.22735800  0.17421900  0.67732700  1
  C  1279  1  0.25843100  0.82281600  0.30573400  1
  C  1280  1  0.23731600  0.76819000  0.28397500  1
  C  1281  1  0.21710900  0.78902700  0.33949000  1
  C  1282  1  0.23799900  0.75080800  0.28750700  1
  C  1283  1  0.23797900  0.73882500  0.27453600  1
  C  1284  1  0.23720900  0.74385100  0.25756600  1
  C  1285  1  0.23638800  0.76110800  0.25396400  1
  C  1286  1  0.23642700  0.77305200  0.26692200  1
  C  1287  1  0.26045200  0.83067100  0.28991600  1
  C  1288  1  0.27055000  0.84530000  0.28803100  1
  C  1289  1  0.27866800  0.85280100  0.30198000  1
  C  1290  1  0.27698100  0.84498900  0.31776700  1
  C  1291  1  0.26706400  0.83026000  0.31958000  1
  C  1292  1  0.22432200  0.79320100  0.35528700  1
  C  1293  1  0.21443000  0.79190200  0.37006700  1
  C  1294  1  0.19694200  0.78618200  0.36966200  1
  C  1295  1  0.18966200  0.78201600  0.35396700  1
  C  1296  1  0.19960100  0.78328400  0.33914800  1
  C  1308  1  0.22717500  0.79103900  0.32447900  1
  C  1309  1  0.23738000  0.80562400  0.32201900  1
  C  1310  1  0.24802600  0.80796000  0.30771400  1
  C  1311  1  0.24793800  0.79513700  0.29547000  1
  C  1312  1  0.23754800  0.78053200  0.29703400  1
  C  1313  1  0.22735300  0.77870200  0.31173700  1
  C  1321  1  0.71593700  0.28736900  0.83992800  1
  C  1322  1  0.73641900  0.26851900  0.78379600  1
  C  1323  1  0.75787500  0.32203700  0.80786200  1
  C  1324  1  0.73565900  0.27375900  0.76685300  1
  C  1325  1  0.73564700  0.26208200  0.75363700  1
  C  1326  1  0.73641700  0.24474100  0.75686600  1
  C  1327  1  0.73709300  0.23936500  0.77373200  1
  C  1328  1  0.73707300  0.25106200  0.78694600  1
  C  1329  1  0.71359400  0.27135900  0.84728500  1
  C  1330  1  0.70346900  0.26922700  0.86187800  1
  C  1331  1  0.69561600  0.28308600  0.86981500  1
  C  1332  1  0.69751600  0.29904200  0.86239900  1
  C  1333  1  0.70746500  0.30111100  0.84773000  1
  C  1334  1  0.75075900  0.33770000  0.81264000  1
  C  1335  1  0.76060800  0.35251800  0.81148700  1
  C  1336  1  0.77793700  0.35226700  0.80533500  1
  C  1337  1  0.78515500  0.33669200  0.80066300  1
  C  1338  1  0.77526200  0.32184300  0.80178400  1
  C  1350  1  0.74772500  0.30702300  0.80928500  1
  C  1351  1  0.73748000  0.30395100  0.82370900  1
  C  1352  1  0.72657000  0.28971300  0.82527000  1
  C  1353  1  0.72647900  0.27811500  0.81183500  1
  C  1354  1  0.73674700  0.28043900  0.79724200  1
  C  1355  1  0.74724900  0.29501900  0.79626500  1
  C  1363  1  0.71593100  0.66555200  0.14913700  1
  C  1364  1  0.73642600  0.68440600  0.20526500  1
  C  1365  1  0.75787600  0.63088800  0.18119800  1
  C  1366  1  0.73567100  0.67916600  0.22220900  1
  C  1367  1  0.73565400  0.69084300  0.23542300  1
  C  1368  1  0.73642100  0.70818400  0.23219600  1
  C  1369  1  0.73709700  0.71356000  0.21532800  1
  C  1370  1  0.73708200  0.70186300  0.20211600  1
  C  1371  1  0.71357700  0.68156300  0.14178600  1
  C  1372  1  0.70346000  0.68369100  0.12718600  1
  C  1373  1  0.69560600  0.66983000  0.11925200  1
  C  1374  1  0.69750600  0.65387500  0.12667000  1
  C  1375  1  0.70746300  0.65180700  0.14133700  1
  C  1376  1  0.75075700  0.61522300  0.17642600  1
  C  1377  1  0.76061000  0.60040700  0.17757200  1
  C  1378  1  0.77793800  0.60066000  0.18372600  1
  C  1379  1  0.78516000  0.61623400  0.18839000  1
  C  1380  1  0.77526600  0.63108300  0.18726900  1
  C  1392  1  0.74772600  0.64590100  0.17977600  1
  C  1393  1  0.73748100  0.64897400  0.16535200  1
  C  1394  1  0.72656800  0.66321000  0.16379400  1
  C  1395  1  0.72647900  0.67480900  0.17723000  1
  C  1396  1  0.73675000  0.67248600  0.19182000  1
  C  1397  1  0.74725300  0.65790600  0.19279500  1
  C  1405  1  0.71615700  0.13029500  0.30592400  1
  C  1406  1  0.73737400  0.18484900  0.28412800  1
  C  1407  1  0.75742500  0.16408200  0.33974700  1
  C  1408  1  0.73663700  0.20223800  0.28761200  1
  C  1409  1  0.73660400  0.21418300  0.27460500  1
  C  1410  1  0.73738500  0.20911100  0.25764700  1
  C  1411  1  0.73828500  0.19184600  0.25409700  1
  C  1412  1  0.73829000  0.17994100  0.26708900  1
  C  1413  1  0.71413100  0.12244700  0.29010300  1
  C  1414  1  0.70397600  0.10785700  0.28820600  1
  C  1415  1  0.69581200  0.10038800  0.30214700  1
  C  1416  1  0.69750500  0.10819400  0.31793700  1
  C  1417  1  0.70747700  0.12288600  0.31976000  1
  C  1418  1  0.75015800  0.15989800  0.35552000  1
  C  1419  1  0.75999600  0.16118400  0.37033400  1
  C  1420  1  0.77748500  0.16690800  0.36999600  1
  C  1421  1  0.78481800  0.17108800  0.35432600  1
  C  1422  1  0.77493100  0.16983600  0.33947200  1
  C  1434  1  0.74741100  0.16206000  0.32470100  1
  C  1435  1  0.73720700  0.14747600  0.32223100  1
  C  1436  1  0.72659000  0.14513300  0.30790900  1
  C  1437  1  0.72671500  0.15794100  0.29565100  1
  C  1438  1  0.73712000  0.17253400  0.29721500  1
  C  1439  1  0.74727600  0.17438200  0.31194000  1
  C  1447  1  0.71615600  0.82262500  0.68313900  1
  C  1448  1  0.73737700  0.76807500  0.70493500  1
  C  1449  1  0.75742800  0.78884400  0.64931700  1
  C  1450  1  0.73663700  0.75068500  0.70145100  1
  C  1451  1  0.73660600  0.73874100  0.71446000  1
  C  1452  1  0.73738600  0.74381500  0.73141700  1
  C  1453  1  0.73828500  0.76107900  0.73496600  1
  C  1454  1  0.73829300  0.77298300  0.72197300  1
  C  1455  1  0.71413200  0.83047500  0.69896000  1
  C  1456  1  0.70397300  0.84506200  0.70086000  1
  C  1457  1  0.69579900  0.85252500  0.68692100  1
  C  1458  1  0.69749700  0.84472400  0.67112900  1
  C  1459  1  0.70747600  0.83003500  0.66930400  1
  C  1460  1  0.75016100  0.79302900  0.63354400  1
  C  1461  1  0.76000100  0.79174400  0.61873000  1
  C  1462  1  0.77748900  0.78602100  0.61906800  1
  C  1463  1  0.78482200  0.78184000  0.63473900  1
  C  1464  1  0.77493600  0.78309600  0.64959300  1
  C  1476  1  0.74741400  0.79086400  0.66436200  1
  C  1477  1  0.73720700  0.80544800  0.66683300  1
  C  1478  1  0.72658900  0.80778800  0.68115400  1
  C  1479  1  0.72671300  0.79497800  0.69341000  1
  C  1480  1  0.73712100  0.78038700  0.69184700  1
  C  1481  1  0.74727800  0.77854200  0.67712300  1
  C  1489  1  0.33983400  0.61127900  0.93392000  1
  C  1490  1  0.44022800  0.60893700  0.87421700  1
  C  1491  1  0.44510800  0.60907200  0.98695900  1
  C  1492  1  0.45860400  0.60887800  0.87259500  1
  C  1493  1  0.45610400  0.60514600  0.84211900  1
  C  1494  1  0.43770300  0.60535900  0.84390000  1
  C  1495  1  0.42983900  0.60727900  0.85971200  1
  C  1496  1  0.32959400  0.60262100  0.92203500  1
  C  1497  1  0.31123200  0.60256400  0.92331900  1
  C  1498  1  0.30257400  0.61130000  0.93636600  1
  C  1499  1  0.31303000  0.61988000  0.94823100  1
  C  1500  1  0.33138700  0.61990800  0.94704800  1
  C  1501  1  0.43792100  0.60942800  0.00325100  1
  C  1502  1  0.44874900  0.60736200  0.01738700  1
  C  1503  1  0.46694900  0.60484300  0.01553800  1
  C  1504  1  0.47405000  0.60465000  0.99918198  1
  C  1505  1  0.46329400  0.60682700  0.98505200  1
  C  1517  1  0.41765600  0.61074300  0.94719600  1
  C  1518  1  0.39919100  0.61084800  0.94741200  1
  C  1519  1  0.38962200  0.61085600  0.93226300  1
  C  1520  1  0.39866700  0.61074500  0.91682800  1
  C  1521  1  0.41713500  0.61063400  0.91646300  1
  C  1522  1  0.42655400  0.61060600  0.93168300  1
  C  1527  1  0.43511500  0.61010700  0.97371500  1
  C  1528  1  0.42652300  0.61056500  0.96120500  1
  C  1529  1  0.43278200  0.60990100  0.88892300  1
  C  1530  1  0.42544200  0.61038100  0.90214500  1
  C  1531  1  0.37252500  0.61095100  0.93255000  1
  C  1532  1  0.35689900  0.61108400  0.93303100  1
  C  1533  1  0.47754800  0.60111100  0.02910400  1
  C  1534  1  0.28441600  0.61102700  0.93841500  1
  C  1535  1  0.46338400  0.60192600  0.82650200  1
  C  1536  1  0.46643600  0.60703200  0.85671700  1
  C  1540  1  0.33983500  0.21640300  0.92991600  1
  C  1541  1  0.44022400  0.21876900  0.98961900  1
  C  1542  1  0.44510800  0.21861500  0.87687400  1
  C  1543  1  0.45860000  0.21880700  0.99124798  1
  C  1544  1  0.45609600  0.22255000  0.02172200  1
  C  1545  1  0.43769500  0.22234800  0.01993600  1
  C  1546  1  0.42983400  0.22043300  0.00412300  1
  C  1547  1  0.32959800  0.22506800  0.94179600  1
  C  1548  1  0.31123400  0.22511600  0.94052000  1
  C  1549  1  0.30257500  0.21637800  0.92747500  1
  C  1550  1  0.31303300  0.20780400  0.91560700  1
  C  1551  1  0.33138800  0.20777100  0.91679100  1
  C  1552  1  0.43792100  0.21827100  0.86058200  1
  C  1553  1  0.44874700  0.22034100  0.84644600  1
  C  1554  1  0.46695300  0.22283300  0.84829300  1
  C  1555  1  0.47405000  0.22304000  0.86464900  1
  C  1556  1  0.46329400  0.22086400  0.87878100  1
  C  1568  1  0.41765800  0.21694800  0.91663900  1
  C  1569  1  0.39919400  0.21684200  0.91642200  1
  C  1570  1  0.38962400  0.21683400  0.93157000  1
  C  1571  1  0.39867000  0.21694600  0.94700600  1
  C  1572  1  0.41713600  0.21705700  0.94737200  1
  C  1573  1  0.42655600  0.21708500  0.93215200  1
  C  1578  1  0.43511600  0.21758200  0.89011900  1
  C  1579  1  0.42652500  0.21712500  0.90263000  1
  C  1580  1  0.43278200  0.21779700  0.97491200  1
  C  1581  1  0.42544300  0.21731400  0.96169100  1
  C  1582  1  0.37252700  0.21673700  0.93128300  1
  C  1583  1  0.35690100  0.21660300  0.93080200  1
  C  1584  1  0.47755500  0.22656600  0.83473000  1
  C  1585  1  0.28441900  0.21666400  0.92542100  1
  C  1586  1  0.46337600  0.22575700  0.03734200  1
  C  1587  1  0.46643000  0.22066300  0.00712500  1
  C  1591  1  0.33920300  0.91588860  0.23473900  1
  C  1592  1  0.43968300  0.85623300  0.23780400  1
  C  1593  1  0.44471000  0.96862560  0.23770100  1
  C  1594  1  0.45807100  0.85480800  0.23815700  1
  C  1595  1  0.45582800  0.82430300  0.24174600  1
  C  1596  1  0.43741400  0.82589100  0.24123000  1
  C  1597  1  0.42941600  0.84162800  0.23924000  1
  C  1598  1  0.32895000  0.90405860  0.24345400  1
  C  1599  1  0.31059000  0.90533860  0.24345300  1
  C  1600  1  0.30196100  0.91833060  0.23461000  1
  C  1601  1  0.31243200  0.93014060  0.22597400  1
  C  1602  1  0.33078600  0.92895760  0.22599600  1
  C  1603  1  0.43761000  0.98495160  0.23781200  1
  C  1604  1  0.44855900  0.99897659  0.23999000  1
  C  1605  1  0.46678500  0.99696159  0.24217700  1
  C  1606  1  0.47380200  0.98057860  0.24192500  1
  C  1607  1  0.46291800  0.96655860  0.23963100  1
  C  1619  1  0.41702000  0.92907060  0.23574100  1
  C  1620  1  0.39856000  0.92933160  0.23549600  1
  C  1621  1  0.38896700  0.91420060  0.23541300  1
  C  1622  1  0.39797200  0.89874600  0.23558700  1
  C  1623  1  0.41643400  0.89835500  0.23583500  1
  C  1624  1  0.42588900  0.91354860  0.23593700  1
  C  1629  1  0.43461400  0.95547960  0.23655800  1
  C  1630  1  0.42592800  0.94303960  0.23600600  1
  C  1631  1  0.43211700  0.87086000  0.23674000  1
  C  1632  1  0.42472100  0.88404400  0.23617200  1
  C  1633  1  0.37188000  0.91451460  0.23521100  1
  C  1634  1  0.35625800  0.91500660  0.23499900  1
  C  1635  1  0.47751400  0.01040800  0.24591200  1
  C  1636  1  0.28381000  0.92037260  0.23483800  1
  C  1637  1  0.46323100  0.80873300  0.24489200  1
  C  1638  1  0.46603600  0.83901000  0.24009700  1
  C  1642  1  0.33920800  0.91179360  0.62909500  1
  C  1643  1  0.43969500  0.97144660  0.62603800  1
  C  1644  1  0.44472300  0.85906100  0.62613900  1
  C  1645  1  0.45808300  0.97286460  0.62567000  1
  C  1646  1  0.45584900  0.00337300  0.62209700  1
  C  1647  1  0.43743500  0.00179000  0.62260900  1
  C  1648  1  0.42943200  0.98605460  0.62460600  1
  C  1649  1  0.32895400  0.92362260  0.62037800  1
  C  1650  1  0.31059400  0.92234660  0.62038700  1
  C  1651  1  0.30196600  0.90935660  0.62923200  1
  C  1652  1  0.31243700  0.89754800  0.63787000  1
  C  1653  1  0.33079100  0.89872800  0.63784200  1
  C  1654  1  0.43762700  0.84273300  0.62603900  1
  C  1655  1  0.44857700  0.82871200  0.62384500  1
  C  1656  1  0.46680300  0.83073200  0.62165100  1
  C  1657  1  0.47381500  0.84711600  0.62190200  1
  C  1658  1  0.46293000  0.86113300  0.62420700  1
  C  1670  1  0.41702500  0.89861100  0.62810000  1
  C  1671  1  0.39856500  0.89835000  0.62834100  1
  C  1672  1  0.38897200  0.91348160  0.62842300  1
  C  1673  1  0.39797700  0.92893560  0.62824900  1
  C  1674  1  0.41644000  0.92932660  0.62800400  1
  C  1675  1  0.42589400  0.91413260  0.62790400  1
  C  1680  1  0.43462100  0.87220400  0.62728300  1
  C  1681  1  0.42593300  0.88464300  0.62783600  1
  C  1682  1  0.43212400  0.95682160  0.62710100  1
  C  1683  1  0.42472700  0.94363760  0.62766900  1
  C  1684  1  0.37188600  0.91316660  0.62862400  1
  C  1685  1  0.35626400  0.91267560  0.62883500  1
  C  1686  1  0.47753700  0.81728300  0.61793400  1
  C  1687  1  0.28381500  0.90731360  0.62900800  1
  C  1688  1  0.46325600  0.01893700  0.61893100  1
  C  1689  1  0.46605200  0.98866060  0.62373400  1
  C  1693  1  0.21717100  0.61112500  0.93046700  1
  C  1694  1  0.11667800  0.60876300  0.99023698  1
  C  1695  1  0.11175700  0.60823800  0.87769700  1
  C  1696  1  0.09829100  0.60868200  0.99174098  1
  C  1697  1  0.10059600  0.60501000  0.02223700  1
  C  1698  1  0.11900800  0.60526000  0.02057200  1
  C  1699  1  0.12697400  0.60715900  0.00480600  1
  C  1700  1  0.22744500  0.60247600  0.94233100  1
  C  1701  1  0.24580500  0.60246200  0.94102500  1
  C  1702  1  0.25442600  0.61123300  0.92797800  1
  C  1703  1  0.24393300  0.61979200  0.91612800  1
  C  1704  1  0.22557900  0.61978500  0.91733600  1
  C  1705  1  0.11892100  0.60824100  0.86139400  1
  C  1706  1  0.10804100  0.60607700  0.84731600  1
  C  1707  1  0.08981700  0.60379200  0.84924800  1
  C  1708  1  0.08273800  0.60392000  0.86560800  1
  C  1709  1  0.09354900  0.60621700  0.87968000  1
  C  1721  1  0.13933500  0.61026200  0.91734100  1
  C  1722  1  0.15779700  0.61043200  0.91708900  1
  C  1723  1  0.16739100  0.61057300  0.93222100  1
  C  1724  1  0.15837300  0.61053300  0.94767200  1
  C  1725  1  0.13990700  0.61036100  0.94806500  1
  C  1726  1  0.13046200  0.61019800  0.93286300  1
  C  1731  1  0.12179400  0.60938400  0.89089100  1
  C  1732  1  0.13043800  0.60995800  0.90336000  1
  C  1733  1  0.12421700  0.60971000  0.97557700  1
  C  1734  1  0.13160900  0.61015700  0.96238300  1
  C  1735  1  0.18448600  0.61072000  0.93190200  1
  C  1736  1  0.20010900  0.61089200  0.93138300  1
  C  1737  1  0.07915800  0.60006300  0.83574500  1
  C  1738  1  0.27258300  0.61099700  0.92591400  1
  C  1739  1  0.09321600  0.60181600  0.03781400  1
  C  1740  1  0.09035700  0.60683100  0.00756900  1
  C  1744  1  0.21717200  0.21656500  0.93336100  1
  C  1745  1  0.11667600  0.21890400  0.87358900  1
  C  1746  1  0.11176200  0.21945400  0.98612900  1
  C  1747  1  0.09829000  0.21900800  0.87208900  1
  C  1748  1  0.10059100  0.22267400  0.84159300  1
  C  1749  1  0.11900300  0.22240600  0.84325200  1
  C  1750  1  0.12697100  0.22049900  0.85901700  1
  C  1751  1  0.22744900  0.22522000  0.92150300  1
  C  1752  1  0.24580900  0.22523100  0.92281000  1
  C  1753  1  0.25442600  0.21646500  0.93586000  1
  C  1754  1  0.24393300  0.20789900  0.94770500  1
  C  1755  1  0.22557900  0.20790700  0.94649400  1
  C  1756  1  0.11893000  0.21945400  0.00243000  1
  C  1757  1  0.10805400  0.22162700  0.01651000  1
  C  1758  1  0.08982800  0.22389500  0.01458200  1
  C  1759  1  0.08274200  0.22374700  0.99822398  1
  C  1760  1  0.09355200  0.22145700  0.98414900  1
  C  1772  1  0.13933800  0.21742800  0.94648400  1
  C  1773  1  0.15780000  0.21725600  0.94673600  1
  C  1774  1  0.16739300  0.21711300  0.93160300  1
  C  1775  1  0.15837500  0.21715400  0.91615100  1
  C  1776  1  0.13991000  0.21732600  0.91575900  1
  C  1777  1  0.13046400  0.21748900  0.93096100  1
  C  1782  1  0.12179600  0.21830600  0.97293300  1
  C  1783  1  0.13044100  0.21773200  0.96046400  1
  C  1784  1  0.12421700  0.21796900  0.88824800  1
  C  1785  1  0.13161000  0.21752700  0.90144100  1
  C  1786  1  0.18448900  0.21696700  0.93192200  1
  C  1787  1  0.20011200  0.21679500  0.93244000  1
  C  1788  1  0.07917300  0.22763300  0.02808600  1
  C  1789  1  0.27258400  0.21668900  0.93792200  1
  C  1790  1  0.09320900  0.22588500  0.82602000  1
  C  1791  1  0.09035400  0.22084900  0.85626000  1
  C  1795  1  0.21661200  0.91529460  0.62919200  1
  C  1796  1  0.11623600  0.85548600  0.62682200  1
  C  1797  1  0.11127400  0.96809060  0.62627700  1
  C  1798  1  0.09785500  0.85394100  0.62670100  1
  C  1799  1  0.10024700  0.82345300  0.62302600  1
  C  1800  1  0.11865400  0.82515800  0.62331700  1
  C  1801  1  0.12657500  0.84094200  0.62523500  1
  C  1802  1  0.22686200  0.90347360  0.62046200  1
  C  1803  1  0.24522100  0.90477460  0.62042700  1
  C  1804  1  0.25385400  0.91777460  0.62925500  1
  C  1805  1  0.24338700  0.92958260  0.63789600  1
  C  1806  1  0.22503300  0.92838060  0.63790700  1
  C  1807  1  0.11849000  0.98437260  0.62619400  1
  C  1808  1  0.10764500  0.99847159  0.62399900  1
  C  1809  1  0.08941000  0.99657659  0.62177100  1
  C  1810  1  0.08228000  0.98023860  0.62199300  1
  C  1811  1  0.09305800  0.96614660  0.62430300  1
  C  1823  1  0.13879100  0.92841660  0.62834300  1
  C  1824  1  0.15725200  0.92867460  0.62851700  1
  C  1825  1  0.16684500  0.91354460  0.62866100  1
  C  1826  1  0.15783600  0.89809000  0.62861900  1
  C  1827  1  0.13937300  0.89769500  0.62844200  1
  C  1828  1  0.12992100  0.91289160  0.62827700  1
  C  1833  1  0.12127800  0.95487860  0.62744300  1
  C  1834  1  0.12989900  0.94239660  0.62802900  1
  C  1835  1  0.12373000  0.87016200  0.62777700  1
  C  1836  1  0.13108800  0.88337200  0.62823300  1
  C  1837  1  0.18393500  0.91386760  0.62880800  1
  C  1838  1  0.19955700  0.91438460  0.62897400  1
  C  1839  1  0.07877500  0.01009700  0.61804500  1
  C  1840  1  0.27200300  0.91983060  0.62899200  1
  C  1841  1  0.09291000  0.80786300  0.61981200  1
  C  1842  1  0.08996700  0.83809300  0.62484100  1
  C  1846  1  0.21660800  0.91239560  0.23464500  1
  C  1847  1  0.11623000  0.97220860  0.23701200  1
  C  1848  1  0.11128200  0.85959600  0.23755300  1
  C  1849  1  0.09784800  0.97375460  0.23711900  1
  C  1850  1  0.10023800  0.00424100  0.24080700  1
  C  1851  1  0.11864700  0.00253500  0.24053200  1
  C  1852  1  0.12656900  0.98675260  0.23860400  1
  C  1853  1  0.22685800  0.92421660  0.24337500  1
  C  1854  1  0.24521700  0.92291260  0.24341500  1
  C  1855  1  0.25384900  0.90990760  0.23459600  1
  C  1856  1  0.24338200  0.89810500  0.22594500  1
  C  1857  1  0.22502900  0.89931200  0.22592800  1
  C  1858  1  0.11850400  0.84331700  0.23761900  1
  C  1859  1  0.10766700  0.82921200  0.23980900  1
  C  1860  1  0.08943400  0.83109800  0.24205700  1
  C  1861  1  0.08229800  0.84743500  0.24186100  1
  C  1862  1  0.09306600  0.86153300  0.23954000  1
  C  1874  1  0.13878800  0.89927900  0.23548700  1
  C  1875  1  0.15724800  0.89902100  0.23531100  1
  C  1876  1  0.16684100  0.91415060  0.23516600  1
  C  1877  1  0.15783200  0.92960460  0.23520700  1
  C  1878  1  0.13936800  0.93000060  0.23538500  1
  C  1879  1  0.12991700  0.91480260  0.23555200  1
  C  1884  1  0.12127800  0.87281400  0.23638600  1
  C  1885  1  0.12989600  0.88529800  0.23580100  1
  C  1886  1  0.12372500  0.95753260  0.23605300  1
  C  1887  1  0.13108400  0.94432260  0.23559600  1
  C  1888  1  0.18393100  0.91382760  0.23502100  1
  C  1889  1  0.19955300  0.91330860  0.23485700  1
  C  1890  1  0.07881500  0.81757400  0.24580900  1
  C  1891  1  0.27199900  0.90785460  0.23485400  1
  C  1892  1  0.09290000  0.01983100  0.24401800  1
  C  1893  1  0.08995900  0.98960060  0.23899000  1
  C  1897  1  0.83919900  0.10934300  0.43446400  1
  C  1898  1  0.93943670  0.10722700  0.37508700  1
  C  1899  1  0.94531670  0.10770800  0.48731700  1
  C  1900  1  0.95737870  0.10370100  0.37297900  1
  C  1901  1  0.95487570  0.10784600  0.34250200  1
  C  1902  1  0.93688370  0.11133400  0.34485700  1
  C  1903  1  0.92924370  0.11103500  0.36087400  1
  C  1904  1  0.82898700  0.10071400  0.42253700  1
  C  1905  1  0.81061500  0.10083900  0.42366100  1
  C  1906  1  0.80192900  0.10973300  0.43658300  1
  C  1907  1  0.81235800  0.11829800  0.44848000  1
  C  1908  1  0.83072300  0.11814400  0.44745800  1
  C  1909  1  0.93954870  0.10366300  0.50362000  1
  C  1910  1  0.95141470  0.10350700  0.51713600  1
  C  1911  1  0.96932070  0.10737900  0.51473300  1
  C  1912  1  0.97486270  0.11146900  0.49829300  1
  C  1913  1  0.96308270  0.11164900  0.48477800  1
  C  1925  1  0.91693970  0.10763100  0.44817800  1
  C  1926  1  0.89848200  0.10803600  0.44834000  1
  C  1927  1  0.88897500  0.10812800  0.43315800  1
  C  1928  1  0.89806900  0.10780600  0.41775200  1
  C  1929  1  0.91653070  0.10739400  0.41744700  1
  C  1930  1  0.92589370  0.10732100  0.43269600  1
  C  1935  1  0.93463370  0.10760800  0.47454400  1
  C  1936  1  0.92578570  0.10759300  0.46219300  1
  C  1937  1  0.93217770  0.10708300  0.38990600  1
  C  1938  1  0.92488070  0.10716500  0.40315600  1
  C  1939  1  0.87188600  0.10853600  0.43337600  1
  C  1940  1  0.85626400  0.10892400  0.43374500  1
  C  1941  1  0.98162470  0.10685700  0.52762300  1
  C  1942  1  0.78376000  0.10956400  0.43851000  1
  C  1943  1  0.96187170  0.10844200  0.32637000  1
  C  1944  1  0.96497370  0.10400600  0.35689000  1
  C  1948  1  0.83920200  0.71834600  0.42937400  1
  C  1949  1  0.93944070  0.72046400  0.48874700  1
  C  1950  1  0.94531670  0.71997900  0.37651600  1
  C  1951  1  0.95738170  0.72399800  0.49085600  1
  C  1952  1  0.95488070  0.71984500  0.52133200  1
  C  1953  1  0.93688970  0.71635300  0.51897800  1
  C  1954  1  0.92925070  0.71665200  0.50296000  1
  C  1955  1  0.82899200  0.72698200  0.44129700  1
  C  1956  1  0.81062000  0.72684700  0.44018300  1
  C  1957  1  0.80193100  0.71795100  0.42726400  1
  C  1958  1  0.81235800  0.70939200  0.41536200  1
  C  1959  1  0.83072300  0.70953900  0.41638400  1
  C  1960  1  0.93954970  0.72403700  0.36021600  1
  C  1961  1  0.95141570  0.72419400  0.34669900  1
  C  1962  1  0.96931770  0.72030500  0.34909900  1
  C  1963  1  0.97485970  0.71621300  0.36553700  1
  C  1964  1  0.96308070  0.71603000  0.37905200  1
  C  1976  1  0.91694270  0.72006000  0.41565700  1
  C  1977  1  0.89848600  0.71965500  0.41549600  1
  C  1978  1  0.88897800  0.71956500  0.43067800  1
  C  1979  1  0.89807200  0.71988600  0.44608400  1
  C  1980  1  0.91653370  0.72029800  0.44638800  1
  C  1981  1  0.92589670  0.72037000  0.43114000  1
  C  1986  1  0.93463570  0.72008000  0.38929000  1
  C  1987  1  0.92578870  0.72009700  0.40164200  1
  C  1988  1  0.93218070  0.72060900  0.47393000  1
  C  1989  1  0.92488270  0.72052900  0.46068000  1
  C  1990  1  0.87189000  0.71915500  0.43046000  1
  C  1991  1  0.85626600  0.71876700  0.43008900  1
  C  1992  1  0.98162170  0.72083200  0.33620900  1
  C  1993  1  0.78376300  0.71813400  0.42533100  1
  C  1994  1  0.96187770  0.71924900  0.53746300  1
  C  1995  1  0.96497770  0.72369100  0.50694400  1
  C  1999  1  0.83977300  0.41638700  0.73639600  1
  C  2000  1  0.93987370  0.35697000  0.73857600  1
  C  2001  1  0.94578670  0.46928000  0.73806000  1
  C  2002  1  0.95780670  0.35481800  0.74211300  1
  C  2003  1  0.95520970  0.32434600  0.73800200  1
  C  2004  1  0.93722570  0.32674400  0.73450400  1
  C  2005  1  0.92963670  0.34278400  0.73478000  1
  C  2006  1  0.82958300  0.40450600  0.74510600  1
  C  2007  1  0.81121300  0.40562200  0.74499200  1
  C  2008  1  0.80252100  0.41849600  0.73603700  1
  C  2009  1  0.81292500  0.43035200  0.72739300  1
  C  2010  1  0.83128900  0.42933100  0.72752800  1
  C  2011  1  0.93997870  0.48555400  0.74216400  1
  C  2012  1  0.95180270  0.49910200  0.74232200  1
  C  2013  1  0.96970570  0.49675500  0.73839800  1
  C  2014  1  0.97528870  0.48034200  0.73425800  1
  C  2015  1  0.96354870  0.46679500  0.73407300  1
  C  2027  1  0.91748970  0.43009800  0.73813400  1
  C  2028  1  0.89903500  0.43026600  0.73771500  1
  C  2029  1  0.88952900  0.41508500  0.73762000  1
  C  2030  1  0.89861400  0.39967600  0.73795000  1
  C  2031  1  0.91707270  0.39937000  0.73837500  1
  C  2032  1  0.92644270  0.41461500  0.73845100  1
  C  2037  1  0.93514570  0.45648100  0.73816000  1
  C  2038  1  0.92632670  0.44411300  0.73817400  1
  C  2039  1  0.93266670  0.37180700  0.73870400  1
  C  2040  1  0.92540770  0.38507500  0.73861400  1
  C  2041  1  0.87244900  0.41530600  0.73720000  1
  C  2042  1  0.85683000  0.41567600  0.73680800  1
  C  2043  1  0.98197170  0.50967500  0.73893500  1
  C  2044  1  0.78435900  0.42041200  0.73622700  1
  C  2045  1  0.96215870  0.30819700  0.73743400  1
  C  2046  1  0.96535270  0.33871000  0.74182800  1
  C  2050  1  0.83977800  0.41130000  0.12743200  1
  C  2051  1  0.93987970  0.47071800  0.12525600  1
  C  2052  1  0.94579170  0.35840700  0.12576900  1
  C  2053  1  0.95781470  0.47286800  0.12172500  1
  C  2054  1  0.95521570  0.50334200  0.12583200  1
  C  2055  1  0.93722970  0.50094300  0.12932500  1
  C  2056  1  0.92964070  0.48490400  0.12904600  1
  C  2057  1  0.82958700  0.42318000  0.11871800  1
  C  2058  1  0.81121700  0.42206700  0.11883700  1
  C  2059  1  0.80252600  0.40919500  0.12779500  1
  C  2060  1  0.81293100  0.39734100  0.13644400  1
  C  2061  1  0.83129400  0.39836000  0.13630500  1
  C  2062  1  0.93997970  0.34213000  0.12168200  1
  C  2063  1  0.95180570  0.32858300  0.12151900  1
  C  2064  1  0.96970970  0.33093100  0.12542900  1
  C  2065  1  0.97529570  0.34734600  0.12955900  1
  C  2066  1  0.96355670  0.36089200  0.12974900  1
  C  2078  1  0.91749470  0.39758900  0.12569500  1
  C  2079  1  0.89904000  0.39742300  0.12611500  1
  C  2080  1  0.88953400  0.41260300  0.12621000  1
  C  2081  1  0.89861900  0.42801200  0.12588000  1
  C  2082  1  0.91707970  0.42831700  0.12545400  1
  C  2083  1  0.92644770  0.41307200  0.12537800  1
  C  2088  1  0.93515170  0.37120600  0.12566900  1
  C  2089  1  0.92633170  0.38357400  0.12565500  1
  C  2090  1  0.93267170  0.45588000  0.12512500  1
  C  2091  1  0.92541370  0.44261300  0.12521600  1
  C  2092  1  0.87245400  0.41238200  0.12662800  1
  C  2093  1  0.85683500  0.41201300  0.12702000  1
  C  2094  1  0.98197370  0.31800900  0.12490400  1
  C  2095  1  0.78436500  0.40727400  0.12760400  1
  C  2096  1  0.96216670  0.51948900  0.12641100  1
  C  2097  1  0.96535970  0.48897700  0.12201300  1
  C  2101  1  0.71658600  0.10942900  0.43003700  1
  C  2102  1  0.61635500  0.10793000  0.48952100  1
  C  2103  1  0.61065100  0.10786900  0.37711100  1
  C  2104  1  0.59840100  0.10447200  0.49166500  1
  C  2105  1  0.60096300  0.10860400  0.52214800  1
  C  2106  1  0.61896400  0.11203500  0.51975600  1
  C  2107  1  0.62657600  0.11171100  0.50372300  1
  C  2108  1  0.72679900  0.10079200  0.44195700  1
  C  2109  1  0.74516900  0.10088300  0.44080800  1
  C  2110  1  0.75385600  0.10974800  0.42786800  1
  C  2111  1  0.74342800  0.11831100  0.41596800  1
  C  2112  1  0.72506300  0.11819900  0.41702000  1
  C  2113  1  0.61652500  0.10379500  0.36084800  1
  C  2114  1  0.60475500  0.10364200  0.34725200  1
  C  2115  1  0.58683900  0.10754600  0.34953400  1
  C  2116  1  0.58118900  0.11165300  0.36593500  1
  C  2117  1  0.59287300  0.11183700  0.37952600  1
  C  2129  1  0.63884300  0.10786900  0.41638800  1
  C  2130  1  0.65730300  0.10821100  0.41623400  1
  C  2131  1  0.66680600  0.10835600  0.43141800  1
  C  2132  1  0.65770400  0.10815700  0.44682200  1
  C  2133  1  0.63923800  0.10781200  0.44712800  1
  C  2134  1  0.62988400  0.10768200  0.43187200  1
  C  2139  1  0.62124300  0.10777800  0.38995700  1
  C  2140  1  0.63002000  0.10778800  0.40235500  1
  C  2141  1  0.62360000  0.10771000  0.47468800  1
  C  2142  1  0.63088500  0.10769700  0.46142800  1
  C  2143  1  0.68389800  0.10871100  0.43119300  1
  C  2144  1  0.69952100  0.10905500  0.43079100  1
  C  2145  1  0.57461800  0.10701800  0.33656900  1
  C  2146  1  0.77202400  0.10954600  0.42592700  1
  C  2147  1  0.59401300  0.10912200  0.53831300  1
  C  2148  1  0.59083100  0.10480800  0.50776700  1
  C  2152  1  0.71658900  0.71826800  0.43379600  1
  C  2153  1  0.61635600  0.71976100  0.37430900  1
  C  2154  1  0.61065500  0.71982900  0.48671900  1
  C  2155  1  0.59840100  0.72321600  0.37216600  1
  C  2156  1  0.60096400  0.71908600  0.34168100  1
  C  2157  1  0.61896500  0.71565800  0.34407300  1
  C  2158  1  0.62657800  0.71598400  0.36010600  1
  C  2159  1  0.72680300  0.72691300  0.42188200  1
  C  2160  1  0.74517300  0.72682100  0.42303200  1
  C  2161  1  0.75385800  0.71795800  0.43597500  1
  C  2162  1  0.74342900  0.70938800  0.44786900  1
  C  2163  1  0.72506400  0.70949900  0.44681400  1
  C  2164  1  0.61653000  0.72389900  0.50298200  1
  C  2165  1  0.60475900  0.72405400  0.51657700  1
  C  2166  1  0.58684400  0.72015100  0.51429600  1
  C  2167  1  0.58119400  0.71604000  0.49789600  1
  C  2168  1  0.59287900  0.71585800  0.48430400  1
  C  2180  1  0.63884700  0.71982200  0.44744200  1
  C  2181  1  0.65730700  0.71948200  0.44759400  1
  C  2182  1  0.66680900  0.71933500  0.43241000  1
  C  2183  1  0.65770500  0.71953400  0.41700600  1
  C  2184  1  0.63923900  0.71988000  0.41670200  1
  C  2185  1  0.62988700  0.72001000  0.43195800  1
  C  2190  1  0.62124700  0.71991600  0.47387200  1
  C  2191  1  0.63002400  0.71990400  0.46147400  1
  C  2192  1  0.62360200  0.71998300  0.38914100  1
  C  2193  1  0.63088600  0.71999500  0.40240100  1
  C  2194  1  0.68390000  0.71898100  0.43263400  1
  C  2195  1  0.69952400  0.71863900  0.43303700  1
  C  2196  1  0.57462300  0.72068000  0.52726100  1
  C  2197  1  0.77202600  0.71815300  0.43791500  1
  C  2198  1  0.59401300  0.71856500  0.32551700  1
  C  2199  1  0.59083100  0.72287900  0.35606300  1
  C  2203  1  0.71725000  0.41577900  0.12733500  1
  C  2204  1  0.61698100  0.35636700  0.12513900  1
  C  2205  1  0.61120200  0.46852600  0.12513000  1
  C  2206  1  0.59903400  0.35432700  0.12159500  1
  C  2207  1  0.60141300  0.32385400  0.12579200  1
  C  2208  1  0.61941300  0.32613900  0.12929100  1
  C  2209  1  0.62711700  0.34212700  0.12897500  1
  C  2210  1  0.72747100  0.40391800  0.11863100  1
  C  2211  1  0.74583700  0.40506600  0.11876300  1
  C  2212  1  0.75449700  0.41794300  0.12774200  1
  C  2213  1  0.74406100  0.42978400  0.13637500  1
  C  2214  1  0.72569900  0.42873500  0.13621600  1
  C  2215  1  0.61703300  0.48478400  0.12099800  1
  C  2216  1  0.60519000  0.49831000  0.12066700  1
  C  2217  1  0.58725600  0.49595000  0.12444100  1
  C  2218  1  0.58165000  0.47955600  0.12861900  1
  C  2219  1  0.59340800  0.46602900  0.12897700  1
  C  2231  1  0.63954500  0.42939500  0.12538800  1
  C  2232  1  0.65799700  0.42957200  0.12585400  1
  C  2233  1  0.66750200  0.41439200  0.12603700  1
  C  2234  1  0.65842100  0.39898100  0.12574600  1
  C  2235  1  0.63996200  0.39867400  0.12527200  1
  C  2236  1  0.63059200  0.41391500  0.12510900  1
  C  2241  1  0.62186300  0.45575000  0.12516600  1
  C  2242  1  0.63070400  0.44339900  0.12525400  1
  C  2243  1  0.62429000  0.37115500  0.12498800  1
  C  2244  1  0.63161400  0.38438800  0.12505900  1
  C  2245  1  0.68457900  0.41462800  0.12649000  1
  C  2246  1  0.70019700  0.41503200  0.12690600  1
  C  2247  1  0.57499400  0.50885400  0.12373900  1
  C  2248  1  0.77265600  0.41987900  0.12757600  1
  C  2249  1  0.59434200  0.30776000  0.12643600  1
  C  2250  1  0.59137500  0.33826900  0.12191800  1
  C  2254  1  0.71724500  0.41191100  0.73649400  1
  C  2255  1  0.61697500  0.47132600  0.73867900  1
  C  2256  1  0.61120000  0.35916600  0.73868800  1
  C  2257  1  0.59902900  0.47336700  0.74222800  1
  C  2258  1  0.60140700  0.50384000  0.73802500  1
  C  2259  1  0.61940400  0.50155400  0.73452200  1
  C  2260  1  0.62710900  0.48556700  0.73483900  1
  C  2261  1  0.72746600  0.42377400  0.74519700  1
  C  2262  1  0.74583200  0.42262400  0.74506700  1
  C  2263  1  0.75449100  0.40973800  0.73609900  1
  C  2264  1  0.74405600  0.39790000  0.72746300  1
  C  2265  1  0.72569400  0.39895200  0.72761600  1
  C  2266  1  0.61702800  0.34291200  0.74283900  1
  C  2267  1  0.60518600  0.32938700  0.74316900  1
  C  2268  1  0.58725400  0.33174200  0.73938100  1
  C  2269  1  0.58165100  0.34813300  0.73519100  1
  C  2270  1  0.59340900  0.36165800  0.73482500  1
  C  2282  1  0.63954000  0.39829800  0.73843200  1
  C  2283  1  0.65799300  0.39812300  0.73796800  1
  C  2284  1  0.66749700  0.41330300  0.73778400  1
  C  2285  1  0.65841600  0.42871400  0.73807400  1
  C  2286  1  0.63995700  0.42902000  0.73854700  1
  C  2287  1  0.63058700  0.41377900  0.73871000  1
  C  2292  1  0.62185900  0.37194400  0.73865300  1
  C  2293  1  0.63069900  0.38429500  0.73856700  1
  C  2294  1  0.62428500  0.45653900  0.73883200  1
  C  2295  1  0.63160900  0.44330500  0.73875900  1
  C  2296  1  0.68457400  0.41306700  0.73733300  1
  C  2297  1  0.70019200  0.41266100  0.73691800  1
  C  2298  1  0.57499100  0.31884100  0.74010000  1
  C  2299  1  0.77265100  0.40780700  0.73626100  1
  C  2300  1  0.59433400  0.51993300  0.73738100  1
  C  2301  1  0.59136800  0.48942300  0.74190200  1
  C  2305  1  0.50680400  0.60186500  0.77734800  1
  C  2306  1  0.52723000  0.62120000  0.72146900  1
  C  2307  1  0.54842700  0.56735000  0.74497100  1
  C  2308  1  0.52627500  0.61603300  0.70450900  1
  C  2309  1  0.52632900  0.62774200  0.69132900  1
  C  2310  1  0.52732700  0.64506100  0.69460400  1
  C  2311  1  0.52818500  0.65037700  0.71148400  1
  C  2312  1  0.52811300  0.63863900  0.72466800  1
  C  2313  1  0.50679800  0.61718900  0.78628200  1
  C  2314  1  0.49708200  0.61904700  0.80116600  1
  C  2315  1  0.48678100  0.60578400  0.80739700  1
  C  2316  1  0.48675300  0.59045500  0.79852800  1
  C  2317  1  0.49655400  0.58856000  0.78375200  1
  C  2318  1  0.54184600  0.55143400  0.74965600  1
  C  2319  1  0.55224500  0.53693000  0.74846700  1
  C  2320  1  0.56959400  0.53778200  0.74256900  1
  C  2321  1  0.57621100  0.55364200  0.73781400  1
  C  2322  1  0.56581600  0.56812700  0.73899100  1
  C  2334  1  0.53797900  0.58217100  0.74642200  1
  C  2335  1  0.52768300  0.58506500  0.76083600  1
  C  2336  1  0.51725900  0.59958500  0.76266500  1
  C  2337  1  0.51742900  0.61153400  0.74956400  1
  C  2338  1  0.52747000  0.60918300  0.73483400  1
  C  2339  1  0.53767500  0.59442400  0.73361200  1
  C  2347  1  0.50680600  0.22582500  0.08648800  1
  C  2348  1  0.52724300  0.20649200  0.14236300  1
  C  2349  1  0.54843400  0.26034200  0.11885400  1
  C  2350  1  0.52629600  0.21166000  0.15932300  1
  C  2351  1  0.52634300  0.19994900  0.17250300  1
  C  2352  1  0.52733600  0.18263100  0.16922800  1
  C  2353  1  0.52819400  0.17731400  0.15234600  1
  C  2354  1  0.52812900  0.18905200  0.13916400  1
  C  2355  1  0.50678900  0.21049900  0.07755900  1
  C  2356  1  0.49708200  0.20864500  0.06266900  1
  C  2357  1  0.48678100  0.22190700  0.05643900  1
  C  2358  1  0.48675100  0.23723500  0.06531100  1
  C  2359  1  0.49655400  0.23913000  0.08008500  1
  C  2360  1  0.54185300  0.27625700  0.11417300  1
  C  2361  1  0.55225300  0.29076200  0.11535500  1
  C  2362  1  0.56960200  0.28990900  0.12125100  1
  C  2363  1  0.57621900  0.27405200  0.12601100  1
  C  2364  1  0.56582400  0.25956600  0.12483600  1
  C  2376  1  0.53798700  0.24552100  0.11740600  1
  C  2377  1  0.52769400  0.24262400  0.10299100  1
  C  2378  1  0.51726500  0.22810700  0.10116700  1
  C  2379  1  0.51743700  0.21615700  0.11426900  1
  C  2380  1  0.52748100  0.21850900  0.12899600  1
  C  2381  1  0.53768500  0.23326900  0.13021600  1
  C  2389  1  0.50713700  0.76003800  0.24447400  1
  C  2390  1  0.52830500  0.70583300  0.22202500  1
  C  2391  1  0.54802200  0.72582000  0.27802600  1
  C  2392  1  0.52735800  0.68843000  0.22541600  1
  C  2393  1  0.52737000  0.67653800  0.21236800  1
  C  2394  1  0.52838100  0.68166800  0.19544200  1
  C  2395  1  0.52946800  0.69894300  0.19197400  1
  C  2396  1  0.52944000  0.71080200  0.20501600  1
  C  2397  1  0.50749700  0.76952800  0.22948900  1
  C  2398  1  0.49772300  0.78439600  0.22790800  1
  C  2399  1  0.48700600  0.79005400  0.24111300  1
  C  2400  1  0.48667800  0.78069200  0.25614400  1
  C  2401  1  0.49654900  0.76592400  0.25776900  1
  C  2402  1  0.54125300  0.72989000  0.29404400  1
  C  2403  1  0.55159700  0.72854400  0.30856900  1
  C  2404  1  0.56909800  0.72308900  0.30765900  1
  C  2405  1  0.57587400  0.71881800  0.29172100  1
  C  2406  1  0.56552200  0.72014400  0.27720600  1
  C  2418  1  0.53774800  0.72791900  0.26315200  1
  C  2419  1  0.52748700  0.74249000  0.26090500  1
  C  2420  1  0.51739500  0.74517900  0.24631900  1
  C  2421  1  0.51783300  0.73280200  0.23365800  1
  C  2422  1  0.52797900  0.71804300  0.23521500  1
  C  2423  1  0.53779600  0.71587100  0.25011300  1
  C  2431  1  0.50714300  0.06764700  0.61935700  1
  C  2432  1  0.52830300  0.12185900  0.64180300  1
  C  2433  1  0.54801900  0.10186900  0.58580200  1
  C  2434  1  0.52735300  0.13926000  0.63841200  1
  C  2435  1  0.52736700  0.15115200  0.65146000  1
  C  2436  1  0.52837800  0.14602300  0.66838600  1
  C  2437  1  0.52946400  0.12874800  0.67185400  1
  C  2438  1  0.52943800  0.11688900  0.65881200  1
  C  2439  1  0.50750700  0.05815700  0.63434200  1
  C  2440  1  0.49773200  0.04329000  0.63592700  1
  C  2441  1  0.48702800  0.03761900  0.62271600  1
  C  2442  1  0.48669500  0.04698400  0.60768700  1
  C  2443  1  0.49655700  0.06175600  0.60606100  1
  C  2444  1  0.54125300  0.09779600  0.56978600  1
  C  2445  1  0.55159700  0.09914200  0.55526000  1
  C  2446  1  0.56909700  0.10459900  0.55617000  1
  C  2447  1  0.57587200  0.10887400  0.57210900  1
  C  2448  1  0.56552100  0.10754300  0.58662300  1
  C  2460  1  0.53774400  0.09977200  0.60067600  1
  C  2461  1  0.52748700  0.08520000  0.60292400  1
  C  2462  1  0.51739500  0.08251000  0.61751100  1
  C  2463  1  0.51782800  0.09488900  0.63016900  1
  C  2464  1  0.52797500  0.10964800  0.62861300  1
  C  2465  1  0.53779200  0.11182000  0.61371500  1
  C  2473  1  0.04949700  0.60166200  0.08668600  1
  C  2474  1  0.02895900  0.62105900  0.14248100  1
  C  2475  1  0.00792800  0.56708700  0.11905800  1
  C  2476  1  0.02990600  0.61593900  0.15945500  1
  C  2477  1  0.02990200  0.62769000  0.17260000  1
  C  2478  1  0.02896400  0.64500100  0.16927200  1
  C  2479  1  0.02809400  0.65027000  0.15237800  1
  C  2480  1  0.02811300  0.63849100  0.13923200  1
  C  2481  1  0.04952000  0.61698200  0.07774500  1
  C  2482  1  0.05930500  0.61884900  0.06290500  1
  C  2483  1  0.06965600  0.60559800  0.05672800  1
  C  2484  1  0.06965700  0.59026700  0.06559600  1
  C  2485  1  0.05979000  0.58836500  0.08032900  1
  C  2486  1  0.01458400  0.55119600  0.11438500  1
  C  2487  1  0.00425200  0.53664900  0.11556900  1
  C  2488  1  0.98689070  0.53743000  0.12144600  1
  C  2489  1  0.98020270  0.55326100  0.12620700  1
  C  2490  1  0.99053372  0.56779100  0.12503500  1
  C  2502  1  0.01831300  0.58194900  0.11759200  1
  C  2503  1  0.02861400  0.58484800  0.10318200  1
  C  2504  1  0.03900900  0.59938400  0.10134400  1
  C  2505  1  0.03880100  0.61134900  0.11442700  1
  C  2506  1  0.02873900  0.60900800  0.12914400  1
  C  2507  1  0.01856700  0.59422800  0.13038100  1
  C  2515  1  0.04949900  0.22602600  0.77713900  1
  C  2516  1  0.02895100  0.20663000  0.72134600  1
  C  2517  1  0.00792500  0.26060100  0.74477300  1
  C  2518  1  0.02989100  0.21175000  0.70437100  1
  C  2519  1  0.02989500  0.19999800  0.69122800  1
  C  2520  1  0.02896000  0.18268600  0.69455600  1
  C  2521  1  0.02809000  0.17741900  0.71145000  1
  C  2522  1  0.02810300  0.18919900  0.72459600  1
  C  2523  1  0.04953500  0.21070300  0.78607200  1
  C  2524  1  0.05930900  0.20884000  0.80091900  1
  C  2525  1  0.06966000  0.22209300  0.80709500  1
  C  2526  1  0.06966100  0.23742200  0.79822700  1
  C  2527  1  0.05979300  0.23932500  0.78349500  1
  C  2528  1  0.01458300  0.27649200  0.74944100  1
  C  2529  1  0.00424900  0.29104000  0.74826200  1
  C  2530  1  0.98688770  0.29025800  0.74238800  1
  C  2531  1  0.98020070  0.27442800  0.73762300  1
  C  2532  1  0.99053172  0.25989900  0.73879500  1
  C  2544  1  0.01831000  0.24573800  0.74623700  1
  C  2545  1  0.02860900  0.24283700  0.76064800  1
  C  2546  1  0.03900900  0.22830400  0.76248200  1
  C  2547  1  0.03880000  0.21634000  0.74939800  1
  C  2548  1  0.02873500  0.21868000  0.73468300  1
  C  2549  1  0.01856400  0.23346200  0.73344700  1
  C  2557  1  0.04924200  0.75895300  0.61958800  1
  C  2558  1  0.02876000  0.70317100  0.63903300  1
  C  2559  1  0.00771600  0.72652100  0.58501700  1
  C  2560  1  0.02972200  0.68618600  0.63395300  1
  C  2561  1  0.02977000  0.67307000  0.64573600  1
  C  2562  1  0.02887100  0.67643600  0.66304200  1
  C  2563  1  0.02797400  0.69334200  0.66827100  1
  C  2564  1  0.02794400  0.70645900  0.65646100  1
  C  2565  1  0.04923900  0.76788900  0.63491000  1
  C  2566  1  0.05900000  0.78274300  0.63678700  1
  C  2567  1  0.06937300  0.78891700  0.62355100  1
  C  2568  1  0.06940800  0.78005000  0.60822200  1
  C  2569  1  0.05955500  0.76531000  0.60630700  1
  C  2570  1  0.01435000  0.73121000  0.56912300  1
  C  2571  1  0.00400000  0.73004500  0.55458400  1
  C  2572  1  0.98663970  0.72416900  0.55537400  1
  C  2573  1  0.97997570  0.71938000  0.57120700  1
  C  2574  1  0.99032772  0.72052800  0.58572700  1
  C  2586  1  0.01810600  0.72799800  0.59987600  1
  C  2587  1  0.02839800  0.74241700  0.60276300  1
  C  2588  1  0.03877900  0.74428100  0.61730500  1
  C  2589  1  0.03856900  0.73121600  0.62928900  1
  C  2590  1  0.02852900  0.71648500  0.62695600  1
  C  2591  1  0.01836800  0.71522100  0.61217100  1
  C  2599  1  0.04923200  0.06873900  0.24424600  1
  C  2600  1  0.02875700  0.12452400  0.22480000  1
  C  2601  1  0.00771000  0.10117400  0.27881700  1
  C  2602  1  0.02971800  0.14150900  0.22987900  1
  C  2603  1  0.02976600  0.15462400  0.21809400  1
  C  2604  1  0.02887000  0.15125600  0.20078800  1
  C  2605  1  0.02797600  0.13435000  0.19556100  1
  C  2606  1  0.02794000  0.12123500  0.20737300  1
  C  2607  1  0.04922100  0.05979800  0.22892700  1
  C  2608  1  0.05898400  0.04494800  0.22704700  1
  C  2609  1  0.06934800  0.03876500  0.24028500  1
  C  2610  1  0.06939000  0.04763400  0.25561400  1
  C  2611  1  0.05954400  0.06238000  0.25752700  1
  C  2612  1  0.01434400  0.09648100  0.29471000  1
  C  2613  1  0.00399400  0.09764900  0.30925000  1
  C  2614  1  0.98663470  0.10352700  0.30846000  1
  C  2615  1  0.97997170  0.10831800  0.29262800  1
  C  2616  1  0.99032272  0.10716700  0.27810700  1
  C  2628  1  0.01810200  0.09970000  0.26395800  1
  C  2629  1  0.02839300  0.08527800  0.26107100  1
  C  2630  1  0.03877400  0.08341400  0.24652900  1
  C  2631  1  0.03857000  0.09648200  0.23454900  1
  C  2632  1  0.02852500  0.11121000  0.23687900  1
  C  2633  1  0.01836400  0.11247500  0.25166400  1
  C  2641  1  0.04966000  0.22489600  0.08543000  1
  C  2642  1  0.02849500  0.20318000  0.14007600  1
  C  2643  1  0.00831300  0.25866300  0.11917100  1
  C  2644  1  0.02913500  0.20675300  0.15745200  1
  C  2645  1  0.02906400  0.19381200  0.16946700  1
  C  2646  1  0.02828500  0.17683000  0.16448200  1
  C  2647  1  0.02751800  0.17318700  0.14722900  1
  C  2648  1  0.02760900  0.18611500  0.13525200  1
  C  2649  1  0.05170900  0.20907800  0.07757900  1
  C  2650  1  0.06182500  0.20720400  0.06295900  1
  C  2651  1  0.06992100  0.22116400  0.05545200  1
  C  2652  1  0.06820900  0.23694800  0.06326400  1
  C  2653  1  0.05828400  0.23874900  0.07799100  1
  C  2654  1  0.01554700  0.27445200  0.11500600  1
  C  2655  1  0.00567600  0.28924300  0.11631800  1
  C  2656  1  0.98819170  0.28885200  0.12204800  1
  C  2657  1  0.98088670  0.27316500  0.12619900  1
  C  2658  1  0.99080172  0.25833500  0.12491000  1
  C  2670  1  0.01836800  0.24364600  0.11716500  1
  C  2671  1  0.02857700  0.24117200  0.10258800  1
  C  2672  1  0.03923200  0.22686900  0.10027500  1
  C  2673  1  0.03913600  0.21463500  0.11310900  1
  C  2674  1  0.02873500  0.21621400  0.12770600  1
  C  2675  1  0.01853900  0.23091700  0.12951500  1
  C  2683  1  0.04965500  0.60279600  0.77839700  1
  C  2684  1  0.02848400  0.62450900  0.72375100  1
  C  2685  1  0.00830800  0.56902500  0.74465800  1
  C  2686  1  0.02912100  0.62093700  0.70637500  1
  C  2687  1  0.02906100  0.63387800  0.69436200  1
  C  2688  1  0.02827700  0.65085900  0.69934800  1
  C  2689  1  0.02750500  0.65450100  0.71660000  1
  C  2690  1  0.02759300  0.64157200  0.72857600  1
  C  2691  1  0.05170700  0.61861400  0.78624300  1
  C  2692  1  0.06181500  0.62048700  0.80086900  1
  C  2693  1  0.06991300  0.60653000  0.80837500  1
  C  2694  1  0.06820500  0.59074400  0.80056200  1
  C  2695  1  0.05827500  0.58894200  0.78584000  1
  C  2696  1  0.01554300  0.55323600  0.74882600  1
  C  2697  1  0.00567200  0.53844500  0.74751600  1
  C  2698  1  0.98819170  0.53883300  0.74177400  1
  C  2699  1  0.98088670  0.55452000  0.73762100  1
  C  2700  1  0.99079972  0.56935000  0.73891500  1
  C  2712  1  0.01836200  0.58404300  0.74666300  1
  C  2713  1  0.02856800  0.58651900  0.76124100  1
  C  2714  1  0.03922600  0.60082100  0.76355300  1
  C  2715  1  0.03912900  0.61305400  0.75071800  1
  C  2716  1  0.02872900  0.61147300  0.73612000  1
  C  2717  1  0.01853300  0.59677000  0.73431300  1
  C  2725  1  0.04941800  0.06749200  0.62071000  1
  C  2726  1  0.02829500  0.12211500  0.64247100  1
  C  2727  1  0.00808900  0.10127800  0.58695700  1
  C  2728  1  0.02897400  0.13949800  0.63893800  1
  C  2729  1  0.02895700  0.15148000  0.65191000  1
  C  2730  1  0.02818500  0.14645500  0.66888100  1
  C  2731  1  0.02736400  0.12919600  0.67248200  1
  C  2732  1  0.02740700  0.11725200  0.65952500  1
  C  2733  1  0.05144600  0.05964300  0.63653100  1
  C  2734  1  0.06154100  0.04501200  0.63841600  1
  C  2735  1  0.06964400  0.03750200  0.62446300  1
  C  2736  1  0.06796000  0.04531400  0.60867600  1
  C  2737  1  0.05804700  0.06004500  0.60686400  1
  C  2738  1  0.01530400  0.09710800  0.57116000  1
  C  2739  1  0.00541200  0.09840700  0.55637800  1
  C  2740  1  0.98792170  0.10412000  0.55678500  1
  C  2741  1  0.98063970  0.10828100  0.57248200  1
  C  2742  1  0.99057972  0.10702000  0.58729800  1
  C  2754  1  0.01815600  0.09926500  0.60196700  1
  C  2755  1  0.02836300  0.08468100  0.60442600  1
  C  2756  1  0.03900900  0.08234700  0.61873100  1
  C  2757  1  0.03891700  0.09516900  0.63097800  1
  C  2758  1  0.02852600  0.10977200  0.62941100  1
  C  2759  1  0.01833200  0.11160200  0.61471000  1
  C  2767  1  0.04940500  0.76019900  0.24311700  1
  C  2768  1  0.02829000  0.70557300  0.22135800  1
  C  2769  1  0.00808300  0.72641000  0.27687300  1
  C  2770  1  0.02897300  0.68819100  0.22489000  1
  C  2771  1  0.02895300  0.67620800  0.21191900  1
  C  2772  1  0.02818300  0.68123400  0.19494900  1
  C  2773  1  0.02736200  0.69849100  0.19134700  1
  C  2774  1  0.02740100  0.71043500  0.20430500  1
  C  2775  1  0.05142600  0.76805400  0.22729900  1
  C  2776  1  0.06152400  0.78268300  0.22541400  1
  C  2777  1  0.06964200  0.79018400  0.23936300  1
  C  2778  1  0.06795500  0.78237200  0.25515000  1
  C  2779  1  0.05803800  0.76764300  0.25696300  1
  C  2780  1  0.01529600  0.73058400  0.29267000  1
  C  2781  1  0.00540400  0.72928500  0.30745000  1
  C  2782  1  0.98791570  0.72356500  0.30704500  1
  C  2783  1  0.98063570  0.71939900  0.29135000  1
  C  2784  1  0.99057472  0.72066700  0.27653100  1
  C  2796  1  0.01814900  0.72842200  0.26186200  1
  C  2797  1  0.02835400  0.74300700  0.25940200  1
  C  2798  1  0.03900000  0.74534300  0.24509700  1
  C  2799  1  0.03891200  0.73252000  0.23285300  1
  C  2800  1  0.02852200  0.71791500  0.23441700  1
  C  2801  1  0.01832700  0.71608500  0.24912000  1
  C  2809  1  0.50691100  0.22475200  0.77731100  1
  C  2810  1  0.52739300  0.20590200  0.72117900  1
  C  2811  1  0.54884900  0.25942000  0.74524500  1
  C  2812  1  0.52663300  0.21114200  0.70423600  1
  C  2813  1  0.52662100  0.19946500  0.69102000  1
  C  2814  1  0.52739100  0.18212400  0.69424900  1
  C  2815  1  0.52806700  0.17674800  0.71111500  1
  C  2816  1  0.52804700  0.18844500  0.72432900  1
  C  2817  1  0.50456800  0.20874200  0.78466800  1
  C  2818  1  0.49444300  0.20661000  0.79926100  1
  C  2819  1  0.48659000  0.22046900  0.80719800  1
  C  2820  1  0.48849000  0.23642500  0.79978200  1
  C  2821  1  0.49843900  0.23849400  0.78511300  1
  C  2822  1  0.54173300  0.27508300  0.75002300  1
  C  2823  1  0.55158200  0.28990100  0.74887000  1
  C  2824  1  0.56891100  0.28965000  0.74271800  1
  C  2825  1  0.57612900  0.27407500  0.73804600  1
  C  2826  1  0.56623600  0.25922600  0.73916700  1
  C  2838  1  0.53869900  0.24440600  0.74666800  1
  C  2839  1  0.52845400  0.24133400  0.76109200  1
  C  2840  1  0.51754400  0.22709600  0.76265300  1
  C  2841  1  0.51745300  0.21549800  0.74921800  1
  C  2842  1  0.52772100  0.21782200  0.73462500  1
  C  2843  1  0.53822300  0.23240200  0.73364800  1
  C  2851  1  0.50690500  0.60293500  0.08652000  1
  C  2852  1  0.52740000  0.62178900  0.14264800  1
  C  2853  1  0.54885000  0.56827100  0.11858100  1
  C  2854  1  0.52664500  0.61654900  0.15959200  1
  C  2855  1  0.52662800  0.62822600  0.17280600  1
  C  2856  1  0.52739500  0.64556700  0.16957900  1
  C  2857  1  0.52807100  0.65094300  0.15271100  1
  C  2858  1  0.52805600  0.63924600  0.13949900  1
  C  2859  1  0.50455100  0.61894600  0.07916900  1
  C  2860  1  0.49443400  0.62107400  0.06456900  1
  C  2861  1  0.48658000  0.60721300  0.05663500  1
  C  2862  1  0.48848000  0.59125800  0.06405300  1
  C  2863  1  0.49843700  0.58919000  0.07872000  1
  C  2864  1  0.54173100  0.55260600  0.11380900  1
  C  2865  1  0.55158400  0.53779000  0.11495500  1
  C  2866  1  0.56891200  0.53804300  0.12110900  1
  C  2867  1  0.57613400  0.55361700  0.12577300  1
  C  2868  1  0.56624000  0.56846600  0.12465200  1
  C  2880  1  0.53870000  0.58328400  0.11715900  1
  C  2881  1  0.52845500  0.58635700  0.10273500  1
  C  2882  1  0.51754200  0.60059300  0.10117700  1
  C  2883  1  0.51745300  0.61219200  0.11461300  1
  C  2884  1  0.52772400  0.60986900  0.12920300  1
  C  2885  1  0.53822700  0.59528900  0.13017800  1
  C  2893  1  0.50713100  0.06767800  0.24330700  1
  C  2894  1  0.52834800  0.12223200  0.22151100  1
  C  2895  1  0.54839900  0.10146500  0.27713000  1
  C  2896  1  0.52761100  0.13962100  0.22499500  1
  C  2897  1  0.52757800  0.15156600  0.21198800  1
  C  2898  1  0.52835900  0.14649400  0.19503000  1
  C  2899  1  0.52925900  0.12922900  0.19148000  1
  C  2900  1  0.52926400  0.11732400  0.20447200  1
  C  2901  1  0.50510500  0.05983000  0.22748600  1
  C  2902  1  0.49495000  0.04524000  0.22558900  1
  C  2903  1  0.48678600  0.03777100  0.23953000  1
  C  2904  1  0.48847900  0.04557700  0.25532000  1
  C  2905  1  0.49845100  0.06026900  0.25714300  1
  C  2906  1  0.54113200  0.09728100  0.29290300  1
  C  2907  1  0.55097000  0.09856700  0.30771700  1
  C  2908  1  0.56845900  0.10429100  0.30737900  1
  C  2909  1  0.57579200  0.10847100  0.29170900  1
  C  2910  1  0.56590500  0.10721900  0.27685500  1
  C  2922  1  0.53838500  0.09944300  0.26208400  1
  C  2923  1  0.52818100  0.08485900  0.25961400  1
  C  2924  1  0.51756400  0.08251600  0.24529200  1
  C  2925  1  0.51768900  0.09532400  0.23303400  1
  C  2926  1  0.52809400  0.10991700  0.23459800  1
  C  2927  1  0.53825000  0.11176500  0.24932300  1
  C  2935  1  0.50713000  0.76000800  0.62052200  1
  C  2936  1  0.52835100  0.70545800  0.64231800  1
  C  2937  1  0.54840200  0.72622700  0.58670000  1
  C  2938  1  0.52761100  0.68806800  0.63883400  1
  C  2939  1  0.52758000  0.67612400  0.65184300  1
  C  2940  1  0.52836000  0.68119800  0.66880000  1
  C  2941  1  0.52925900  0.69846200  0.67234900  1
  C  2942  1  0.52926700  0.71036600  0.65935600  1
  C  2943  1  0.50510600  0.76785800  0.63634300  1
  C  2944  1  0.49494700  0.78244500  0.63824300  1
  C  2945  1  0.48677300  0.78990800  0.62430400  1
  C  2946  1  0.48847100  0.78210700  0.60851200  1
  C  2947  1  0.49845000  0.76741800  0.60668700  1
  C  2948  1  0.54113500  0.73041200  0.57092700  1
  C  2949  1  0.55097500  0.72912700  0.55611300  1
  C  2950  1  0.56846300  0.72340400  0.55645100  1
  C  2951  1  0.57579600  0.71922300  0.57212200  1
  C  2952  1  0.56591000  0.72047900  0.58697600  1
  C  2964  1  0.53838800  0.72824700  0.60174500  1
  C  2965  1  0.52818100  0.74283100  0.60421600  1
  C  2966  1  0.51756300  0.74517100  0.61853700  1
  C  2967  1  0.51768700  0.73236100  0.63079300  1
  C  2968  1  0.52809500  0.71777000  0.62923000  1
  C  2969  1  0.53825200  0.71592500  0.61450600  1
  N  856  1  0.78769200  0.58611100  0.80467000  1
  N  857  1  0.68720800  0.67059100  0.88439300  1
  N  858  1  0.73642700  0.71799600  0.74415300  1
  N  898  1  0.78769900  0.36681500  0.18438500  1
  N  899  1  0.68720700  0.28233500  0.10467800  1
  N  900  1  0.73643100  0.23492900  0.24491300  1
  N  940  1  0.78716000  0.78517500  0.38459400  1
  N  941  1  0.68726600  0.86696100  0.30170600  1
  N  942  1  0.73735300  0.73384600  0.24510000  1
  N  982  1  0.78716000  0.16774700  0.60447000  1
  N  983  1  0.68728200  0.08595200  0.68736300  1
  N  984  1  0.73734900  0.21908100  0.74396200  1
  N  1024  1  0.18692100  0.58571600  0.18458500  1
  N  1025  1  0.28736700  0.67041300  0.10502100  1
  N  1026  1  0.23798500  0.71798200  0.24492200  1
  N  1066  1  0.18692000  0.36720800  0.80447900  1
  N  1067  1  0.28737000  0.28251100  0.88403800  1
  N  1068  1  0.23798500  0.23493900  0.74414100  1
  N  1108  1  0.18664700  0.78629000  0.60366700  1
  N  1109  1  0.28705700  0.86587000  0.68837900  1
  N  1110  1  0.23795100  0.72605000  0.73605900  1
  N  1150  1  0.18664100  0.16664200  0.38540100  1
  N  1151  1  0.28704300  0.08705300  0.30068800  1
  N  1152  1  0.23795200  0.22687600  0.25300500  1
  N  1192  1  0.18705200  0.36504700  0.18566500  1
  N  1193  1  0.28841900  0.28153800  0.10425900  1
  N  1194  1  0.23726000  0.22657600  0.23764300  1
  N  1234  1  0.18705000  0.58787200  0.80338900  1
  N  1235  1  0.28840700  0.67139100  0.88480500  1
  N  1236  1  0.23725600  0.72634800  0.75142100  1
  N  1276  1  0.18674800  0.16771000  0.60584100  1
  N  1277  1  0.28811400  0.08629500  0.68933000  1
  N  1278  1  0.23721900  0.21958000  0.74439800  1
  N  1318  1  0.18674600  0.78520500  0.38322400  1
  N  1319  1  0.28810800  0.86662700  0.29972900  1
  N  1320  1  0.23721900  0.73334100  0.24466500  1
  N  1360  1  0.78804000  0.36586800  0.80428000  1
  N  1361  1  0.68621500  0.28066200  0.88366300  1
  N  1362  1  0.73646800  0.23443800  0.74378400  1
  N  1402  1  0.78804200  0.58705800  0.18477500  1
  N  1403  1  0.68620500  0.67225000  0.10540400  1
  N  1404  1  0.73646900  0.71848800  0.24527700  1
  N  1444  1  0.78762700  0.16787900  0.38360100  1
  N  1445  1  0.68628700  0.08662200  0.29988600  1
  N  1446  1  0.73730800  0.21957500  0.24471200  1
  N  1486  1  0.78763200  0.78505100  0.60546300  1
  N  1487  1  0.68627900  0.86629400  0.68917900  1
  N  1488  1  0.73730500  0.73335000  0.74435300  1
  N  2344  1  0.57866600  0.52349400  0.74205300  1
  N  2345  1  0.47818200  0.60797400  0.82177600  1
  N  2346  1  0.52740100  0.65537900  0.68153600  1
  N  2386  1  0.57867300  0.30419800  0.12176800  1
  N  2387  1  0.47818100  0.21971800  0.04206100  1
  N  2388  1  0.52740500  0.17231200  0.18229600  1
  N  2428  1  0.57813400  0.72255800  0.32197700  1
  N  2429  1  0.47824000  0.80434400  0.23908900  1
  N  2430  1  0.52832700  0.67122900  0.18248300  1
  N  2470  1  0.57813400  0.10513000  0.54185300  1
  N  2471  1  0.47825600  0.02333500  0.62474600  1
  N  2472  1  0.52832300  0.15646400  0.68134500  1
  N  2512  1  0.97789470  0.52309900  0.12196800  1
  N  2513  1  0.07834100  0.60779600  0.04240400  1
  N  2514  1  0.02895900  0.65536500  0.18230500  1
  N  2554  1  0.97789370  0.30459100  0.74186200  1
  N  2555  1  0.07834400  0.21989400  0.82142100  1
  N  2556  1  0.02895900  0.17232200  0.68152400  1
  N  2596  1  0.97762070  0.72367300  0.54105000  1
  N  2597  1  0.07803100  0.80325300  0.62576200  1
  N  2598  1  0.02892500  0.66343300  0.67344200  1
  N  2638  1  0.97761470  0.10402500  0.32278400  1
  N  2639  1  0.07801700  0.02443600  0.23807100  1
  N  2640  1  0.02892600  0.16425900  0.19038800  1
  N  2680  1  0.97802570  0.30243000  0.12304800  1
  N  2681  1  0.07939300  0.21892100  0.04164200  1
  N  2682  1  0.02823400  0.16395900  0.17502600  1
  N  2722  1  0.97802370  0.52525500  0.74077200  1
  N  2723  1  0.07938100  0.60877400  0.82218800  1
  N  2724  1  0.02823000  0.66373100  0.68880400  1
  N  2764  1  0.97772170  0.10509300  0.54322400  1
  N  2765  1  0.07908800  0.02367800  0.62671300  1
  N  2766  1  0.02819300  0.15696300  0.68178100  1
  N  2806  1  0.97771970  0.72258800  0.32060700  1
  N  2807  1  0.07908200  0.80401000  0.23711200  1
  N  2808  1  0.02819300  0.67072400  0.18204800  1
  N  2848  1  0.57901400  0.30325100  0.74166300  1
  N  2849  1  0.47718900  0.21804500  0.82104600  1
  N  2850  1  0.52744200  0.17182100  0.68116700  1
  N  2890  1  0.57901600  0.52444100  0.12215800  1
  N  2891  1  0.47717900  0.60963300  0.04278700  1
  N  2892  1  0.52744300  0.65587100  0.18266000  1
  N  2932  1  0.57860100  0.10526200  0.32098400  1
  N  2933  1  0.47726100  0.02400500  0.23726900  1
  N  2934  1  0.52828200  0.15695800  0.18209500  1
  N  2974  1  0.57860600  0.72243400  0.54284600  1
  N  2975  1  0.47725300  0.80367700  0.62656200  1
  N  2976  1  0.52827900  0.67073300  0.68173600  1
