# generated using pymatgen
data_H24C39(N4O)2
_symmetry_space_group_name_H-M   'P 1'
_cell_length_a   31.85380000
_cell_length_b   65.37030000
_cell_length_c   65.37000000
_cell_angle_alpha   119.99954457
_cell_angle_beta   90.00230000
_cell_angle_gamma   90.00000002
_symmetry_Int_Tables_number   1
_chemical_formula_structural   H24C39(N4O)2
_chemical_formula_sum   'H288 C468 N96 O24'
_cell_volume   117883.44966028
_cell_formula_units_Z   12
loop_
 _symmetry_equiv_pos_site_id
 _symmetry_equiv_pos_as_xyz
  1  'x, y, z'
loop_
 _atom_site_type_symbol
 _atom_site_label
 _atom_site_symmetry_multiplicity
 _atom_site_fract_x
 _atom_site_fract_y
 _atom_site_fract_z
 _atom_site_occupancy
  H  25  1  0.74930500  0.80962700  0.24691200  1
  H  26  1  0.74342400  0.82148900  0.28721300  1
  H  27  1  0.74452900  0.83859000  0.32824700  1
  H  28  1  0.74570100  0.86101500  0.36988600  1
  H  29  1  0.74464100  0.92433900  0.36707500  1
  H  30  1  0.75033700  0.88091200  0.26324600  1
  H  31  1  0.83594200  0.89593900  0.31508600  1
  H  32  1  0.85598600  0.96286800  0.32170300  1
  H  33  1  0.78183300  0.96830000  0.32108100  1
  H  34  1  0.65287700  0.89595800  0.31514700  1
  H  35  1  0.70694600  0.96829300  0.32107800  1
  H  36  1  0.63279800  0.96286700  0.32171500  1
  H  66  1  0.74935400  0.38132800  0.13723300  1
  H  67  1  0.74339800  0.40976700  0.12536600  1
  H  68  1  0.74457800  0.43370100  0.10826400  1
  H  69  1  0.74574400  0.45291200  0.08583400  1
  H  70  1  0.74468400  0.38677300  0.02251400  1
  H  71  1  0.75035400  0.32637800  0.06594900  1
  H  72  1  0.83598100  0.36320000  0.05090700  1
  H  73  1  0.85603200  0.30288400  0.98398300  1
  H  74  1  0.78187100  0.29682200  0.97855400  1
  H  75  1  0.65292700  0.36322800  0.05089000  1
  H  76  1  0.70699200  0.29682400  0.97856200  1
  H  77  1  0.63283200  0.30288900  0.98398500  1
  H  107  1  0.74940000  0.69993300  0.56550900  1
  H  108  1  0.74340900  0.65963300  0.53708100  1
  H  109  1  0.74460400  0.61860100  0.51315300  1
  H  110  1  0.74579000  0.57696300  0.49394500  1
  H  111  1  0.74472500  0.57978000  0.56008200  1
  H  112  1  0.75036700  0.68361900  0.62047600  1
  H  113  1  0.83601900  0.63175000  0.58365700  1
  H  114  1  0.85607800  0.62513600  0.64397000  1
  H  115  1  0.78191900  0.62576800  0.65003000  1
  H  116  1  0.65295200  0.63170200  0.58362600  1
  H  117  1  0.70705000  0.62576900  0.65002300  1
  H  118  1  0.63289800  0.62512700  0.64396400  1
  H  148  1  0.24928600  0.11763800  0.71952300  1
  H  149  1  0.24335900  0.10576600  0.67922100  1
  H  150  1  0.24452400  0.08866300  0.63818800  1
  H  151  1  0.24570400  0.06623500  0.59655000  1
  H  152  1  0.24464600  0.00291400  0.59936900  1
  H  153  1  0.25029700  0.04635400  0.70320400  1
  H  154  1  0.33593800  0.03131300  0.65134000  1
  H  155  1  0.35598900  0.96438500  0.64472700  1
  H  156  1  0.28183500  0.95895300  0.64535400  1
  H  157  1  0.15293000  0.03130300  0.65129800  1
  H  158  1  0.20690800  0.95895400  0.64535900  1
  H  159  1  0.13273200  0.96440800  0.64472700  1
  H  189  1  0.24932700  0.54592500  0.82920800  1
  H  190  1  0.24340300  0.51749600  0.84108200  1
  H  191  1  0.24453300  0.49356700  0.85819000  1
  H  192  1  0.24574200  0.47436400  0.88062600  1
  H  193  1  0.24466800  0.54050800  0.94393900  1
  H  194  1  0.25033800  0.60089200  0.90049000  1
  H  195  1  0.33598500  0.56407500  0.91553400  1
  H  196  1  0.35603000  0.62439000  0.98246400  1
  H  197  1  0.28187900  0.63044300  0.98789300  1
  H  198  1  0.15291500  0.56403800  0.91555100  1
  H  199  1  0.20699000  0.63043900  0.98788800  1
  H  200  1  0.13284200  0.62437800  0.98246000  1
  H  230  1  0.24937100  0.22732400  0.40092900  1
  H  231  1  0.24344700  0.26762600  0.42936000  1
  H  232  1  0.24458000  0.30866200  0.45329100  1
  H  233  1  0.24576400  0.35030200  0.47249500  1
  H  234  1  0.24470600  0.34747000  0.40635000  1
  H  235  1  0.25037900  0.24364300  0.34596400  1
  H  236  1  0.33603200  0.29549800  0.38278000  1
  H  237  1  0.35606800  0.30211400  0.32246500  1
  H  238  1  0.28191300  0.30148400  0.31640800  1
  H  239  1  0.15296200  0.29554900  0.38281500  1
  H  240  1  0.20703100  0.30149400  0.31642000  1
  H  241  1  0.13288600  0.30212500  0.32247700  1
  H  271  1  0.24317100  0.54585300  0.71977600  1
  H  272  1  0.24633200  0.51766900  0.67914700  1
  H  273  1  0.24319300  0.49413000  0.63797200  1
  H  274  1  0.23739100  0.47563000  0.59679100  1
  H  275  1  0.24262800  0.54159400  0.59979600  1
  H  276  1  0.23938800  0.60110100  0.70396500  1
  H  277  1  0.15310000  0.56453300  0.65233900  1
  H  278  1  0.13200400  0.62398900  0.64459400  1
  H  279  1  0.20628700  0.62979100  0.64438900  1
  H  280  1  0.33599800  0.56459700  0.65232600  1
  H  281  1  0.28264800  0.62981900  0.64436500  1
  H  282  1  0.35696200  0.62405800  0.64458500  1
  H  312  1  0.24312100  0.22708400  0.82890900  1
  H  313  1  0.24622900  0.26770800  0.84134500  1
  H  314  1  0.24314600  0.30888600  0.85897600  1
  H  315  1  0.23734700  0.35006800  0.88165700  1
  H  316  1  0.24258100  0.34706300  0.94461900  1
  H  317  1  0.23936000  0.24290200  0.89996200  1
  H  318  1  0.15305300  0.29451200  0.91501000  1
  H  319  1  0.13196000  0.30224600  0.98220700  1
  H  320  1  0.20624600  0.30245400  0.98821500  1
  H  321  1  0.33595100  0.29453900  0.91509300  1
  H  322  1  0.28260700  0.30248800  0.98827300  1
  H  323  1  0.35692800  0.30227100  0.98229100  1
  H  353  1  0.24310200  0.11794200  0.40097800  1
  H  354  1  0.24617800  0.10550800  0.42917100  1
  H  355  1  0.24311700  0.08787700  0.45271700  1
  H  356  1  0.23731600  0.06519500  0.47121900  1
  H  357  1  0.24255900  0.00223400  0.40525300  1
  H  358  1  0.23933500  0.04688800  0.34574600  1
  H  359  1  0.15303100  0.03183900  0.38231700  1
  H  360  1  0.13190900  0.96465600  0.32286300  1
  H  361  1  0.20618900  0.95864400  0.31704700  1
  H  362  1  0.33591600  0.03176200  0.38225500  1
  H  363  1  0.28256300  0.95858200  0.31702500  1
  H  364  1  0.35688400  0.96456400  0.32279000  1
  H  394  1  0.74310800  0.38141200  0.24679900  1
  H  395  1  0.74630900  0.40948100  0.28744500  1
  H  396  1  0.74301900  0.43286400  0.32837500  1
  H  397  1  0.73735300  0.45150600  0.36955500  1
  H  398  1  0.74302200  0.38563900  0.36677100  1
  H  399  1  0.73974600  0.32605100  0.26245100  1
  H  400  1  0.65448100  0.36260100  0.31414500  1
  H  401  1  0.63181200  0.30325600  0.32178100  1
  H  402  1  0.70571500  0.29677800  0.32164000  1
  H  403  1  0.83880500  0.36019200  0.31543400  1
  H  404  1  0.77955000  0.29038300  0.31172400  1
  H  405  1  0.85187100  0.29002600  0.30089500  1
  H  435  1  0.74311000  0.70018300  0.13754600  1
  H  436  1  0.74638200  0.65955300  0.12510100  1
  H  437  1  0.74316500  0.61837600  0.10746800  1
  H  438  1  0.73737100  0.57719500  0.08478500  1
  H  439  1  0.74259100  0.58020400  0.02183100  1
  H  440  1  0.73943700  0.68437600  0.06648400  1
  H  441  1  0.65306200  0.63276000  0.05143100  1
  H  442  1  0.63195600  0.62500600  0.98422900  1
  H  443  1  0.70624700  0.62478300  0.97821500  1
  H  444  1  0.83594400  0.63272600  0.05135600  1
  H  445  1  0.78261700  0.62479300  0.97818300  1
  H  446  1  0.85693000  0.62499800  0.98416900  1
  H  476  1  0.74312300  0.80929300  0.56544500  1
  H  477  1  0.74626700  0.82174000  0.53725900  1
  H  478  1  0.74312300  0.83937800  0.51371500  1
  H  479  1  0.73732600  0.86206200  0.49521900  1
  H  480  1  0.74252800  0.92501400  0.56118400  1
  H  481  1  0.73936300  0.88035300  0.62069600  1
  H  482  1  0.65301500  0.89541100  0.58412200  1
  H  483  1  0.63191200  0.96261300  0.64357300  1
  H  484  1  0.70620000  0.96862100  0.64938000  1
  H  485  1  0.83589700  0.89549400  0.58417700  1
  H  486  1  0.78257300  0.96866400  0.64941600  1
  H  487  1  0.85688500  0.96268100  0.64363500  1
  H  499  1  0.76163700  0.87142300  0.44639100  1
  H  502  1  0.74281900  0.96931600  0.48402300  1
  H  503  1  0.69041300  0.96046900  0.47640300  1
  H  504  1  0.75024000  0.97003700  0.45034000  1
  H  506  1  0.72962500  0.93398900  0.41879900  1
  H  508  1  0.77430000  0.88700100  0.48730800  1
  H  515  1  0.76168000  0.51901200  0.07542900  1
  H  518  1  0.74286000  0.45875200  0.97753800  1
  H  519  1  0.69045400  0.45997800  0.98638100  1
  H  520  1  0.75028000  0.42434500  0.97680900  1
  H  522  1  0.72969700  0.42885100  0.01285600  1
  H  524  1  0.77435100  0.54434700  0.05985100  1
  H  531  1  0.76172400  0.50044900  0.42783700  1
  H  534  1  0.74290500  0.46282600  0.48810600  1
  H  535  1  0.69050000  0.47044800  0.48687900  1
  H  536  1  0.75033800  0.49651100  0.52250700  1
  H  538  1  0.72975300  0.52803600  0.51799300  1
  H  540  1  0.77433800  0.45951700  0.40247100  1
  H  547  1  0.26164000  0.05583300  0.52004100  1
  H  550  1  0.24281900  0.95794000  0.48241400  1
  H  551  1  0.19041400  0.96678700  0.49003600  1
  H  552  1  0.25025300  0.95722200  0.51609900  1
  H  554  1  0.22965000  0.99326000  0.54762100  1
  H  556  1  0.27428200  0.04025800  0.47912500  1
  H  563  1  0.26168700  0.40825300  0.89102000  1
  H  566  1  0.24286300  0.46851900  0.98891100  1
  H  567  1  0.19045800  0.46729300  0.98006200  1
  H  568  1  0.25029700  0.50292000  0.98962300  1
  H  570  1  0.22962500  0.49839600  0.95358200  1
  H  572  1  0.27432600  0.38291000  0.90659500  1
  H  579  1  0.26172400  0.42680000  0.53859800  1
  H  582  1  0.24290100  0.46443400  0.47834000  1
  H  583  1  0.19049600  0.45681300  0.47956500  1
  H  584  1  0.25031900  0.43076400  0.44393100  1
  H  586  1  0.22978800  0.39922900  0.44843700  1
  H  588  1  0.27436000  0.46771600  0.56394500  1
  H  595  1  0.97705600  0.99815700  0.33564500  1
  H  598  1  0.03485400  0.92716300  0.35379800  1
  H  599  1  0.04486800  0.91302800  0.32331300  1
  H  600  1  0.97224100  0.90808100  0.34565200  1
  H  602  1  0.94416600  0.91073700  0.31036700  1
  H  604  1  0.04102900  0.01539700  0.35753800  1
  H  611  1  0.97710700  0.28152900  0.94869200  1
  H  614  1  0.03490400  0.37067700  0.01968700  1
  H  615  1  0.04491800  0.35432800  0.03382500  1
  H  616  1  0.97230100  0.38162400  0.03877500  1
  H  618  1  0.94421500  0.34371000  0.03610400  1
  H  620  1  0.04107600  0.28620900  0.93145300  1
  H  627  1  0.97715100  0.61119800  0.66532100  1
  H  630  1  0.03494500  0.59304700  0.57617500  1
  H  631  1  0.04495600  0.62353300  0.59252500  1
  H  632  1  0.97233700  0.60118800  0.56523000  1
  H  634  1  0.94425200  0.63644000  0.60314700  1
  H  636  1  0.04112300  0.58927700  0.66064000  1
  H  643  1  0.47706400  0.92909600  0.63078600  1
  H  646  1  0.53485000  0.00009500  0.61263700  1
  H  647  1  0.54486500  0.01422900  0.64312300  1
  H  648  1  0.47223300  0.01917100  0.62078200  1
  H  650  1  0.44416400  0.01652000  0.65606400  1
  H  652  1  0.54103100  0.91185600  0.60886600  1
  H  659  1  0.47712100  0.64573400  0.01775200  1
  H  662  1  0.53489400  0.55658500  0.94675600  1
  H  663  1  0.54490900  0.57293600  0.93262000  1
  H  664  1  0.47227400  0.54565700  0.92768000  1
  H  666  1  0.44421100  0.58359200  0.93033300  1
  H  668  1  0.54104100  0.64100800  0.03500100  1
  H  675  1  0.47722800  0.31607400  0.30112300  1
  H  678  1  0.53493800  0.33421000  0.39027000  1
  H  679  1  0.54495300  0.30372400  0.37391900  1
  H  680  1  0.47232100  0.32606400  0.40119800  1
  H  682  1  0.44426100  0.29078300  0.36326000  1
  H  684  1  0.54131400  0.33803700  0.30586700  1
  H  691  1  0.01172000  0.92908500  0.63078800  1
  H  694  1  0.95393200  0.00007800  0.61262400  1
  H  695  1  0.94392200  0.01421200  0.64310900  1
  H  696  1  0.01652900  0.01917400  0.62077000  1
  H  698  1  0.04452300  0.01647800  0.65604100  1
  H  700  1  0.94778400  0.91184700  0.60883400  1
  H  707  1  0.01177900  0.64572900  0.01775400  1
  H  710  1  0.95398100  0.55657800  0.94676100  1
  H  711  1  0.94396200  0.57292700  0.93262400  1
  H  712  1  0.01660500  0.54565300  0.92768800  1
  H  714  1  0.04465500  0.58360300  0.93033700  1
  H  716  1  0.94783700  0.64103300  0.03499800  1
  H  723  1  0.01112000  0.31615300  0.30106100  1
  H  726  1  0.95407800  0.33423300  0.39028100  1
  H  727  1  0.94404100  0.30374800  0.37396600  1
  H  728  1  0.01668600  0.32607500  0.40120900  1
  H  730  1  0.04469500  0.29081200  0.36323200  1
  H  732  1  0.94578300  0.34128500  0.30942800  1
  H  739  1  0.51173500  0.99816500  0.33565700  1
  H  742  1  0.45394000  0.92716700  0.35381100  1
  H  743  1  0.44391900  0.91303100  0.32332500  1
  H  744  1  0.51656000  0.90809400  0.34566400  1
  H  746  1  0.54462000  0.91074000  0.31036100  1
  H  748  1  0.44779000  0.01540600  0.35761700  1
  H  755  1  0.51177000  0.28153600  0.94869000  1
  H  758  1  0.45396800  0.37068500  0.01968100  1
  H  759  1  0.44395400  0.35433700  0.03381900  1
  H  760  1  0.51657600  0.38162700  0.03876700  1
  H  762  1  0.54465400  0.34370400  0.03609800  1
  H  764  1  0.44782400  0.28625600  0.93144700  1
  H  771  1  0.51182300  0.61119000  0.66531300  1
  H  774  1  0.45400600  0.59303300  0.57616300  1
  H  775  1  0.44399100  0.62351800  0.59250900  1
  H  776  1  0.51661700  0.60117600  0.56522600  1
  H  778  1  0.54471700  0.63643600  0.60315200  1
  H  780  1  0.44787500  0.58923000  0.66059600  1
  H  787  1  0.80964200  0.77417500  0.14998500  1
  H  790  1  0.65936300  0.76328700  0.18741500  1
  H  791  1  0.63867400  0.78035000  0.17598500  1
  H  792  1  0.66107000  0.79551500  0.22322900  1
  H  794  1  0.70097300  0.82261900  0.21870700  1
  H  796  1  0.78961700  0.73234200  0.12388100  1
  H  803  1  0.80967400  0.31985400  0.17268400  1
  H  806  1  0.65940000  0.36816800  0.18356100  1
  H  807  1  0.63870900  0.33967500  0.16650000  1
  H  808  1  0.66107700  0.37176000  0.15134100  1
  H  810  1  0.70104900  0.34019000  0.12425400  1
  H  812  1  0.78964100  0.33557900  0.21453100  1
  H  819  1  0.80969300  0.79686600  0.62699800  1
  H  822  1  0.65942500  0.75943600  0.57867900  1
  H  823  1  0.63872500  0.77086000  0.60716800  1
  H  824  1  0.66112100  0.72362300  0.57508600  1
  H  826  1  0.70106600  0.72809000  0.60666200  1
  H  828  1  0.78970100  0.82300100  0.61130600  1
  H  835  1  0.30962100  0.15306900  0.81644200  1
  H  838  1  0.15934400  0.16396800  0.77901700  1
  H  839  1  0.13865600  0.14690400  0.79044500  1
  H  840  1  0.16105500  0.13174200  0.74320500  1
  H  842  1  0.20094700  0.10461600  0.74770000  1
  H  844  1  0.28965800  0.19481900  0.84250800  1
  H  851  1  0.30966200  0.60741700  0.79376900  1
  H  854  1  0.15938800  0.55909700  0.78287200  1
  H  855  1  0.13869000  0.58758800  0.79993800  1
  H  856  1  0.16110200  0.55550800  0.81509700  1
  H  858  1  0.20100000  0.58712100  0.84222100  1
  H  860  1  0.28969900  0.59174000  0.75195100  1
  H  867  1  0.30970000  0.13039900  0.33944400  1
  H  870  1  0.15943200  0.16783100  0.38776100  1
  H  871  1  0.13873100  0.15640300  0.35927100  1
  H  872  1  0.16114900  0.20364300  0.39134700  1
  H  874  1  0.20104100  0.19917100  0.35973000  1
  H  876  1  0.28969000  0.10428800  0.35513200  1
  C  1  1  0.70822200  0.91441800  0.31623000  1
  C  2  1  0.72283900  0.93540400  0.31805900  1
  C  3  1  0.76595300  0.93540500  0.31804300  1
  C  4  1  0.78062400  0.91444400  0.31624600  1
  C  5  1  0.82452500  0.91112000  0.31636400  1
  C  6  1  0.85235200  0.92927200  0.31901900  1
  C  7  1  0.83626400  0.94990500  0.32034000  1
  C  8  1  0.79302700  0.95311000  0.31984600  1
  C  9  1  0.69575700  0.95311300  0.31986800  1
  C  10  1  0.65252200  0.94991000  0.32037100  1
  C  11  1  0.63644500  0.92927800  0.31905100  1
  C  12  1  0.66430100  0.91112900  0.31640200  1
  C  13  1  0.74470100  0.87558100  0.29263700  1
  C  14  1  0.74365100  0.85815200  0.29901600  1
  C  15  1  0.74408500  0.86820500  0.32316500  1
  C  16  1  0.74455200  0.89277100  0.33373900  1
  C  17  1  0.74478800  0.85655600  0.33620100  1
  C  18  1  0.74566700  0.86994400  0.36070700  1
  C  19  1  0.74552300  0.89473800  0.37247900  1
  C  20  1  0.74487000  0.90634700  0.35887600  1
  C  21  1  0.74799300  0.86843600  0.26820100  1
  C  22  1  0.75036100  0.84396000  0.25085100  1
  C  23  1  0.74743700  0.82737000  0.25866900  1
  C  24  1  0.74384900  0.83410300  0.28238800  1
  C  37  1  0.74447100  0.89925100  0.31471800  1
  C  42  1  0.70826800  0.34585200  0.03243500  1
  C  43  1  0.72288200  0.32669700  0.01144900  1
  C  44  1  0.76599500  0.32668100  0.01145100  1
  C  45  1  0.78066300  0.34584500  0.03241200  1
  C  46  1  0.82456400  0.34928100  0.03573700  1
  C  47  1  0.85238800  0.33379100  0.01758200  1
  C  48  1  0.83630600  0.31448400  0.99694400  1
  C  49  1  0.79306800  0.31078100  0.99373900  1
  C  50  1  0.69580000  0.31080000  0.99373500  1
  C  51  1  0.65256300  0.31449900  0.99693800  1
  C  52  1  0.63649600  0.33382300  0.01756700  1
  C  53  1  0.66434800  0.34931400  0.03571800  1
  C  54  1  0.74473900  0.36109900  0.07127700  1
  C  55  1  0.74370700  0.38490800  0.08870500  1
  C  56  1  0.74412300  0.39900400  0.07865100  1
  C  57  1  0.74458700  0.38501000  0.05408500  1
  C  58  1  0.74482800  0.42368800  0.09035467  1
  C  59  1  0.74570900  0.43480500  0.07690700  1
  C  60  1  0.74556400  0.42178000  0.05211400  1
  C  61  1  0.74491300  0.39656900  0.04050800  1
  C  62  1  0.74803300  0.34380800  0.07842200  1
  C  63  1  0.75052300  0.35094000  0.10289900  1
  C  64  1  0.74750600  0.37534400  0.11949000  1
  C  65  1  0.74393300  0.39232700  0.11275300  1
  C  78  1  0.74451100  0.35950700  0.04760500  1
  C  83  1  0.70830400  0.63063100  0.60100400  1
  C  84  1  0.72292600  0.62879800  0.62015800  1
  C  85  1  0.76603900  0.62880400  0.62017100  1
  C  86  1  0.78070500  0.63060200  0.60100700  1
  C  87  1  0.82460500  0.63048400  0.59756700  1
  C  88  1  0.85243200  0.62782800  0.61306300  1
  C  89  1  0.83635100  0.62649700  0.63236900  1
  C  90  1  0.79311400  0.62699200  0.63606900  1
  C  91  1  0.69585300  0.62697400  0.63605100  1
  C  92  1  0.65261600  0.62647800  0.63235500  1
  C  93  1  0.63653700  0.62778700  0.61303900  1
  C  94  1  0.66438200  0.63045100  0.59754300  1
  C  95  1  0.74484800  0.65421900  0.58575400  1
  C  96  1  0.74374900  0.64783400  0.56194500  1
  C  97  1  0.74415400  0.62368600  0.54785200  1
  C  98  1  0.74462000  0.61311500  0.56184600  1
  C  99  1  0.74485700  0.61064700  0.52316700  1
  C  100  1  0.74575300  0.58614200  0.51205100  1
  C  101  1  0.74563700  0.57437200  0.52507600  1
  C  102  1  0.74495400  0.58797800  0.55028800  1
  C  103  1  0.74809300  0.67865900  0.60304200  1
  C  104  1  0.75057700  0.69600000  0.59590600  1
  C  105  1  0.74756600  0.68818000  0.57149900  1
  C  106  1  0.74399800  0.66445900  0.55452100  1
  C  119  1  0.74455200  0.63213900  0.58734800  1
  C  124  1  0.20823900  0.01282900  0.65021000  1
  C  125  1  0.22283700  0.99184100  0.64838000  1
  C  126  1  0.26595300  0.99184700  0.64839200  1
  C  127  1  0.28062300  0.01281300  0.65019800  1
  C  128  1  0.32452700  0.01613600  0.65007500  1
  C  129  1  0.35235400  0.99798000  0.64741300  1
  C  130  1  0.33626500  0.97734800  0.64608700  1
  C  131  1  0.29303000  0.97413900  0.64658000  1
  C  132  1  0.19572900  0.97413400  0.64656300  1
  C  133  1  0.15248800  0.97734600  0.64606000  1
  C  134  1  0.13645200  0.99798400  0.64736800  1
  C  135  1  0.16433300  0.01612300  0.65003000  1
  C  136  1  0.24470900  0.05167800  0.67380600  1
  C  137  1  0.24369200  0.06910300  0.66742200  1
  C  138  1  0.24407200  0.05905000  0.64327300  1
  C  139  1  0.24454000  0.03448500  0.63270300  1
  C  140  1  0.24477500  0.07069700  0.63023600  1
  C  141  1  0.24567000  0.05730600  0.60572900  1
  C  142  1  0.24555700  0.03251300  0.59396100  1
  C  143  1  0.24487900  0.02090600  0.60756600  1
  C  144  1  0.24804300  0.05882800  0.69824200  1
  C  145  1  0.25042000  0.08330500  0.71558800  1
  C  146  1  0.24746200  0.09989300  0.70776800  1
  C  147  1  0.24392400  0.09315100  0.68404500  1
  C  160  1  0.24447400  0.02800400  0.65172500  1
  C  165  1  0.20826100  0.58142300  0.93400500  1
  C  166  1  0.22288100  0.60057300  0.95499400  1
  C  167  1  0.26599700  0.60058300  0.95500000  1
  C  168  1  0.28066400  0.58142800  0.93403300  1
  C  169  1  0.32456800  0.57797900  0.93071700  1
  C  170  1  0.35239500  0.59347800  0.94886900  1
  C  171  1  0.33630900  0.61278800  0.96950000  1
  C  172  1  0.29307100  0.61648400  0.97270800  1
  C  173  1  0.19580100  0.61646600  0.97271000  1
  C  174  1  0.15256600  0.61276900  0.96950400  1
  C  175  1  0.13648700  0.59344600  0.94887900  1
  C  176  1  0.16433900  0.57795500  0.93072200  1
  C  177  1  0.24475000  0.56617100  0.89516900  1
  C  178  1  0.24373000  0.54236200  0.87774500  1
  C  179  1  0.24411300  0.52826700  0.88779900  1
  C  180  1  0.24458300  0.54226400  0.91236400  1
  C  181  1  0.24480600  0.50358200  0.87615500  1
  C  182  1  0.24573900  0.49247100  0.88955000  1
  C  183  1  0.24566700  0.50550100  0.91434400  1
  C  184  1  0.24491300  0.53070900  0.92594500  1
  C  185  1  0.24808400  0.58345700  0.88801800  1
  C  186  1  0.25046000  0.57632600  0.86354000  1
  C  187  1  0.24750000  0.55191700  0.84695400  1
  C  188  1  0.24396500  0.53493600  0.85369600  1
  C  201  1  0.24450800  0.56776500  0.91884100  1
  C  206  1  0.20830500  0.29662500  0.36543500  1
  C  207  1  0.22292500  0.29846100  0.34628200  1
  C  208  1  0.26603800  0.29845900  0.34627400  1
  C  209  1  0.28071100  0.29665600  0.36543500  1
  C  210  1  0.32461200  0.29677900  0.36887800  1
  C  211  1  0.35243900  0.29943500  0.35338100  1
  C  212  1  0.33635000  0.30075800  0.33407100  1
  C  213  1  0.29311100  0.30026800  0.33037500  1
  C  214  1  0.19584200  0.30027600  0.33038600  1
  C  215  1  0.15261000  0.30077500  0.33408700  1
  C  216  1  0.13653100  0.29947400  0.35341000  1
  C  217  1  0.16438600  0.29681500  0.36890600  1
  C  218  1  0.24479700  0.27304100  0.38068600  1
  C  219  1  0.24377700  0.27942500  0.40449600  1
  C  220  1  0.24416300  0.30357300  0.41859200  1
  C  221  1  0.24462700  0.31414100  0.40459400  1
  C  222  1  0.24486300  0.31661300  0.44327600  1
  C  223  1  0.24576700  0.34111900  0.45438800  1
  C  224  1  0.24568500  0.35288300  0.44135800  1
  C  225  1  0.24495400  0.33927600  0.41614900  1
  C  226  1  0.24812800  0.24860600  0.36340000  1
  C  227  1  0.25050400  0.23125900  0.37053100  1
  C  228  1  0.24754700  0.23907800  0.39493700  1
  C  229  1  0.24400900  0.26279900  0.41191900  1
  C  242  1  0.24455500  0.29512000  0.37909400  1
  C  247  1  0.28091200  0.58138600  0.64995100  1
  C  248  1  0.26620400  0.60024400  0.64766800  1
  C  249  1  0.22279300  0.60021300  0.64767300  1
  C  250  1  0.20816400  0.58133200  0.64995600  1
  C  251  1  0.16421300  0.57786500  0.64999200  1
  C  252  1  0.13577100  0.59319300  0.64736600  1
  C  253  1  0.15187900  0.61209500  0.64530400  1
  C  254  1  0.19524200  0.61576800  0.64555100  1
  C  255  1  0.29372700  0.61580500  0.64553000  1
  C  256  1  0.33710300  0.61215600  0.64529000  1
  C  257  1  0.35324900  0.59327700  0.64737800  1
  C  258  1  0.32486000  0.57791500  0.64996300  1
  C  259  1  0.24486000  0.56659600  0.67419300  1
  C  260  1  0.24591100  0.54275500  0.66764300  1
  C  261  1  0.24562300  0.52883000  0.64338300  1
  C  262  1  0.24488800  0.54277600  0.63281000  1
  C  263  1  0.24420400  0.50425200  0.63013800  1
  C  264  1  0.24138500  0.49351400  0.60567100  1
  C  265  1  0.24245200  0.50633000  0.59341100  1
  C  266  1  0.24362000  0.53148200  0.60764400  1
  C  267  1  0.24240200  0.58364800  0.69879900  1
  C  268  1  0.24201600  0.57636500  0.71611400  1
  C  269  1  0.24452700  0.55196100  0.70810000  1
  C  270  1  0.24613400  0.53516100  0.68418100  1
  C  283  1  0.24460900  0.56810700  0.65196700  1
  C  288  1  0.28086500  0.29690700  0.93425500  1
  C  289  1  0.26616000  0.29919100  0.95539700  1
  C  290  1  0.22274900  0.29918600  0.95536000  1
  C  291  1  0.20812000  0.29690400  0.93419600  1
  C  292  1  0.16416600  0.29686400  0.93069200  1
  C  293  1  0.13572700  0.29948800  0.94864400  1
  C  294  1  0.15183500  0.30156300  0.96961500  1
  C  295  1  0.19519900  0.30131300  0.97303900  1
  C  296  1  0.29368300  0.30132600  0.97309400  1
  C  297  1  0.33706200  0.30154200  0.96967400  1
  C  298  1  0.35320500  0.29947000  0.94871400  1
  C  299  1  0.32481200  0.29688600  0.93076900  1
  C  300  1  0.24481900  0.27266900  0.89522600  1
  C  301  1  0.24586400  0.27921900  0.87793500  1
  C  302  1  0.24561000  0.30347700  0.88826700  1
  C  303  1  0.24484100  0.31405000  0.91278700  1
  C  304  1  0.24415000  0.31672000  0.87693400  1
  C  305  1  0.24131500  0.34118600  0.89066200  1
  C  306  1  0.24240500  0.35344600  0.91573700  1
  C  307  1  0.24357600  0.33921300  0.92665600  1
  C  308  1  0.24233900  0.24806600  0.88767300  1
  C  309  1  0.24209400  0.23073300  0.86307800  1
  C  310  1  0.24454900  0.23875600  0.84669100  1
  C  311  1  0.24606500  0.26267700  0.85380500  1
  C  324  1  0.24456200  0.29489300  0.91896200  1
  C  329  1  0.28083000  0.01260000  0.36546100  1
  C  330  1  0.26611900  0.99145600  0.34660400  1
  C  331  1  0.22270900  0.99149800  0.34663000  1
  C  332  1  0.20808600  0.01265700  0.36551300  1
  C  333  1  0.16413200  0.01615900  0.36898300  1
  C  334  1  0.13566700  0.99820400  0.35367900  1
  C  335  1  0.15179100  0.97725700  0.33475600  1
  C  336  1  0.19515100  0.97382000  0.33108300  1
  C  337  1  0.29364200  0.97375900  0.33104100  1
  C  338  1  0.33701800  0.97718000  0.33467800  1
  C  339  1  0.35316700  0.99814000  0.35356700  1
  C  340  1  0.32477800  0.01608600  0.36892600  1
  C  341  1  0.24477500  0.05162600  0.38025100  1
  C  342  1  0.24584600  0.06891800  0.40409100  1
  C  343  1  0.24553500  0.05858500  0.41801600  1
  C  344  1  0.24480000  0.03406600  0.40407100  1
  C  345  1  0.24411600  0.06992000  0.44259400  1
  C  346  1  0.24127500  0.05619100  0.45333200  1
  C  347  1  0.24236100  0.03111700  0.44051600  1
  C  348  1  0.24352600  0.02019600  0.41536400  1
  C  349  1  0.24235100  0.05917700  0.36319800  1
  C  350  1  0.24208100  0.08377100  0.37046200  1
  C  351  1  0.24447400  0.10015800  0.39487300  1
  C  352  1  0.24602100  0.09304600  0.41168000  1
  C  365  1  0.24452700  0.02789100  0.37873900  1
  C  370  1  0.78171800  0.34359000  0.31505500  1
  C  371  1  0.76619200  0.32423600  0.31623200  1
  C  372  1  0.72315200  0.32644600  0.31880500  1
  C  373  1  0.70919600  0.34565200  0.31680400  1
  C  374  1  0.66522400  0.34928900  0.31663000  1
  C  375  1  0.63620100  0.33404800  0.31908100  1
  C  376  1  0.65193200  0.31514000  0.32124300  1
  C  377  1  0.69513900  0.31110800  0.32089000  1
  C  378  1  0.79166600  0.30474900  0.31157300  1
  C  379  1  0.83363200  0.30439800  0.30486300  1
  C  380  1  0.85220400  0.32572800  0.30921600  1
  C  381  1  0.82589900  0.34512900  0.31369300  1
  C  382  1  0.74543900  0.36040700  0.29237500  1
  C  383  1  0.74610700  0.38427500  0.29887600  1
  C  384  1  0.74594400  0.39815400  0.32310400  1
  C  385  1  0.74608500  0.38411600  0.33364900  1
  C  386  1  0.74413600  0.42277400  0.33624800  1
  C  387  1  0.74136300  0.43361500  0.36071100  1
  C  388  1  0.74245500  0.42083700  0.37300200  1
  C  389  1  0.74397700  0.39565100  0.35882100  1
  C  390  1  0.74254100  0.34353100  0.26770900  1
  C  391  1  0.74180300  0.35086900  0.25040900  1
  C  392  1  0.74449000  0.37526300  0.25844600  1
  C  393  1  0.74606200  0.39197900  0.28238300  1
  C  406  1  0.74609100  0.35854300  0.31455400  1
  C  411  1  0.78086700  0.63036300  0.03219300  1
  C  412  1  0.76616200  0.62808000  0.01105200  1
  C  413  1  0.72275100  0.62809200  0.01108800  1
  C  414  1  0.70812100  0.63036800  0.03224700  1
  C  415  1  0.66416600  0.63040700  0.03574900  1
  C  416  1  0.63571700  0.62781800  0.01781000  1
  C  417  1  0.65183500  0.62573700  0.99684300  1
  C  418  1  0.69520000  0.62595300  0.99340300  1
  C  419  1  0.79368900  0.62595400  0.99336300  1
  C  420  1  0.83706400  0.62572400  0.99678200  1
  C  421  1  0.85322600  0.62776200  0.01772800  1
  C  422  1  0.82481500  0.63037700  0.03567900  1
  C  423  1  0.74476800  0.65460200  0.07122200  1
  C  424  1  0.74588200  0.64805000  0.08851100  1
  C  425  1  0.74558200  0.62379300  0.07817900  1
  C  426  1  0.74481700  0.61321900  0.05365900  1
  C  427  1  0.74413500  0.61054700  0.08951100  1
  C  428  1  0.74132200  0.58608100  0.07578300  1
  C  429  1  0.74245700  0.57381600  0.05070800  1
  C  430  1  0.74356300  0.58805600  0.03979200  1
  C  431  1  0.74238100  0.67921000  0.07877400  1
  C  432  1  0.74179500  0.69651500  0.10337600  1
  C  433  1  0.74445600  0.68850600  0.11976200  1
  C  434  1  0.74607100  0.66458800  0.11264300  1
  C  447  1  0.74456200  0.63237700  0.04748500  1
  C  452  1  0.78082000  0.91465300  0.60097800  1
  C  453  1  0.76611700  0.93579400  0.61983600  1
  C  454  1  0.72270600  0.93575400  0.61981000  1
  C  455  1  0.70807600  0.91459100  0.60092500  1
  C  456  1  0.66412200  0.91109200  0.59745000  1
  C  457  1  0.63568300  0.92904300  0.61278000  1
  C  458  1  0.65179400  0.95000000  0.63169100  1
  C  459  1  0.69515500  0.95343500  0.63535700  1
  C  460  1  0.79364300  0.95348900  0.63539200  1
  C  461  1  0.83701900  0.95006800  0.63174800  1
  C  462  1  0.85317900  0.92912200  0.61284000  1
  C  463  1  0.82476800  0.91116900  0.59750500  1
  C  464  1  0.74476300  0.87561900  0.58618700  1
  C  465  1  0.74582400  0.85833000  0.56234500  1
  C  466  1  0.74554200  0.86866500  0.54842200  1
  C  467  1  0.74477800  0.89318200  0.56236700  1
  C  468  1  0.74409600  0.85733600  0.52384500  1
  C  469  1  0.74128100  0.87106400  0.51310800  1
  C  470  1  0.74241700  0.89614000  0.52592000  1
  C  471  1  0.74353800  0.90705300  0.55107200  1
  C  472  1  0.74230200  0.86806300  0.60323700  1
  C  473  1  0.74196300  0.84346700  0.59595700  1
  C  474  1  0.74445200  0.82707700  0.57155100  1
  C  475  1  0.74600300  0.83419700  0.55475100  1
  C  488  1  0.74451800  0.89935700  0.58770000  1
  C  493  1  0.74162100  0.91537500  0.43652900  1
  C  495  1  0.75377300  0.88829900  0.45082800  1
  C  496  1  0.74674300  0.90585500  0.47464200  1
  C  498  1  0.73371100  0.93317800  0.46037500  1
  C  500  1  0.72205200  0.95823000  0.46925900  1
  C  505  1  0.73928000  0.91902500  0.41703800  1
  C  507  1  0.75406600  0.90026800  0.49248300  1
  C  509  1  0.74165900  0.46519700  0.03147800  1
  C  511  1  0.75381200  0.50657300  0.05855500  1
  C  512  1  0.74678300  0.51283100  0.04099800  1
  C  514  1  0.73375100  0.47124000  0.01367400  1
  C  516  1  0.72209300  0.45507300  0.98862200  1
  C  521  1  0.73932400  0.44205400  0.02782500  1
  C  523  1  0.75412700  0.53625500  0.04657800  1
  C  525  1  0.74171700  0.51031600  0.48165400  1
  C  527  1  0.75387100  0.49601200  0.44027800  1
  C  528  1  0.74684000  0.47219600  0.43401600  1
  C  530  1  0.73380300  0.48647000  0.47561100  1
  C  532  1  0.72214000  0.47758900  0.49178100  1
  C  537  1  0.73933600  0.52981400  0.50479000  1
  C  539  1  0.75409900  0.45435700  0.41057100  1
  C  541  1  0.24163300  0.01188000  0.52990500  1
  C  543  1  0.25378500  0.03895600  0.51560600  1
  C  544  1  0.24675900  0.02139700  0.49179100  1
  C  546  1  0.23371800  0.99407700  0.50605900  1
  C  548  1  0.22205600  0.96902600  0.49717700  1
  C  553  1  0.23924700  0.00824100  0.54940200  1
  C  555  1  0.25403600  0.02700000  0.47395900  1
  C  557  1  0.24166700  0.46206700  0.93496700  1
  C  559  1  0.25383200  0.42069500  0.90789600  1
  C  560  1  0.24680300  0.41443900  0.92545500  1
  C  562  1  0.23375900  0.45602600  0.95277200  1
  C  564  1  0.22210000  0.47219700  0.97782500  1
  C  569  1  0.23926500  0.48520500  0.93860900  1
  C  571  1  0.25407700  0.39100300  0.91985200  1
  C  573  1  0.24168900  0.41693600  0.48478400  1
  C  575  1  0.25386700  0.43123600  0.52615700  1
  C  576  1  0.24684400  0.45505200  0.53241500  1
  C  578  1  0.23379400  0.44078500  0.49082800  1
  C  580  1  0.22213400  0.44967000  0.47466000  1
  C  585  1  0.23932500  0.39744600  0.46164300  1
  C  587  1  0.25411800  0.47288300  0.55585000  1
  C  589  1  0.96347100  0.94518700  0.32918400  1
  C  591  1  0.98568400  0.98311800  0.33565400  1
  C  592  1  0.02683600  0.98037300  0.34203800  1
  C  594  1  0.00466200  0.94200200  0.33565300  1
  C  596  1  0.02023400  0.92099200  0.33657300  1
  C  601  1  0.93360500  0.92702000  0.31971300  1
  C  603  1  0.05455300  0.99974500  0.35137000  1
  C  605  1  0.96350900  0.32804400  0.00165600  1
  C  607  1  0.98573200  0.29657800  0.96373100  1
  C  608  1  0.02688300  0.30570700  0.96648100  1
  C  610  1  0.00470600  0.33769500  0.00484900  1
  C  612  1  0.02028100  0.35962600  0.02586000  1
  C  617  1  0.93363800  0.33675600  0.01982400  1
  C  619  1  0.05459700  0.29567500  0.94711100  1
  C  621  1  0.96355300  0.61765200  0.61880800  1
  C  623  1  0.98577600  0.61118900  0.65027400  1
  C  624  1  0.02692700  0.60480900  0.64114500  1
  C  626  1  0.00475000  0.61119200  0.60915700  1
  C  628  1  0.02032200  0.61027100  0.58722700  1
  C  633  1  0.93368200  0.62710900  0.61009900  1
  C  635  1  0.05464100  0.59546800  0.65117500  1
  C  637  1  0.46347100  0.98206700  0.63724900  1
  C  639  1  0.48569100  0.94413500  0.63077700  1
  C  640  1  0.52683900  0.94688200  0.62439200  1
  C  642  1  0.50466200  0.98525400  0.63078000  1
  C  644  1  0.52023000  0.00626500  0.62986100  1
  C  649  1  0.43360900  0.00023300  0.64672900  1
  C  651  1  0.55455300  0.92751000  0.61505200  1
  C  653  1  0.46352100  0.59922800  0.96478300  1
  C  655  1  0.48574500  0.63068800  0.00271500  1
  C  656  1  0.52689500  0.62155700  0.99996900  1
  C  658  1  0.50471200  0.58957200  0.96159600  1
  C  660  1  0.52027400  0.56764200  0.94058600  1
  C  665  1  0.43365300  0.59054200  0.94661600  1
  C  667  1  0.55459300  0.63157800  0.01935000  1
  C  669  1  0.46356800  0.30959800  0.34762200  1
  C  671  1  0.48584500  0.31608000  0.31617000  1
  C  672  1  0.52702100  0.32246200  0.32529700  1
  C  674  1  0.50476000  0.31606700  0.35728200  1
  C  676  1  0.52031800  0.31698500  0.37921300  1
  C  681  1  0.43369700  0.30011700  0.35631100  1
  C  683  1  0.55487900  0.33181900  0.31529800  1
  C  685  1  0.02534400  0.98203900  0.63721700  1
  C  687  1  0.00310500  0.94412500  0.63077700  1
  C  688  1  0.96196300  0.94687800  0.62439200  1
  C  690  1  0.98413800  0.98523800  0.63076600  1
  C  692  1  0.96855800  0.00625000  0.62984800  1
  C  697  1  0.05518700  0.00021900  0.64668000  1
  C  699  1  0.93426700  0.92750800  0.61504800  1
  C  701  1  0.02535700  0.59922100  0.96478800  1
  C  703  1  0.00315200  0.63068100  0.00271800  1
  C  704  1  0.96200900  0.62155000  0.99996700  1
  C  706  1  0.98416500  0.58956400  0.96160100  1
  C  708  1  0.96859900  0.56763400  0.94059100  1
  C  713  1  0.05521500  0.59054000  0.94662000  1
  C  715  1  0.93431600  0.63158200  0.01934000  1
  C  717  1  0.02533800  0.30960200  0.34756100  1
  C  719  1  0.00273200  0.31605500  0.31608400  1
  C  720  1  0.96151500  0.32196800  0.32504700  1
  C  722  1  0.98418600  0.31604600  0.35727500  1
  C  724  1  0.96868400  0.31700200  0.37923500  1
  C  729  1  0.05525300  0.30013900  0.35627100  1
  C  731  1  0.93340800  0.33101800  0.31501600  1
  C  733  1  0.52531600  0.94519500  0.32919900  1
  C  735  1  0.50310800  0.98312700  0.33566700  1
  C  736  1  0.46196100  0.98037400  0.34204400  1
  C  738  1  0.48412100  0.94200800  0.33566500  1
  C  740  1  0.46855700  0.92099800  0.33658600  1
  C  745  1  0.55517400  0.92702700  0.31971700  1
  C  747  1  0.43426900  0.99974600  0.35138800  1
  C  749  1  0.52535700  0.32804900  0.00165400  1
  C  751  1  0.50314600  0.29658100  0.96372800  1
  C  752  1  0.46199900  0.30571300  0.96648100  1
  C  754  1  0.48415900  0.33770100  0.00484600  1
  C  756  1  0.46858800  0.35963200  0.02585400  1
  C  761  1  0.55523100  0.33675800  0.01981700  1
  C  763  1  0.43430600  0.29568600  0.94710700  1
  C  765  1  0.52539100  0.61764500  0.61880200  1
  C  767  1  0.50319000  0.61118300  0.65026800  1
  C  768  1  0.46204300  0.60480300  0.64113600  1
  C  770  1  0.48419400  0.61118200  0.60914800  1
  C  772  1  0.46862600  0.61025800  0.58721600  1
  C  777  1  0.55527200  0.62709600  0.61009800  1
  C  779  1  0.43435400  0.59545800  0.65116400  1
  C  781  1  0.73476800  0.80021400  0.18984700  1
  C  783  1  0.78027600  0.77614400  0.15697500  1
  C  784  1  0.74912800  0.75877800  0.14513900  1
  C  786  1  0.70381800  0.78195400  0.17919400  1
  C  788  1  0.66160400  0.78045400  0.18840300  1
  C  793  1  0.72922400  0.82049600  0.21208800  1
  C  795  1  0.75947200  0.73688100  0.12532000  1
  C  797  1  0.73480000  0.33367000  0.14663300  1
  C  799  1  0.78030700  0.32487200  0.17071200  1
  C  800  1  0.74916300  0.33040800  0.18808400  1
  C  802  1  0.70385200  0.34127800  0.16489400  1
  C  804  1  0.66163900  0.35198900  0.16639400  1
  C  809  1  0.72927100  0.33564500  0.12635800  1
  C  811  1  0.75949400  0.33249500  0.20999600  1
  C  813  1  0.73482800  0.75700000  0.61316900  1
  C  815  1  0.78032500  0.78987900  0.62198200  1
  C  816  1  0.74917400  0.80171700  0.61645400  1
  C  818  1  0.70386900  0.76766000  0.60557500  1
  C  820  1  0.66166100  0.75844800  0.59485900  1
  C  825  1  0.72928500  0.73474400  0.61117800  1
  C  827  1  0.75956800  0.82153600  0.61438400  1
  C  829  1  0.23474500  0.12703900  0.77658200  1
  C  831  1  0.28025600  0.15110500  0.80945200  1
  C  832  1  0.24912000  0.16848100  0.82128600  1
  C  834  1  0.20379700  0.14530000  0.78723800  1
  C  836  1  0.16158600  0.14680100  0.77802900  1
  C  841  1  0.22918500  0.10676600  0.75433400  1
  C  843  1  0.25947000  0.19037100  0.84113100  1
  C  845  1  0.23479200  0.59358500  0.81979900  1
  C  847  1  0.28029300  0.60239700  0.79573700  1
  C  848  1  0.24914800  0.59686800  0.77836700  1
  C  850  1  0.20383500  0.58598900  0.80154200  1
  C  852  1  0.16162600  0.57527600  0.80004100  1
  C  857  1  0.22923800  0.59160300  0.84006800  1
  C  859  1  0.25955800  0.59480200  0.75648200  1
  C  861  1  0.23483000  0.17025900  0.35326300  1
  C  863  1  0.28033100  0.13739000  0.34446200  1
  C  864  1  0.24917600  0.12555600  0.34999100  1
  C  866  1  0.20387600  0.15960800  0.36086900  1
  C  868  1  0.16166700  0.16881900  0.37158300  1
  C  873  1  0.22926400  0.19250800  0.35525400  1
  C  875  1  0.25952700  0.10574000  0.35207000  1
  N  38  1  0.74473100  0.90299600  0.39556800  1
  N  39  1  0.59525700  0.92806800  0.31935200  1
  N  40  1  0.89352600  0.92806100  0.31933500  1
  N  41  1  0.75782500  0.83296300  0.22733400  1
  N  79  1  0.74476300  0.43660600  0.04385000  1
  N  80  1  0.59531700  0.33536200  0.01881200  1
  N  81  1  0.89355700  0.33534300  0.01881800  1
  N  82  1  0.75789200  0.33840100  0.11388700  1
  N  120  1  0.74481300  0.55128500  0.51024500  1
  N  121  1  0.59535500  0.62747600  0.61150900  1
  N  122  1  0.89360100  0.62751000  0.61151500  1
  N  123  1  0.75793200  0.71953100  0.60843200  1
  N  161  1  0.24472800  0.02425300  0.57087400  1
  N  162  1  0.09528600  0.99933600  0.64713000  1
  N  163  1  0.39352600  0.99919700  0.64710400  1
  N  164  1  0.25782800  0.09431300  0.73911300  1
  N  202  1  0.24479700  0.49067900  0.92261100  1
  N  203  1  0.09530200  0.59193600  0.94765900  1
  N  204  1  0.39357000  0.59195200  0.94765300  1
  N  205  1  0.25787500  0.58883900  0.85252900  1
  N  243  1  0.24480600  0.37597100  0.45617600  1
  N  244  1  0.09534200  0.29977300  0.35489800  1
  N  245  1  0.39361400  0.29973900  0.35490500  1
  N  246  1  0.25790100  0.20773400  0.35801600  1
  N  284  1  0.23729400  0.49353200  0.56940900  1
  N  285  1  0.39421700  0.59304200  0.65075400  1
  N  286  1  0.09477700  0.59301500  0.65075100  1
  N  287  1  0.23306800  0.58852300  0.73937600  1
  N  325  1  0.23724700  0.37744600  0.92694100  1
  N  326  1  0.39417300  0.29609600  0.94510200  1
  N  327  1  0.09473300  0.29610000  0.94508100  1
  N  328  1  0.23303100  0.20749000  0.85198400  1
  N  366  1  0.23720300  0.01991100  0.45331200  1
  N  367  1  0.39413500  0.00175200  0.35380300  1
  N  368  1  0.09468300  0.00178500  0.35384500  1
  N  369  1  0.23306800  0.09487200  0.35831300  1
  N  407  1  0.73727900  0.43370300  0.39701200  1
  N  408  1  0.89344200  0.32859500  0.31205600  1
  N  409  1  0.59507200  0.33429600  0.31566800  1
  N  410  1  0.73302400  0.33872500  0.22710500  1
  N  448  1  0.73725700  0.54982000  0.03950900  1
  N  449  1  0.89418500  0.63116300  0.02135400  1
  N  450  1  0.59473000  0.63119200  0.02141100  1
  N  451  1  0.73297600  0.71979000  0.11446600  1
  N  489  1  0.73721500  0.90733900  0.51312000  1
  N  490  1  0.89413600  0.92549700  0.61261600  1
  N  491  1  0.59468900  0.92548100  0.61260200  1
  N  492  1  0.73305500  0.83236200  0.60811700  1
  N  494  1  0.75111400  0.89358700  0.43324100  1
  N  497  1  0.73680400  0.92744900  0.47786200  1
  N  510  1  0.75115300  0.48369800  0.05326800  1
  N  513  1  0.73684600  0.49445500  0.01940300  1
  N  526  1  0.75120600  0.51360300  0.46315200  1
  N  529  1  0.73689100  0.46898200  0.45239500  1
  N  542  1  0.25112300  0.03367000  0.53319300  1
  N  545  1  0.23680700  0.99980400  0.48857200  1
  N  558  1  0.25116000  0.44356700  0.91317800  1
  N  561  1  0.23685100  0.43281200  0.94704600  1
  N  574  1  0.25118900  0.41364700  0.50328400  1
  N  577  1  0.23689200  0.45827100  0.51404200  1
  N  590  1  0.95645900  0.96583700  0.32943600  1
  N  593  1  0.03360100  0.95971500  0.34184200  1
  N  606  1  0.95650000  0.30764300  0.98100800  1
  N  609  1  0.03364800  0.32617000  0.98713900  1
  N  622  1  0.95654500  0.61740200  0.63920700  1
  N  625  1  0.03368900  0.60500500  0.62068200  1
  N  638  1  0.45646400  0.96141600  0.63699700  1
  N  641  1  0.53360100  0.96754000  0.62458800  1
  N  654  1  0.45651700  0.61962700  0.98543300  1
  N  657  1  0.53365100  0.60109300  0.97931000  1
  N  670  1  0.45658600  0.30985400  0.32722200  1
  N  673  1  0.53370700  0.32225800  0.34576300  1
  N  686  1  0.03234500  0.96139600  0.63698200  1
  N  689  1  0.95519200  0.96753100  0.62458300  1
  N  702  1  0.03237300  0.61961900  0.98543500  1
  N  705  1  0.95523100  0.60108700  0.97931300  1
  N  718  1  0.03214100  0.30993600  0.32716900  1
  N  721  1  0.95502800  0.32198700  0.34565200  1
  N  734  1  0.53232900  0.96584400  0.32945000  1
  N  737  1  0.45518600  0.95972000  0.34185200  1
  N  750  1  0.53237300  0.30764900  0.98100700  1
  N  753  1  0.45522100  0.32617600  0.98713400  1
  N  766  1  0.53241100  0.61739600  0.63920000  1
  N  769  1  0.45526200  0.60499400  0.62067400  1
  N  782  1  0.77208100  0.79568100  0.17821500  1
  N  785  1  0.71307400  0.76261600  0.15772600  1
  N  798  1  0.77211200  0.32657200  0.15117100  1
  N  801  1  0.71311100  0.33915000  0.18423500  1
  N  814  1  0.77214000  0.76863300  0.62026900  1
  N  817  1  0.71311800  0.78913100  0.60770700  1
  N  830  1  0.27205900  0.13156900  0.78821300  1
  N  833  1  0.21305800  0.16464100  0.80870600  1
  N  846  1  0.27210600  0.60068500  0.81526800  1
  N  849  1  0.21309000  0.58812100  0.78220400  1
  N  862  1  0.27214400  0.15863100  0.34616800  1
  N  865  1  0.21312400  0.13814000  0.35874000  1
  O  501  1  0.72108100  0.96811000  0.45408600  1
  O  517  1  0.72112200  0.43001900  0.97874000  1
  O  533  1  0.72117800  0.49276400  0.51683600  1
  O  549  1  0.22109500  0.95914500  0.51235100  1
  O  565  1  0.22113900  0.49725000  0.98770600  1
  O  581  1  0.22116100  0.43450200  0.44960500  1
  O  597  1  0.99233400  0.90212000  0.33247900  1
  O  613  1  0.99239500  0.37441100  0.04473500  1
  O  629  1  0.99243100  0.61436200  0.57244200  1
  O  645  1  0.49232800  0.02513600  0.63395400  1
  O  661  1  0.49236900  0.55286400  0.92171500  1
  O  677  1  0.49241600  0.31289200  0.39399100  1
  O  693  1  0.99643400  0.02513200  0.63394200  1
  O  709  1  0.99650600  0.55285900  0.92172300  1
  O  725  1  0.99658200  0.31290700  0.39400900  1
  O  741  1  0.49646500  0.90212900  0.33249200  1
  O  757  1  0.49648100  0.37441600  0.04472800  1
  O  773  1  0.49652500  0.61435000  0.57243600  1
  O  789  1  0.64630900  0.79771600  0.21123500  1
  O  805  1  0.64633800  0.35755500  0.14913100  1
  O  821  1  0.64637500  0.73561400  0.58928800  1
  O  837  1  0.14629400  0.12953700  0.75519700  1
  O  853  1  0.14634100  0.56970400  0.81730100  1
  O  869  1  0.14638800  0.19165000  0.37714900  1
