# generated using pymatgen
data_CdH46(C21O4)2
_symmetry_space_group_name_H-M   'P 1'
_cell_length_a   15.67507000
_cell_length_b   25.00002000
_cell_length_c   25.15947000
_cell_angle_alpha   90.00000000
_cell_angle_beta   90.23915000
_cell_angle_gamma   90.00000000
_symmetry_Int_Tables_number   1
_chemical_formula_structural   CdH46(C21O4)2
_chemical_formula_sum   'Cd8 H368 C336 O64'
_cell_volume   9859.33333807
_cell_formula_units_Z   8
loop_
 _symmetry_equiv_pos_site_id
 _symmetry_equiv_pos_as_xyz
  1  'x, y, z'
loop_
 _atom_site_type_symbol
 _atom_site_label
 _atom_site_symmetry_multiplicity
 _atom_site_fract_x
 _atom_site_fract_y
 _atom_site_fract_z
 _atom_site_occupancy
  Cd  Cd0  1  0.06967000  0.94950000  0.08104000  1
  Cd  Cd1  1  0.15225000  0.00959000  0.95682000  1
  Cd  Cd2  1  0.93033000  0.44950000  0.41896000  1
  Cd  Cd3  1  0.84775000  0.50959000  0.54319000  1
  Cd  Cd4  1  0.93033000  0.05050000  0.91896000  1
  Cd  Cd5  1  0.84775000  0.99041000  0.04318000  1
  Cd  Cd6  1  0.06967000  0.55050000  0.58104000  1
  Cd  Cd7  1  0.15225000  0.49041000  0.45681000  1
  H  H8  1  0.18651000  0.89462000  0.90881000  1
  H  H9  1  0.28274000  0.74048000  0.83300000  1
  H  H10  1  0.38673000  0.71625000  0.81887000  1
  H  H11  1  0.37719000  0.65391000  0.89609000  1
  H  H12  1  0.27718000  0.68064000  0.91366000  1
  H  H13  1  0.25805000  0.59387000  0.86354000  1
  H  H14  1  0.21364000  0.64749000  0.82674000  1
  H  H15  1  0.31386000  0.62060000  0.80850000  1
  H  H16  1  0.26413000  0.80395000  0.04556000  1
  H  H17  1  0.40051000  0.70927000  0.97040000  1
  H  H18  1  0.35927000  0.72672000  0.03391000  1
  H  H19  1  0.41156000  0.82578000  0.06544000  1
  H  H20  1  0.54300000  0.87895000  0.08133000  1
  H  H21  1  0.67337000  0.86000000  0.02900000  1
  H  H22  1  0.63012000  0.66931000  0.99870000  1
  H  H23  1  0.51920000  0.65852000  0.00805000  1
  H  H24  1  0.50843000  0.61934000  0.91641000  1
  H  H25  1  0.61774000  0.63039000  0.90660000  1
  H  H26  1  0.54298000  0.55661000  0.99373000  1
  H  H27  1  0.58999000  0.53431000  0.93377000  1
  H  H28  1  0.65319000  0.56718000  0.98229000  1
  H  H29  1  0.69047000  0.74565000  0.93224000  1
  H  H30  1  0.75533000  0.77975000  0.97968000  1
  H  H31  1  0.79905000  0.87255000  0.96561000  1
  H  H32  1  0.71791000  0.95551000  0.82514000  1
  H  H33  1  0.67281000  0.77096000  0.78804000  1
  H  H34  1  0.69556000  0.73040000  0.84407000  1
  H  H35  1  0.52357000  0.73470000  0.78599000  1
  H  H36  1  0.54618000  0.69453000  0.84145000  1
  H  H37  1  0.66252000  0.64625000  0.78759000  1
  H  H38  1  0.56083000  0.63952000  0.75742000  1
  H  H39  1  0.63553000  0.68591000  0.73175000  1
  H  H40  1  0.63114000  0.90878000  0.75912000  1
  H  H41  1  0.59653000  0.84221000  0.76882000  1
  H  H42  1  0.56696000  0.97833000  0.82823000  1
  H  H43  1  0.43020000  0.01211000  0.86510000  1
  H  H44  1  0.30431000  0.95172000  0.86844000  1
  H  H45  1  0.50286000  0.79112000  0.71433000  1
  H  H46  1  0.46098000  0.85703000  0.70996000  1
  H  H47  1  0.35470000  0.75439000  0.72108000  1
  H  H48  1  0.31204000  0.81918000  0.71674000  1
  H  H49  1  0.37195000  0.83021000  0.62465000  1
  H  H50  1  0.41843000  0.76576000  0.62808000  1
  H  H51  1  0.30549000  0.77299000  0.62814000  1
  H  H52  1  0.29776000  0.81531000  0.80922000  1
  H  H53  1  0.23256000  0.87155000  0.82306000  1
  H  H54  1  0.07199000  0.02940000  0.17791000  1
  H  H55  1  0.99776000  0.03063000  0.42714000  1
  H  H56  1  0.94235000  0.99444000  0.37716000  1
  H  H57  1  0.13624000  0.99489000  0.39311000  1
  H  H58  1  0.08227000  0.95976000  0.34238000  1
  H  H59  1  0.00921000  0.90134000  0.40913000  1
  H  H60  1  0.12073000  0.89919000  0.42005000  1
  H  H61  1  0.05510000  0.93783000  0.46225000  1
  H  H62  1  0.80992000  0.04414000  0.22534000  1
  H  H63  1  0.77469000  0.06885000  0.31324000  1
  H  H64  1  0.84420000  0.05263000  0.36649000  1
  H  H65  1  0.84285000  0.15654000  0.25796000  1
  H  H66  1  0.87283000  0.25275000  0.27449000  1
  H  H67  1  0.91537000  0.28286000  0.36519000  1
  H  H68  1  0.80022000  0.14358000  0.49858000  1
  H  H69  1  0.74481000  0.14298000  0.43703000  1
  H  H70  1  0.75062000  0.04225000  0.43658000  1
  H  H71  1  0.79889000  0.04318000  0.49988000  1
  H  H72  1  0.63815000  0.03031000  0.50641000  1
  H  H73  1  0.66968000  0.09066000  0.53779000  1
  H  H74  1  0.62229000  0.09238000  0.47382000  1
  H  H75  1  0.93400000  0.18808000  0.48133000  1
  H  H76  1  0.89174000  0.25320000  0.47227000  1
  H  H77  1  0.97979000  0.32729000  0.46020000  1
  H  H78  1  0.23911000  0.31135000  0.40848000  1
  H  H79  1  0.04450000  0.15323000  0.51047000  1
  H  H80  1  0.05702000  0.09305000  0.47395000  1
  H  H81  1  0.21418000  0.10400000  0.47547000  1
  H  H82  1  0.20470000  0.16695000  0.50673000  1
  H  H83  1  0.14852000  0.05994000  0.55741000  1
  H  H84  1  0.24141000  0.09653000  0.57469000  1
  H  H85  1  0.13938000  0.12368000  0.58768000  1
  H  H86  1  0.25417000  0.16837000  0.41929000  1
  H  H87  1  0.29962000  0.22751000  0.39264000  1
  H  H88  1  0.20197000  0.26360000  0.30726000  1
  H  H89  1  0.14880000  0.23246000  0.21918000  1
  H  H90  1  0.12068000  0.13592000  0.20424000  1
  H  H91  1  0.32170000  0.06380000  0.31538000  1
  H  H92  1  0.36026000  0.10580000  0.36696000  1
  H  H93  1  0.28361000  0.99371000  0.38180000  1
  H  H94  1  0.32087000  0.03461000  0.43371000  1
  H  H95  1  0.46979000  0.03347000  0.39278000  1
  H  H96  1  0.43432000  0.96799000  0.40805000  1
  H  H97  1  0.43144000  0.99119000  0.34154000  1
  H  H98  1  0.18342000  0.03637000  0.23938000  1
  H  H99  1  0.16479000  0.03073000  0.30883000  1
  H  H100  1  0.81348000  0.39462000  0.59119000  1
  H  H101  1  0.71726000  0.24048000  0.66700000  1
  H  H102  1  0.61326000  0.21625000  0.68113000  1
  H  H103  1  0.62281000  0.15391000  0.60391000  1
  H  H104  1  0.72282000  0.18064000  0.58634000  1
  H  H105  1  0.74195000  0.09387000  0.63646000  1
  H  H106  1  0.78636000  0.14749000  0.67326000  1
  H  H107  1  0.68614000  0.12060000  0.69150000  1
  H  H108  1  0.73587000  0.30395000  0.45444000  1
  H  H109  1  0.59948000  0.20927000  0.52960000  1
  H  H110  1  0.64073000  0.22671000  0.46609000  1
  H  H111  1  0.58843000  0.32577000  0.43456000  1
  H  H112  1  0.45700000  0.37895000  0.41867000  1
  H  H113  1  0.32663000  0.36000000  0.47100000  1
  H  H114  1  0.36988000  0.16931000  0.50130000  1
  H  H115  1  0.48080000  0.15852000  0.49195000  1
  H  H116  1  0.49157000  0.11934000  0.58359000  1
  H  H117  1  0.38226000  0.13039000  0.59340000  1
  H  H118  1  0.45702000  0.05662000  0.50627000  1
  H  H119  1  0.41001000  0.03431000  0.56623000  1
  H  H120  1  0.34681000  0.06718000  0.51771000  1
  H  H121  1  0.30952000  0.24565000  0.56776000  1
  H  H122  1  0.24467000  0.27976000  0.52032000  1
  H  H123  1  0.20094000  0.37255000  0.53439000  1
  H  H124  1  0.28208000  0.45551000  0.67487000  1
  H  H125  1  0.32719000  0.27096000  0.71196000  1
  H  H126  1  0.30443000  0.23040000  0.65593000  1
  H  H127  1  0.47643000  0.23470000  0.71401000  1
  H  H128  1  0.45382000  0.19452000  0.65855000  1
  H  H129  1  0.33748000  0.14625000  0.71241000  1
  H  H130  1  0.43917000  0.13952000  0.74258000  1
  H  H131  1  0.36447000  0.18591000  0.76825000  1
  H  H132  1  0.36886000  0.40878000  0.74089000  1
  H  H133  1  0.40347000  0.34221000  0.73118000  1
  H  H134  1  0.43304000  0.47832000  0.67177000  1
  H  H135  1  0.56980000  0.51211000  0.63490000  1
  H  H136  1  0.69569000  0.45172000  0.63156000  1
  H  H137  1  0.49714000  0.29112000  0.78567000  1
  H  H138  1  0.53902000  0.35703000  0.79005000  1
  H  H139  1  0.64530000  0.25439000  0.77892000  1
  H  H140  1  0.68796000  0.31918000  0.78326000  1
  H  H141  1  0.62805000  0.33021000  0.87535000  1
  H  H142  1  0.58157000  0.26576000  0.87192000  1
  H  H143  1  0.69450000  0.27299000  0.87186000  1
  H  H144  1  0.70224000  0.31531000  0.69078000  1
  H  H145  1  0.76744000  0.37155000  0.67694000  1
  H  H146  1  0.92801000  0.52940000  0.32209000  1
  H  H147  1  0.00224000  0.53063000  0.07286000  1
  H  H148  1  0.05765000  0.49444000  0.12284000  1
  H  H149  1  0.86376000  0.49489000  0.10689000  1
  H  H150  1  0.91773000  0.45976000  0.15762000  1
  H  H151  1  0.99079000  0.40134000  0.09087000  1
  H  H152  1  0.87927000  0.39919000  0.07995000  1
  H  H153  1  0.94490000  0.43783000  0.03775000  1
  H  H154  1  0.19008000  0.54414000  0.27466000  1
  H  H155  1  0.22531000  0.56885000  0.18676000  1
  H  H156  1  0.15580000  0.55264000  0.13351000  1
  H  H157  1  0.15715000  0.65654000  0.24204000  1
  H  H158  1  0.12717000  0.75275000  0.22551000  1
  H  H159  1  0.08463000  0.78286000  0.13481000  1
  H  H160  1  0.19978000  0.64359000  0.00142000  1
  H  H161  1  0.25519000  0.64298000  0.06297000  1
  H  H162  1  0.24938000  0.54225000  0.06342000  1
  H  H163  1  0.20112000  0.54318000  0.00012000  1
  H  H164  1  0.36185000  0.53031000  0.99359000  1
  H  H165  1  0.33032000  0.59066000  0.96221000  1
  H  H166  1  0.37771000  0.59239000  0.02618000  1
  H  H167  1  0.06600000  0.68808000  0.01867000  1
  H  H168  1  0.10826000  0.75320000  0.02773000  1
  H  H169  1  0.02021000  0.82729000  0.03979000  1
  H  H170  1  0.76088000  0.81135000  0.09151000  1
  H  H171  1  0.95550000  0.65323000  0.98953000  1
  H  H172  1  0.94298000  0.59305000  0.02605000  1
  H  H173  1  0.78582000  0.60401000  0.02453000  1
  H  H174  1  0.79530000  0.66695000  0.99327000  1
  H  H175  1  0.85148000  0.55994000  0.94259000  1
  H  H176  1  0.75859000  0.59653000  0.92531000  1
  H  H177  1  0.86061000  0.62369000  0.91232000  1
  H  H178  1  0.74582000  0.66837000  0.08071000  1
  H  H179  1  0.70038000  0.72751000  0.10736000  1
  H  H180  1  0.79803000  0.76360000  0.19274000  1
  H  H181  1  0.85119000  0.73246000  0.28082000  1
  H  H182  1  0.87932000  0.63592000  0.29576000  1
  H  H183  1  0.67830000  0.56380000  0.18462000  1
  H  H184  1  0.63974000  0.60580000  0.13304000  1
  H  H185  1  0.71639000  0.49371000  0.11820000  1
  H  H186  1  0.67913000  0.53461000  0.06629000  1
  H  H187  1  0.53021000  0.53347000  0.10722000  1
  H  H188  1  0.56568000  0.46799000  0.09195000  1
  H  H189  1  0.56856000  0.49119000  0.15846000  1
  H  H190  1  0.81658000  0.53637000  0.26062000  1
  H  H191  1  0.83521000  0.53074000  0.19117000  1
  H  H192  1  0.81348000  0.10538000  0.09119000  1
  H  H193  1  0.71726000  0.25952000  0.16700000  1
  H  H194  1  0.61326000  0.28376000  0.18113000  1
  H  H195  1  0.62281000  0.34609000  0.10391000  1
  H  H196  1  0.72282000  0.31936000  0.08634000  1
  H  H197  1  0.74195000  0.40613000  0.13646000  1
  H  H198  1  0.78636000  0.35251000  0.17326000  1
  H  H199  1  0.68614000  0.37940000  0.19150000  1
  H  H200  1  0.73587000  0.19605000  0.95444000  1
  H  H201  1  0.59948000  0.29073000  0.02960000  1
  H  H202  1  0.64073000  0.27329000  0.96609000  1
  H  H203  1  0.58844000  0.17423000  0.93456000  1
  H  H204  1  0.45700000  0.12105000  0.91867000  1
  H  H205  1  0.32663000  0.14000000  0.97100000  1
  H  H206  1  0.36988000  0.33069000  0.00130000  1
  H  H207  1  0.48080000  0.34148000  0.99195000  1
  H  H208  1  0.49157000  0.38066000  0.08359000  1
  H  H209  1  0.38226000  0.36961000  0.09340000  1
  H  H210  1  0.45702000  0.44339000  0.00627000  1
  H  H211  1  0.41001000  0.46569000  0.06623000  1
  H  H212  1  0.34680000  0.43282000  0.01771000  1
  H  H213  1  0.30953000  0.25436000  0.06776000  1
  H  H214  1  0.24467000  0.22025000  0.02032000  1
  H  H215  1  0.20095000  0.12745000  0.03439000  1
  H  H216  1  0.28209000  0.04449000  0.17486000  1
  H  H217  1  0.32719000  0.22904000  0.21196000  1
  H  H218  1  0.30443000  0.26960000  0.15593000  1
  H  H219  1  0.47643000  0.26530000  0.21401000  1
  H  H220  1  0.45382000  0.30548000  0.15855000  1
  H  H221  1  0.33748000  0.35375000  0.21241000  1
  H  H222  1  0.43916000  0.36048000  0.24258000  1
  H  H223  1  0.36447000  0.31409000  0.26825000  1
  H  H224  1  0.36886000  0.09122000  0.24088000  1
  H  H225  1  0.40347000  0.15779000  0.23118000  1
  H  H226  1  0.43304000  0.02167000  0.17177000  1
  H  H227  1  0.56980000  0.98789000  0.13490000  1
  H  H228  1  0.69569000  0.04828000  0.13156000  1
  H  H229  1  0.49714000  0.20888000  0.28567000  1
  H  H230  1  0.53901000  0.14297000  0.29004000  1
  H  H231  1  0.64530000  0.24561000  0.27892000  1
  H  H232  1  0.68796000  0.18082000  0.28326000  1
  H  H233  1  0.62805000  0.16979000  0.37535000  1
  H  H234  1  0.58157000  0.23424000  0.37192000  1
  H  H235  1  0.69451000  0.22701000  0.37186000  1
  H  H236  1  0.70224000  0.18469000  0.19078000  1
  H  H237  1  0.76743000  0.12845000  0.17694000  1
  H  H238  1  0.92801000  0.97060000  0.82209000  1
  H  H239  1  0.00224000  0.96938000  0.57286000  1
  H  H240  1  0.05765000  0.00556000  0.62284000  1
  H  H241  1  0.86376000  0.00511000  0.60689000  1
  H  H242  1  0.91773000  0.04024000  0.65762000  1
  H  H243  1  0.99079000  0.09866000  0.59087000  1
  H  H244  1  0.87927000  0.10082000  0.57995000  1
  H  H245  1  0.94490000  0.06217000  0.53775000  1
  H  H246  1  0.19008000  0.95586000  0.77466000  1
  H  H247  1  0.22531000  0.93115000  0.68676000  1
  H  H248  1  0.15580000  0.94737000  0.63351000  1
  H  H249  1  0.15714000  0.84346000  0.74204000  1
  H  H250  1  0.12717000  0.74725000  0.72551000  1
  H  H251  1  0.08463000  0.71714000  0.63481000  1
  H  H252  1  0.19978000  0.85642000  0.50142000  1
  H  H253  1  0.25519000  0.85702000  0.56297000  1
  H  H254  1  0.24938000  0.95775000  0.56342000  1
  H  H255  1  0.20111000  0.95682000  0.50012000  1
  H  H256  1  0.36185000  0.96970000  0.49359000  1
  H  H257  1  0.33032000  0.90934000  0.46221000  1
  H  H258  1  0.37771000  0.90762000  0.52618000  1
  H  H259  1  0.06600000  0.81192000  0.51867000  1
  H  H260  1  0.10826000  0.74681000  0.52773000  1
  H  H261  1  0.02021000  0.67271000  0.53980000  1
  H  H262  1  0.76089000  0.68865000  0.59152000  1
  H  H263  1  0.95550000  0.84677000  0.48953000  1
  H  H264  1  0.94298000  0.90695000  0.52605000  1
  H  H265  1  0.78582000  0.89600000  0.52453000  1
  H  H266  1  0.79530000  0.83305000  0.49327000  1
  H  H267  1  0.85148000  0.94006000  0.44259000  1
  H  H268  1  0.75859000  0.90348000  0.42531000  1
  H  H269  1  0.86061000  0.87632000  0.41232000  1
  H  H270  1  0.74582000  0.83163000  0.58071000  1
  H  H271  1  0.70038000  0.77249000  0.60736000  1
  H  H272  1  0.79803000  0.73640000  0.69274000  1
  H  H273  1  0.85119000  0.76754000  0.78082000  1
  H  H274  1  0.87932000  0.86409000  0.79576000  1
  H  H275  1  0.67830000  0.93620000  0.68462000  1
  H  H276  1  0.63974000  0.89420000  0.63304000  1
  H  H277  1  0.71639000  0.00629000  0.61820000  1
  H  H278  1  0.67913000  0.96539000  0.56629000  1
  H  H279  1  0.53021000  0.96653000  0.60722000  1
  H  H280  1  0.56568000  0.03201000  0.59195000  1
  H  H281  1  0.56856000  0.00881000  0.65846000  1
  H  H282  1  0.81658000  0.96363000  0.76062000  1
  H  H283  1  0.83521000  0.96927000  0.69117000  1
  H  H284  1  0.18652000  0.60538000  0.40881000  1
  H  H285  1  0.28274000  0.75952000  0.33300000  1
  H  H286  1  0.38673000  0.78376000  0.31887000  1
  H  H287  1  0.37719000  0.84609000  0.39609000  1
  H  H288  1  0.27718000  0.81936000  0.41366000  1
  H  H289  1  0.25805000  0.90613000  0.36354000  1
  H  H290  1  0.21364000  0.85251000  0.32674000  1
  H  H291  1  0.31386000  0.87941000  0.30850000  1
  H  H292  1  0.26413000  0.69605000  0.54556000  1
  H  H293  1  0.40052000  0.79073000  0.47040000  1
  H  H294  1  0.35927000  0.77329000  0.53391000  1
  H  H295  1  0.41156000  0.67423000  0.56544000  1
  H  H296  1  0.54300000  0.62105000  0.58133000  1
  H  H297  1  0.67337000  0.64000000  0.52900000  1
  H  H298  1  0.63012000  0.83069000  0.49870000  1
  H  H299  1  0.51920000  0.84148000  0.50805000  1
  H  H300  1  0.50843000  0.88066000  0.41641000  1
  H  H301  1  0.61774000  0.86961000  0.40660000  1
  H  H302  1  0.54298000  0.94339000  0.49373000  1
  H  H303  1  0.58999000  0.96569000  0.43377000  1
  H  H304  1  0.65319000  0.93282000  0.48229000  1
  H  H305  1  0.69048000  0.75436000  0.43224000  1
  H  H306  1  0.75533000  0.72024000  0.47968000  1
  H  H307  1  0.79905000  0.62745000  0.46561000  1
  H  H308  1  0.71792000  0.54449000  0.32513000  1
  H  H309  1  0.67281000  0.72904000  0.28804000  1
  H  H310  1  0.69556000  0.76960000  0.34407000  1
  H  H311  1  0.52357000  0.76530000  0.28599000  1
  H  H312  1  0.54618000  0.80548000  0.34145000  1
  H  H313  1  0.66252000  0.85375000  0.28759000  1
  H  H314  1  0.56083000  0.86048000  0.25742000  1
  H  H315  1  0.63553000  0.81409000  0.23175000  1
  H  H316  1  0.63114000  0.59122000  0.25911000  1
  H  H317  1  0.59653000  0.65779000  0.26882000  1
  H  H318  1  0.56696000  0.52168000  0.32823000  1
  H  H319  1  0.43020000  0.48789000  0.36510000  1
  H  H320  1  0.30431000  0.54828000  0.36844000  1
  H  H321  1  0.50286000  0.70888000  0.21433000  1
  H  H322  1  0.46098000  0.64297000  0.20995000  1
  H  H323  1  0.35470000  0.74561000  0.22108000  1
  H  H324  1  0.31204000  0.68082000  0.21674000  1
  H  H325  1  0.37195000  0.66979000  0.12465000  1
  H  H326  1  0.41843000  0.73424000  0.12808000  1
  H  H327  1  0.30549000  0.72701000  0.12814000  1
  H  H328  1  0.29776000  0.68469000  0.30922000  1
  H  H329  1  0.23256000  0.62845000  0.32306000  1
  H  H330  1  0.07199000  0.47060000  0.67791000  1
  H  H331  1  0.99776000  0.46937000  0.92714000  1
  H  H332  1  0.94235000  0.50556000  0.87716000  1
  H  H333  1  0.13624000  0.50511000  0.89311000  1
  H  H334  1  0.08227000  0.54024000  0.84238000  1
  H  H335  1  0.00921000  0.59866000  0.90913000  1
  H  H336  1  0.12073000  0.60082000  0.92005000  1
  H  H337  1  0.05510000  0.56217000  0.96225000  1
  H  H338  1  0.80991000  0.45586000  0.72534000  1
  H  H339  1  0.77469000  0.43115000  0.81324000  1
  H  H340  1  0.84420000  0.44737000  0.86649000  1
  H  H341  1  0.84285000  0.34346000  0.75796000  1
  H  H342  1  0.87283000  0.24725000  0.77449000  1
  H  H343  1  0.91537000  0.21714000  0.86519000  1
  H  H344  1  0.80022000  0.35642000  0.99858000  1
  H  H345  1  0.74481000  0.35702000  0.93703000  1
  H  H346  1  0.75062000  0.45775000  0.93658000  1
  H  H347  1  0.79888000  0.45682000  0.99988000  1
  H  H348  1  0.63814000  0.46970000  0.00641000  1
  H  H349  1  0.66968000  0.40934000  0.03779000  1
  H  H350  1  0.62229000  0.40761000  0.97382000  1
  H  H351  1  0.93399000  0.31192000  0.98133000  1
  H  H352  1  0.89174000  0.24680000  0.97227000  1
  H  H353  1  0.97979000  0.17271000  0.96021000  1
  H  H354  1  0.23911000  0.18865000  0.90848000  1
  H  H355  1  0.04450000  0.34677000  0.01047000  1
  H  H356  1  0.05702000  0.40695000  0.97395000  1
  H  H357  1  0.21418000  0.39600000  0.97547000  1
  H  H358  1  0.20470000  0.33305000  0.00673000  1
  H  H359  1  0.14852000  0.44006000  0.05741000  1
  H  H360  1  0.24141000  0.40348000  0.07469000  1
  H  H361  1  0.13938000  0.37632000  0.08768000  1
  H  H362  1  0.25417000  0.33163000  0.91929000  1
  H  H363  1  0.29962000  0.27249000  0.89264000  1
  H  H364  1  0.20197000  0.23640000  0.80726000  1
  H  H365  1  0.14880000  0.26754000  0.71918000  1
  H  H366  1  0.12068000  0.36408000  0.70424000  1
  H  H367  1  0.32170000  0.43620000  0.81538000  1
  H  H368  1  0.36026000  0.39420000  0.86696000  1
  H  H369  1  0.28361000  0.50629000  0.88180000  1
  H  H370  1  0.32087000  0.46539000  0.93371000  1
  H  H371  1  0.46979000  0.46653000  0.89278000  1
  H  H372  1  0.43432000  0.53201000  0.90805000  1
  H  H373  1  0.43144000  0.50881000  0.84154000  1
  H  H374  1  0.18342000  0.46363000  0.73938000  1
  H  H375  1  0.16479000  0.46927000  0.80883000  1
  C  C376  1  0.16487000  0.88581000  0.01491000  1
  C  C377  1  0.21888000  0.85204000  0.98056000  1
  C  C378  1  0.22405000  0.86232000  0.92588000  1
  C  C379  1  0.27785000  0.83262000  0.89310000  1
  C  C380  1  0.32620000  0.79107000  0.91646000  1
  C  C381  1  0.34060000  0.72309000  0.85082000  1
  C  C382  1  0.31828000  0.67118000  0.87960000  1
  C  C383  1  0.27365000  0.63116000  0.84259000  1
  C  C384  1  0.32418000  0.78107000  0.97173000  1
  C  C385  1  0.26860000  0.81117000  0.00302000  1
  C  C386  1  0.38714000  0.74267000  0.99720000  1
  C  C387  1  0.47018000  0.77191000  0.00965000  1
  C  C388  1  0.47035000  0.81514000  0.04517000  1
  C  C389  1  0.54376000  0.84560000  0.05354000  1
  C  C390  1  0.61736000  0.83456000  0.02456000  1
  C  C391  1  0.61984000  0.79152000  0.98889000  1
  C  C392  1  0.54673000  0.75923000  0.98332000  1
  C  C393  1  0.56838000  0.66593000  0.97770000  1
  C  C394  1  0.57025000  0.62076000  0.93717000  1
  C  C395  1  0.59012000  0.56679000  0.96313000  1
  C  C396  1  0.69818000  0.78303000  0.95444000  1
  C  C397  1  0.70868000  0.82985000  0.91661000  1
  C  C398  1  0.76086000  0.87333000  0.92952000  1
  C  C399  1  0.76433000  0.91851000  0.89652000  1
  C  C400  1  0.81934000  0.96482000  0.91006000  1
  C  C401  1  0.71504000  0.91994000  0.84990000  1
  C  C402  1  0.66242000  0.87729000  0.83570000  1
  C  C403  1  0.66020000  0.83230000  0.86938000  1
  C  C404  1  0.64371000  0.75109000  0.82258000  1
  C  C405  1  0.57460000  0.71194000  0.80557000  1
  C  C406  1  0.61023000  0.66862000  0.76866000  1
  C  C407  1  0.60308000  0.88115000  0.78817000  1
  C  C408  1  0.51635000  0.90153000  0.80597000  1
  C  C409  1  0.51032000  0.95316000  0.82731000  1
  C  C410  1  0.43425000  0.97183000  0.84896000  1
  C  C411  1  0.36374000  0.93794000  0.85104000  1
  C  C412  1  0.36710000  0.88610000  0.83001000  1
  C  C413  1  0.44310000  0.86877000  0.80572000  1
  C  C414  1  0.44866000  0.81670000  0.72558000  1
  C  C415  1  0.36537000  0.79410000  0.70354000  1
  C  C416  1  0.36552000  0.79042000  0.64277000  1
  C  C417  1  0.28998000  0.84964000  0.83562000  1
  C  C418  1  0.91017000  0.02067000  0.14153000  1
  C  C419  1  0.93781000  0.03292000  0.19648000  1
  C  C420  1  0.02495000  0.03549000  0.20894000  1
  C  C421  1  0.05272000  0.04533000  0.26082000  1
  C  C422  1  0.99079000  0.05173000  0.30071000  1
  C  C423  1  0.00344000  0.01376000  0.38702000  1
  C  C424  1  0.07676000  0.97362000  0.38368000  1
  C  C425  1  0.06465000  0.92556000  0.42076000  1
  C  C426  1  0.90283000  0.05419000  0.28821000  1
  C  C427  1  0.87730000  0.04367000  0.23604000  1
  C  C428  1  0.83968000  0.07453000  0.32888000  1
  C  C429  1  0.85619000  0.13350000  0.33988000  1
  C  C430  1  0.85650000  0.17050000  0.29808000  1
  C  C431  1  0.87468000  0.22436000  0.30721000  1
  C  C432  1  0.89753000  0.24138000  0.35813000  1
  C  C433  1  0.89978000  0.20526000  0.40071000  1
  C  C434  1  0.87563000  0.15196000  0.39129000  1
  C  C435  1  0.79028000  0.12046000  0.46176000  1
  C  C436  1  0.75464000  0.06511000  0.47381000  1
  C  C437  1  0.66639000  0.06977000  0.49943000  1
  C  C438  1  0.93366000  0.22273000  0.45470000  1
  C  C439  1  0.02204000  0.24634000  0.44800000  1
  C  C440  1  0.03294000  0.30167000  0.44941000  1
  C  C441  1  0.11117000  0.32513000  0.43612000  1
  C  C442  1  0.12141000  0.38371000  0.44030000  1
  C  C443  1  0.17901000  0.29278000  0.41964000  1
  C  C444  1  0.17057000  0.23722000  0.41780000  1
  C  C445  1  0.09234000  0.21421000  0.43364000  1
  C  C446  1  0.08544000  0.13237000  0.48173000  1
  C  C447  1  0.17587000  0.12695000  0.50397000  1
  C  C448  1  0.17631000  0.10028000  0.55885000  1
  C  C449  1  0.24112000  0.20337000  0.39444000  1
  C  C450  1  0.21478000  0.18427000  0.33951000  1
  C  C451  1  0.19439000  0.22104000  0.29938000  1
  C  C452  1  0.16303000  0.20365000  0.25036000  1
  C  C453  1  0.14825000  0.14929000  0.24171000  1
  C  C454  1  0.16762000  0.11143000  0.28102000  1
  C  C455  1  0.20362000  0.12955000  0.32904000  1
  C  C456  1  0.31439000  0.07359000  0.35781000  1
  C  C457  1  0.33113000  0.02447000  0.39175000  1
  C  C458  1  0.42153000  0.00308000  0.38309000  1
  C  C459  1  0.14671000  0.05263000  0.27282000  1
  C  C460  1  0.83513000  0.38581000  0.48509000  1
  C  C461  1  0.78111000  0.35204000  0.51944000  1
  C  C462  1  0.77595000  0.36232000  0.57412000  1
  C  C463  1  0.72215000  0.33262000  0.60690000  1
  C  C464  1  0.67380000  0.29107000  0.58354000  1
  C  C465  1  0.65940000  0.22309000  0.64918000  1
  C  C466  1  0.68172000  0.17118000  0.62040000  1
  C  C467  1  0.72634000  0.13116000  0.65741000  1
  C  C468  1  0.67582000  0.28107000  0.52827000  1
  C  C469  1  0.73140000  0.31117000  0.49698000  1
  C  C470  1  0.61286000  0.24267000  0.50280000  1
  C  C471  1  0.52982000  0.27191000  0.49035000  1
  C  C472  1  0.52965000  0.31514000  0.45483000  1
  C  C473  1  0.45624000  0.34560000  0.44646000  1
  C  C474  1  0.38264000  0.33456000  0.47544000  1
  C  C475  1  0.38016000  0.29152000  0.51112000  1
  C  C476  1  0.45327000  0.25923000  0.51668000  1
  C  C477  1  0.43162000  0.16593000  0.52230000  1
  C  C478  1  0.42975000  0.12076000  0.56283000  1
  C  C479  1  0.40988000  0.06679000  0.53687000  1
  C  C480  1  0.30182000  0.28303000  0.54556000  1
  C  C481  1  0.29132000  0.32985000  0.58339000  1
  C  C482  1  0.23914000  0.37333000  0.57048000  1
  C  C483  1  0.23567000  0.41851000  0.60349000  1
  C  C484  1  0.18066000  0.46482000  0.58994000  1
  C  C485  1  0.28495000  0.41994000  0.65010000  1
  C  C486  1  0.33758000  0.37728000  0.66430000  1
  C  C487  1  0.33979000  0.33230000  0.63062000  1
  C  C488  1  0.35629000  0.25109000  0.67742000  1
  C  C489  1  0.42539000  0.21194000  0.69443000  1
  C  C490  1  0.38977000  0.16862000  0.73134000  1
  C  C491  1  0.39692000  0.38115000  0.71183000  1
  C  C492  1  0.48364000  0.40152000  0.69404000  1
  C  C493  1  0.48968000  0.45316000  0.67269000  1
  C  C494  1  0.56574000  0.47183000  0.65104000  1
  C  C495  1  0.63626000  0.43794000  0.64896000  1
  C  C496  1  0.63290000  0.38610000  0.66999000  1
  C  C497  1  0.55690000  0.36876000  0.69428000  1
  C  C498  1  0.55134000  0.31670000  0.77442000  1
  C  C499  1  0.63463000  0.29410000  0.79646000  1
  C  C500  1  0.63448000  0.29042000  0.85723000  1
  C  C501  1  0.71003000  0.34964000  0.66438000  1
  C  C502  1  0.08983000  0.52067000  0.35847000  1
  C  C503  1  0.06220000  0.53292000  0.30351000  1
  C  C504  1  0.97505000  0.53549000  0.29106000  1
  C  C505  1  0.94728000  0.54533000  0.23918000  1
  C  C506  1  0.00921000  0.55173000  0.19929000  1
  C  C507  1  0.99656000  0.51376000  0.11298000  1
  C  C508  1  0.92323000  0.47361000  0.11632000  1
  C  C509  1  0.93535000  0.42556000  0.07924000  1
  C  C510  1  0.09717000  0.55419000  0.21179000  1
  C  C511  1  0.12270000  0.54367000  0.26396000  1
  C  C512  1  0.16033000  0.57453000  0.17112000  1
  C  C513  1  0.14381000  0.63350000  0.16012000  1
  C  C514  1  0.14350000  0.67050000  0.20192000  1
  C  C515  1  0.12532000  0.72436000  0.19279000  1
  C  C516  1  0.10247000  0.74138000  0.14187000  1
  C  C517  1  0.10022000  0.70526000  0.09930000  1
  C  C518  1  0.12437000  0.65196000  0.10871000  1
  C  C519  1  0.20972000  0.62046000  0.03824000  1
  C  C520  1  0.24536000  0.56512000  0.02619000  1
  C  C521  1  0.33361000  0.56978000  0.00057000  1
  C  C522  1  0.06634000  0.72273000  0.04530000  1
  C  C523  1  0.97796000  0.74634000  0.05200000  1
  C  C524  1  0.96706000  0.80168000  0.05059000  1
  C  C525  1  0.88883000  0.82513000  0.06387000  1
  C  C526  1  0.87859000  0.88371000  0.05969000  1
  C  C527  1  0.82098000  0.79278000  0.08035000  1
  C  C528  1  0.82943000  0.73722000  0.08219000  1
  C  C529  1  0.90766000  0.71421000  0.06636000  1
  C  C530  1  0.91456000  0.63237000  0.01827000  1
  C  C531  1  0.82413000  0.62695000  0.99603000  1
  C  C532  1  0.82369000  0.60028000  0.94115000  1
  C  C533  1  0.75888000  0.70337000  0.10556000  1
  C  C534  1  0.78522000  0.68427000  0.16049000  1
  C  C535  1  0.80561000  0.72104000  0.20062000  1
  C  C536  1  0.83696000  0.70365000  0.24964000  1
  C  C537  1  0.85175000  0.64929000  0.25829000  1
  C  C538  1  0.83238000  0.61144000  0.21898000  1
  C  C539  1  0.79638000  0.62955000  0.17096000  1
  C  C540  1  0.68561000  0.57359000  0.14219000  1
  C  C541  1  0.66887000  0.52447000  0.10825000  1
  C  C542  1  0.57847000  0.50308000  0.11691000  1
  C  C543  1  0.85329000  0.55263000  0.22718000  1
  C  C544  1  0.83513000  0.11419000  0.98509000  1
  C  C545  1  0.78111000  0.14796000  0.01944000  1
  C  C546  1  0.77595000  0.13768000  0.07412000  1
  C  C547  1  0.72215000  0.16738000  0.10690000  1
  C  C548  1  0.67380000  0.20893000  0.08354000  1
  C  C549  1  0.65940000  0.27691000  0.14918000  1
  C  C550  1  0.68172000  0.32882000  0.12040000  1
  C  C551  1  0.72634000  0.36884000  0.15741000  1
  C  C552  1  0.67582000  0.21893000  0.02827000  1
  C  C553  1  0.73140000  0.18883000  0.99698000  1
  C  C554  1  0.61286000  0.25733000  0.00280000  1
  C  C555  1  0.52982000  0.22809000  0.99035000  1
  C  C556  1  0.52965000  0.18486000  0.95483000  1
  C  C557  1  0.45624000  0.15440000  0.94646000  1
  C  C558  1  0.38264000  0.16544000  0.97544000  1
  C  C559  1  0.38016000  0.20848000  0.01111000  1
  C  C560  1  0.45327000  0.24078000  0.01668000  1
  C  C561  1  0.43162000  0.33407000  0.02230000  1
  C  C562  1  0.42975000  0.37924000  0.06283000  1
  C  C563  1  0.40988000  0.43321000  0.03687000  1
  C  C564  1  0.30182000  0.21697000  0.04556000  1
  C  C565  1  0.29132000  0.17015000  0.08339000  1
  C  C566  1  0.23914000  0.12667000  0.07048000  1
  C  C567  1  0.23567000  0.08149000  0.10348000  1
  C  C568  1  0.18066000  0.03518000  0.08994000  1
  C  C569  1  0.28496000  0.08006000  0.15010000  1
  C  C570  1  0.33758000  0.12272000  0.16430000  1
  C  C571  1  0.33979000  0.16770000  0.13062000  1
  C  C572  1  0.35629000  0.24892000  0.17742000  1
  C  C573  1  0.42539000  0.28806000  0.19443000  1
  C  C574  1  0.38977000  0.33138000  0.23134000  1
  C  C575  1  0.39692000  0.11885000  0.21183000  1
  C  C576  1  0.48364000  0.09848000  0.19403000  1
  C  C577  1  0.48968000  0.04684000  0.17269000  1
  C  C578  1  0.56575000  0.02817000  0.15104000  1
  C  C579  1  0.63626000  0.06206000  0.14896000  1
  C  C580  1  0.63290000  0.11390000  0.16999000  1
  C  C581  1  0.55689000  0.13123000  0.19428000  1
  C  C582  1  0.55134000  0.18330000  0.27442000  1
  C  C583  1  0.63462000  0.20590000  0.29646000  1
  C  C584  1  0.63448000  0.20958000  0.35723000  1
  C  C585  1  0.71002000  0.15036000  0.16438000  1
  C  C586  1  0.08983000  0.97933000  0.85847000  1
  C  C587  1  0.06219000  0.96708000  0.80352000  1
  C  C588  1  0.97505000  0.96451000  0.79106000  1
  C  C589  1  0.94728000  0.95467000  0.73918000  1
  C  C590  1  0.00921000  0.94827000  0.69929000  1
  C  C591  1  0.99655000  0.98624000  0.61298000  1
  C  C592  1  0.92324000  0.02639000  0.61632000  1
  C  C593  1  0.93535000  0.07444000  0.57924000  1
  C  C594  1  0.09717000  0.94581000  0.71179000  1
  C  C595  1  0.12270000  0.95633000  0.76396000  1
  C  C596  1  0.16032000  0.92547000  0.67112000  1
  C  C597  1  0.14381000  0.86650000  0.66012000  1
  C  C598  1  0.14350000  0.82950000  0.70192000  1
  C  C599  1  0.12532000  0.77564000  0.69279000  1
  C  C600  1  0.10247000  0.75862000  0.64187000  1
  C  C601  1  0.10022000  0.79475000  0.59929000  1
  C  C602  1  0.12437000  0.84804000  0.60871000  1
  C  C603  1  0.20972000  0.87955000  0.53824000  1
  C  C604  1  0.24536000  0.93489000  0.52619000  1
  C  C605  1  0.33361000  0.93023000  0.50057000  1
  C  C606  1  0.06634000  0.77727000  0.54530000  1
  C  C607  1  0.97796000  0.75366000  0.55200000  1
  C  C608  1  0.96706000  0.69833000  0.55059000  1
  C  C609  1  0.88883000  0.67487000  0.56388000  1
  C  C610  1  0.87859000  0.61629000  0.55969000  1
  C  C611  1  0.82099000  0.70722000  0.58036000  1
  C  C612  1  0.82943000  0.76278000  0.58220000  1
  C  C613  1  0.90766000  0.78580000  0.56636000  1
  C  C614  1  0.91456000  0.86763000  0.51827000  1
  C  C615  1  0.82413000  0.87305000  0.49603000  1
  C  C616  1  0.82369000  0.89972000  0.44115000  1
  C  C617  1  0.75888000  0.79663000  0.60556000  1
  C  C618  1  0.78522000  0.81573000  0.66049000  1
  C  C619  1  0.80561000  0.77897000  0.70061000  1
  C  C620  1  0.83696000  0.79635000  0.74964000  1
  C  C621  1  0.85175000  0.85071000  0.75829000  1
  C  C622  1  0.83238000  0.88857000  0.71898000  1
  C  C623  1  0.79638000  0.87045000  0.67096000  1
  C  C624  1  0.68561000  0.92641000  0.64219000  1
  C  C625  1  0.66887000  0.97553000  0.60825000  1
  C  C626  1  0.57847000  0.99692000  0.61691000  1
  C  C627  1  0.85329000  0.94738000  0.72718000  1
  C  C628  1  0.16487000  0.61419000  0.51491000  1
  C  C629  1  0.21889000  0.64796000  0.48056000  1
  C  C630  1  0.22405000  0.63768000  0.42588000  1
  C  C631  1  0.27785000  0.66738000  0.39310000  1
  C  C632  1  0.32620000  0.70893000  0.41646000  1
  C  C633  1  0.34060000  0.77691000  0.35082000  1
  C  C634  1  0.31828000  0.82882000  0.37960000  1
  C  C635  1  0.27365000  0.86884000  0.34259000  1
  C  C636  1  0.32418000  0.71893000  0.47173000  1
  C  C637  1  0.26860000  0.68883000  0.50302000  1
  C  C638  1  0.38714000  0.75733000  0.49720000  1
  C  C639  1  0.47018000  0.72809000  0.50965000  1
  C  C640  1  0.47035000  0.68486000  0.54517000  1
  C  C641  1  0.54376000  0.65440000  0.55354000  1
  C  C642  1  0.61736000  0.66544000  0.52456000  1
  C  C643  1  0.61984000  0.70848000  0.48888000  1
  C  C644  1  0.54673000  0.74077000  0.48332000  1
  C  C645  1  0.56838000  0.83407000  0.47770000  1
  C  C646  1  0.57025000  0.87924000  0.43717000  1
  C  C647  1  0.59012000  0.93321000  0.46313000  1
  C  C648  1  0.69818000  0.71697000  0.45444000  1
  C  C649  1  0.70868000  0.67015000  0.41661000  1
  C  C650  1  0.76086000  0.62667000  0.42952000  1
  C  C651  1  0.76433000  0.58149000  0.39651000  1
  C  C652  1  0.81934000  0.53518000  0.41006000  1
  C  C653  1  0.71505000  0.58006000  0.34990000  1
  C  C654  1  0.66242000  0.62272000  0.33570000  1
  C  C655  1  0.66021000  0.66770000  0.36938000  1
  C  C656  1  0.64371000  0.74892000  0.32258000  1
  C  C657  1  0.57460000  0.78806000  0.30557000  1
  C  C658  1  0.61023000  0.83138000  0.26866000  1
  C  C659  1  0.60308000  0.61885000  0.28817000  1
  C  C660  1  0.51635000  0.59848000  0.30596000  1
  C  C661  1  0.51032000  0.54684000  0.32731000  1
  C  C662  1  0.43425000  0.52818000  0.34896000  1
  C  C663  1  0.36374000  0.56206000  0.35104000  1
  C  C664  1  0.36710000  0.61391000  0.33001000  1
  C  C665  1  0.44310000  0.63124000  0.30572000  1
  C  C666  1  0.44866000  0.68330000  0.22558000  1
  C  C667  1  0.36537000  0.70590000  0.20354000  1
  C  C668  1  0.36552000  0.70958000  0.14277000  1
  C  C669  1  0.28997000  0.65036000  0.33562000  1
  C  C670  1  0.91017000  0.47933000  0.64153000  1
  C  C671  1  0.93780000  0.46708000  0.69649000  1
  C  C672  1  0.02495000  0.46451000  0.70894000  1
  C  C673  1  0.05272000  0.45467000  0.76082000  1
  C  C674  1  0.99079000  0.44827000  0.80071000  1
  C  C675  1  0.00344000  0.48624000  0.88702000  1
  C  C676  1  0.07676000  0.52639000  0.88368000  1
  C  C677  1  0.06465000  0.57444000  0.92076000  1
  C  C678  1  0.90283000  0.44581000  0.78821000  1
  C  C679  1  0.87730000  0.45633000  0.73604000  1
  C  C680  1  0.83967000  0.42547000  0.82888000  1
  C  C681  1  0.85618000  0.36650000  0.83988000  1
  C  C682  1  0.85650000  0.32950000  0.79808000  1
  C  C683  1  0.87468000  0.27564000  0.80721000  1
  C  C684  1  0.89753000  0.25862000  0.85813000  1
  C  C685  1  0.89978000  0.29474000  0.90071000  1
  C  C686  1  0.87563000  0.34804000  0.89129000  1
  C  C687  1  0.79028000  0.37954000  0.96176000  1
  C  C688  1  0.75464000  0.43489000  0.97381000  1
  C  C689  1  0.66639000  0.43023000  0.99943000  1
  C  C690  1  0.93366000  0.27727000  0.95470000  1
  C  C691  1  0.02204000  0.25366000  0.94800000  1
  C  C692  1  0.03294000  0.19833000  0.94941000  1
  C  C693  1  0.11117000  0.17487000  0.93613000  1
  C  C694  1  0.12141000  0.11629000  0.94031000  1
  C  C695  1  0.17901000  0.20722000  0.91965000  1
  C  C696  1  0.17057000  0.26278000  0.91781000  1
  C  C697  1  0.09234000  0.28579000  0.93364000  1
  C  C698  1  0.08544000  0.36763000  0.98173000  1
  C  C699  1  0.17587000  0.37305000  0.00397000  1
  C  C700  1  0.17631000  0.39972000  0.05885000  1
  C  C701  1  0.24112000  0.29663000  0.89444000  1
  C  C702  1  0.21478000  0.31573000  0.83951000  1
  C  C703  1  0.19439000  0.27896000  0.79938000  1
  C  C704  1  0.16303000  0.29635000  0.75036000  1
  C  C705  1  0.14825000  0.35071000  0.74171000  1
  C  C706  1  0.16762000  0.38857000  0.78102000  1
  C  C707  1  0.20362000  0.37045000  0.82904000  1
  C  C708  1  0.31439000  0.42641000  0.85781000  1
  C  C709  1  0.33113000  0.47553000  0.89175000  1
  C  C710  1  0.42153000  0.49692000  0.88309000  1
  C  C711  1  0.14671000  0.44737000  0.77282000  1
  O  O712  1  0.12948000  0.92851000  0.99526000  1
  O  O713  1  0.15167000  0.87303000  0.06328000  1
  O  O714  1  0.38123000  0.76137000  0.88591000  1
  O  O715  1  0.54975000  0.71486000  0.94974000  1
  O  O716  1  0.60587000  0.79076000  0.85717000  1
  O  O717  1  0.82709000  0.00261000  0.87584000  1
  O  O718  1  0.86094000  0.96577000  0.95436000  1
  O  O719  1  0.44586000  0.81805000  0.78317000  1
  O  O720  1  0.96605000  0.01048000  0.10541000  1
  O  O721  1  0.83083000  0.02116000  0.12966000  1
  O  O722  1  0.01737000  0.05937000  0.35245000  1
  O  O723  1  0.87072000  0.11617000  0.43376000  1
  O  O724  1  0.08288000  0.15939000  0.43091000  1
  O  O725  1  0.05549000  0.41305000  0.44983000  1
  O  O726  1  0.19562000  0.40459000  0.43711000  1
  O  O727  1  0.22867000  0.09227000  0.36742000  1
  O  O728  1  0.87051000  0.42851000  0.50474000  1
  O  O729  1  0.84833000  0.37302000  0.43672000  1
  O  O730  1  0.61877000  0.26137000  0.61409000  1
  O  O731  1  0.45025000  0.21486000  0.55026000  1
  O  O732  1  0.39413000  0.29076000  0.64283000  1
  O  O733  1  0.17291000  0.50261000  0.62416000  1
  O  O734  1  0.13906000  0.46577000  0.54564000  1
  O  O735  1  0.55414000  0.31805000  0.71683000  1
  O  O736  1  0.03395000  0.51048000  0.39459000  1
  O  O737  1  0.16917000  0.52116000  0.37034000  1
  O  O738  1  0.98263000  0.55937000  0.14755000  1
  O  O739  1  0.12928000  0.61617000  0.06624000  1
  O  O740  1  0.91712000  0.65939000  0.06909000  1
  O  O741  1  0.94451000  0.91305000  0.05017000  1
  O  O742  1  0.80438000  0.90459000  0.06288000  1
  O  O743  1  0.77133000  0.59227000  0.13258000  1
  O  O744  1  0.87051000  0.07149000  0.00474000  1
  O  O745  1  0.84833000  0.12697000  0.93672000  1
  O  O746  1  0.61877000  0.23863000  0.11409000  1
  O  O747  1  0.45025000  0.28514000  0.05026000  1
  O  O748  1  0.39413000  0.20924000  0.14283000  1
  O  O749  1  0.17291000  0.99739000  0.12416000  1
  O  O750  1  0.13906000  0.03423000  0.04564000  1
  O  O751  1  0.55414000  0.18195000  0.21683000  1
  O  O752  1  0.03395000  0.98952000  0.89459000  1
  O  O753  1  0.16917000  0.97884000  0.87034000  1
  O  O754  1  0.98263000  0.94063000  0.64755000  1
  O  O755  1  0.12928000  0.88383000  0.56624000  1
  O  O756  1  0.91712000  0.84061000  0.56909000  1
  O  O757  1  0.94451000  0.58695000  0.55017000  1
  O  O758  1  0.80438000  0.59541000  0.56289000  1
  O  O759  1  0.77133000  0.90773000  0.63258000  1
  O  O760  1  0.12948000  0.57149000  0.49526000  1
  O  O761  1  0.15167000  0.62698000  0.56328000  1
  O  O762  1  0.38123000  0.73863000  0.38591000  1
  O  O763  1  0.54975000  0.78514000  0.44974000  1
  O  O764  1  0.60587000  0.70925000  0.35717000  1
  O  O765  1  0.82709000  0.49739000  0.37584000  1
  O  O766  1  0.86093000  0.53423000  0.45436000  1
  O  O767  1  0.44586000  0.68195000  0.28317000  1
  O  O768  1  0.96605000  0.48952000  0.60541000  1
  O  O769  1  0.83083000  0.47884000  0.62966000  1
  O  O770  1  0.01737000  0.44063000  0.85245000  1
  O  O771  1  0.87072000  0.38383000  0.93376000  1
  O  O772  1  0.08288000  0.34061000  0.93091000  1
  O  O773  1  0.05549000  0.08695000  0.94983000  1
  O  O774  1  0.19562000  0.09541000  0.93712000  1
  O  O775  1  0.22867000  0.40773000  0.86742000  1
