# generated using pymatgen
data_H31(C23N4)2
_symmetry_space_group_name_H-M   'P 1'
_cell_length_a   76.82540000
_cell_length_b   76.82540000
_cell_length_c   76.82540000
_cell_angle_alpha   90.00000000
_cell_angle_beta   90.00000000
_cell_angle_gamma   90.00000000
_symmetry_Int_Tables_number   1
_chemical_formula_structural   H31(C23N4)2
_chemical_formula_sum   'H372 C552 N96'
_cell_volume   453434.42654925
_cell_formula_units_Z   12
loop_
 _symmetry_equiv_pos_site_id
 _symmetry_equiv_pos_as_xyz
  1  'x, y, z'
loop_
 _atom_site_type_symbol
 _atom_site_label
 _atom_site_symmetry_multiplicity
 _atom_site_fract_x
 _atom_site_fract_y
 _atom_site_fract_z
 _atom_site_occupancy
  H  73  1  0.98951400  0.34987100  0.49271200  1
  H  74  1  0.98873700  0.38094700  0.49237100  1
  H  75  1  0.03543300  0.35116000  0.52262500  1
  H  76  1  0.03439500  0.38222600  0.52303500  1
  H  77  1  0.03841500  0.40739000  0.50448900  1
  H  78  1  0.03792700  0.43843700  0.50427100  1
  H  79  1  0.98369900  0.40665800  0.51020200  1
  H  80  1  0.98326300  0.43771700  0.50929600  1
  H  81  1  0.01013100  0.44652200  0.47170500  1
  H  82  1  0.01004000  0.46943800  0.44800100  1
  H  83  1  0.01002800  0.49430000  0.49497300  1
  H  84  1  0.01040400  0.51617800  0.51615600  1
  H  85  1  0.01179100  0.44717400  0.54176500  1
  H  86  1  0.01193100  0.47089200  0.56477900  1
  H  87  1  0.03663000  0.51433400  0.57258800  1
  H  88  1  0.03669900  0.51544400  0.60372100  1
  H  89  1  0.98406500  0.49841600  0.57322700  1
  H  90  1  0.98411600  0.49938800  0.60434600  1
  H  91  1  0.00901200  0.54107500  0.56308400  1
  H  92  1  0.00898200  0.56392300  0.53943600  1
  H  93  1  0.00893800  0.53951000  0.44628500  1
  H  94  1  0.00863000  0.56329500  0.46925200  1
  H  95  1  0.98216500  0.57193200  0.51035100  1
  H  96  1  0.98148000  0.60303100  0.51032500  1
  H  97  1  0.03578300  0.57303200  0.49852000  1
  H  98  1  0.03520600  0.60415200  0.49860800  1
  H  99  1  0.02254800  0.62929600  0.48148800  1
  H  100  1  0.02190200  0.66039500  0.48195100  1
  H  101  1  0.99201300  0.65905100  0.52797800  1
  H  102  1  0.99301400  0.62809900  0.52784000  1
  H  103  1  0.03732200  0.50639800  0.43849200  1
  H  104  1  0.03752600  0.50626300  0.40744100  1
  H  105  1  0.98779700  0.51932400  0.38167200  1
  H  106  1  0.98820400  0.51931600  0.35062200  1
  H  107  1  0.03366600  0.48866800  0.35103500  1
  H  108  1  0.03300700  0.48799000  0.38209900  1
  H  109  1  0.98274000  0.50122900  0.40719100  1
  H  110  1  0.98259500  0.50204200  0.43825900  1
  H  111  1  0.99893900  0.48346100  0.63003400  1
  H  112  1  0.99825900  0.48520300  0.66114600  1
  H  113  1  0.02142600  0.53359200  0.62785600  1
  H  114  1  0.02076000  0.53518200  0.65898900  1
  H  191  1  0.48535100  0.99803700  0.34968800  1
  H  192  1  0.48367500  0.99873200  0.38080500  1
  H  193  1  0.53512200  0.02100200  0.35170900  1
  H  194  1  0.53359600  0.02168800  0.38284200  1
  H  195  1  0.51537600  0.03682300  0.40699600  1
  H  196  1  0.51450900  0.03674200  0.43813400  1
  H  197  1  0.49981800  0.98409100  0.40649000  1
  H  198  1  0.49910200  0.98402600  0.43761600  1
  H  199  1  0.47171000  0.01205000  0.44649500  1
  H  200  1  0.44800800  0.01173800  0.46935500  1
  H  201  1  0.49488800  0.00859700  0.49420500  1
  H  202  1  0.51601300  0.01162500  0.51620200  1
  H  203  1  0.54191800  0.01009200  0.44726700  1
  H  204  1  0.56477400  0.01062300  0.47104700  1
  H  205  1  0.57250200  0.03651900  0.51453700  1
  H  206  1  0.60362700  0.03652200  0.51567600  1
  H  207  1  0.57303400  0.98393400  0.49868300  1
  H  208  1  0.60415900  0.98392400  0.49966500  1
  H  209  1  0.56278800  0.00812400  0.54120400  1
  H  210  1  0.53902300  0.00815800  0.56399000  1
  H  211  1  0.44606900  0.00980100  0.53936100  1
  H  212  1  0.46899600  0.01005100  0.56320900  1
  H  213  1  0.50181200  0.98266300  0.57246200  1
  H  214  1  0.50116400  0.98275300  0.60354000  1
  H  215  1  0.50637500  0.03737500  0.57231200  1
  H  216  1  0.50638300  0.03752300  0.60336400  1
  H  217  1  0.48805300  0.03297700  0.62869200  1
  H  218  1  0.48874500  0.03359900  0.65975600  1
  H  219  1  0.51939300  0.98813700  0.66010200  1
  H  220  1  0.51937900  0.98776000  0.62904600  1
  H  221  1  0.43841500  0.03739600  0.50639600  1
  H  222  1  0.40735600  0.03762400  0.50628000  1
  H  223  1  0.38162400  0.98785800  0.51915900  1
  H  224  1  0.35057300  0.98824600  0.51920400  1
  H  225  1  0.35090900  0.03380600  0.48869800  1
  H  226  1  0.38197400  0.03317300  0.48797500  1
  H  227  1  0.40706800  0.98286900  0.50090500  1
  H  228  1  0.43813400  0.98269800  0.50168600  1
  H  229  1  0.62984200  0.99878000  0.48364700  1
  H  230  1  0.66096100  0.99813800  0.48530800  1
  H  231  1  0.62776500  0.02122000  0.53380300  1
  H  232  1  0.65890300  0.02058700  0.53531500  1
  H  309  1  0.34968900  0.48536200  0.99803400  1
  H  310  1  0.38080600  0.48368400  0.99872400  1
  H  311  1  0.35171400  0.53512000  0.02102700  1
  H  312  1  0.38284700  0.53359200  0.02170800  1
  H  313  1  0.40700600  0.51537000  0.03682900  1
  H  314  1  0.43814400  0.51451100  0.03674000  1
  H  315  1  0.40648900  0.49982900  0.98409200  1
  H  316  1  0.43761600  0.49911900  0.98401900  1
  H  317  1  0.44649900  0.47172100  0.01204700  1
  H  318  1  0.46935900  0.44801800  0.01172900  1
  H  319  1  0.49420800  0.49489900  0.00858000  1
  H  320  1  0.51620000  0.51603100  0.01160400  1
  H  321  1  0.44726900  0.54192900  0.01009500  1
  H  322  1  0.47104500  0.56478800  0.01062600  1
  H  323  1  0.51455100  0.57252700  0.03651100  1
  H  324  1  0.51568100  0.60365000  0.03652100  1
  H  325  1  0.49866200  0.57306600  0.98393900  1
  H  326  1  0.49963500  0.60419100  0.98393600  1
  H  327  1  0.54120800  0.56280900  0.00815300  1
  H  328  1  0.56399200  0.53904200  0.00818100  1
  H  329  1  0.53936700  0.44608300  0.00979700  1
  H  330  1  0.56321200  0.46901400  0.01004400  1
  H  331  1  0.57246200  0.50183000  0.98265800  1
  H  332  1  0.60353900  0.50117700  0.98275000  1
  H  333  1  0.57230900  0.50638100  0.03737000  1
  H  334  1  0.60336000  0.50638300  0.03752100  1
  H  335  1  0.62868800  0.48805300  0.03297100  1
  H  336  1  0.65975200  0.48874500  0.03359600  1
  H  337  1  0.66010300  0.51940200  0.98814000  1
  H  338  1  0.62904600  0.51939100  0.98776300  1
  H  339  1  0.50639000  0.43842400  0.03739600  1
  H  340  1  0.50627300  0.40736600  0.03762600  1
  H  341  1  0.51917100  0.38162400  0.98786600  1
  H  342  1  0.51921200  0.35057300  0.98826000  1
  H  343  1  0.48869600  0.35091900  0.03381200  1
  H  344  1  0.48797400  0.38198400  0.03317300  1
  H  345  1  0.50092300  0.40707600  0.98286900  1
  H  346  1  0.50170400  0.43814100  0.98269700  1
  H  347  1  0.48364100  0.62987600  0.99877500  1
  H  348  1  0.48529400  0.66099600  0.99814100  1
  H  349  1  0.53378800  0.62780800  0.02122700  1
  H  350  1  0.53529600  0.65894500  0.02059700  1
  H  427  1  0.49782100  0.84969800  0.98537300  1
  H  428  1  0.49855100  0.88081700  0.98363900  1
  H  429  1  0.52126500  0.85176100  0.03491800  1
  H  430  1  0.52200200  0.88289100  0.03332700  1
  H  431  1  0.53704800  0.90695800  0.01481600  1
  H  432  1  0.53704400  0.93809300  0.01390800  1
  H  433  1  0.48410400  0.90657800  0.99999300  1
  H  434  1  0.48410900  0.93770900  0.99926400  1
  H  435  1  0.51079800  0.94667000  0.97141000  1
  H  436  1  0.51005500  0.96962300  0.94784900  1
  H  437  1  0.50981300  0.99432600  0.99489300  1
  H  438  1  0.51051100  0.01617100  0.01613700  1
  H  439  1  0.51049100  0.94709800  0.04166400  1
  H  440  1  0.51086100  0.97075200  0.06465800  1
  H  441  1  0.53686300  0.01384900  0.07257800  1
  H  442  1  0.53687600  0.01499300  0.10371000  1
  H  443  1  0.48407500  0.99867500  0.07310900  1
  H  444  1  0.48407900  0.99965100  0.10423400  1
  H  445  1  0.50945400  0.04094500  0.06314200  1
  H  446  1  0.50939000  0.06386200  0.03955900  1
  H  447  1  0.50941200  0.03978300  0.94636700  1
  H  448  1  0.50921000  0.06345000  0.96940600  1
  H  449  1  0.48236100  0.07193300  0.01035100  1
  H  450  1  0.48165700  0.10303200  0.01032700  1
  H  451  1  0.53604500  0.07306600  0.99881500  1
  H  452  1  0.53544800  0.10418900  0.99891000  1
  H  453  1  0.52283100  0.12929800  0.98167400  1
  H  454  1  0.52213300  0.16039900  0.98209800  1
  H  455  1  0.49204800  0.15905900  0.02799900  1
  H  456  1  0.49310000  0.12811000  0.02790200  1
  H  457  1  0.53608000  0.99887800  0.93773500  1
  H  458  1  0.53552100  0.99885300  0.90660800  1
  H  459  1  0.49305000  0.02762600  0.88260400  1
  H  460  1  0.49203000  0.02772400  0.85165400  1
  H  461  1  0.52238700  0.98200600  0.85033700  1
  H  462  1  0.52305700  0.98158000  0.88143900  1
  H  463  1  0.48168000  0.01002600  0.90766100  1
  H  464  1  0.48234400  0.01015800  0.93875300  1
  H  465  1  0.49876900  0.98349000  0.12996500  1
  H  466  1  0.49807300  0.98526200  0.16107800  1
  H  467  1  0.52167200  0.03342900  0.12776700  1
  H  468  1  0.52097900  0.03505800  0.15890100  1
  H  545  1  0.98537100  0.49782400  0.84975700  1
  H  546  1  0.98363400  0.49855400  0.88087400  1
  H  547  1  0.03491700  0.52126500  0.85182400  1
  H  548  1  0.03332300  0.52200300  0.88295500  1
  H  549  1  0.01480000  0.53705000  0.90701500  1
  H  550  1  0.01389300  0.53704400  0.93815200  1
  H  551  1  0.99999900  0.48410000  0.90663400  1
  H  552  1  0.99927000  0.48410400  0.93776400  1
  H  553  1  0.97141000  0.51081700  0.94672200  1
  H  554  1  0.94784900  0.51007500  0.96967500  1
  H  555  1  0.99489300  0.50979600  0.99437800  1
  H  556  1  0.01613900  0.51050700  0.01622100  1
  H  557  1  0.04166200  0.51048300  0.94714600  1
  H  558  1  0.06465800  0.51085400  0.97079900  1
  H  559  1  0.07258600  0.53685500  0.01387900  1
  H  560  1  0.10371800  0.53686700  0.01501100  1
  H  561  1  0.07310700  0.48406200  0.99872800  1
  H  562  1  0.10423200  0.48406200  0.99969300  1
  H  563  1  0.06314500  0.50945600  0.04099200  1
  H  564  1  0.03956300  0.50939300  0.06391000  1
  H  565  1  0.94636900  0.50939300  0.03983600  1
  H  566  1  0.96941000  0.50919300  0.06350100  1
  H  567  1  0.01037000  0.48236500  0.07198900  1
  H  568  1  0.01034300  0.48166500  0.10308800  1
  H  569  1  0.99880200  0.53604100  0.07311400  1
  H  570  1  0.99889300  0.53544800  0.10423800  1
  H  571  1  0.98167000  0.52282600  0.12934900  1
  H  572  1  0.98208800  0.52213100  0.16045000  1
  H  573  1  0.02799600  0.49205600  0.15912100  1
  H  574  1  0.02790400  0.49310500  0.12817100  1
  H  575  1  0.93773800  0.53608400  0.99894300  1
  H  576  1  0.90661100  0.53552600  0.99890900  1
  H  577  1  0.88259600  0.49303700  0.02764100  1
  H  578  1  0.85164700  0.49202100  0.02773000  1
  H  579  1  0.85034600  0.52240700  0.98203000  1
  H  580  1  0.88144800  0.52307300  0.98161400  1
  H  581  1  0.90765800  0.48167800  0.01004500  1
  H  582  1  0.93875200  0.48234000  0.01018700  1
  H  583  1  0.12995800  0.49874300  0.98351000  1
  H  584  1  0.16107200  0.49804500  0.98527000  1
  H  585  1  0.12778400  0.52166700  0.03344100  1
  H  586  1  0.15891700  0.52096800  0.03505800  1
  H  663  1  0.84963400  0.98511400  0.49840900  1
  H  664  1  0.88074200  0.98343600  0.49912900  1
  H  665  1  0.85167900  0.03529400  0.52046400  1
  H  666  1  0.88280600  0.03377900  0.52114500  1
  H  667  1  0.90696500  0.01612200  0.53653700  1
  H  668  1  0.93809600  0.01526400  0.53649000  1
  H  669  1  0.90647900  0.99899400  0.48429200  1
  H  670  1  0.93760100  0.99822000  0.48428000  1
  H  671  1  0.94659000  0.97167200  0.51322700  1
  H  672  1  0.96951500  0.94800900  0.51291400  1
  H  673  1  0.99416400  0.99486300  0.50830300  1
  H  674  1  0.01619700  0.01606200  0.50822600  1
  H  675  1  0.94721600  0.04178500  0.50798900  1
  H  676  1  0.97104200  0.06469900  0.50809200  1
  H  677  1  0.00376000  0.07221900  0.53773100  1
  H  678  1  0.00426800  0.10326400  0.53825300  1
  H  679  1  0.00896600  0.07294300  0.48308100  1
  H  680  1  0.01010600  0.10400300  0.48355100  1
  H  681  1  0.04096800  0.06289700  0.51244100  1
  H  682  1  0.06388100  0.03921800  0.51217800  1
  H  683  1  0.03938600  0.94622300  0.50760200  1
  H  684  1  0.06320000  0.96917500  0.50725500  1
  H  685  1  0.07190500  0.01128900  0.48247100  1
  H  686  1  0.10299300  0.01126500  0.48177500  1
  H  687  1  0.07300500  0.99745200  0.53560700  1
  H  688  1  0.10412300  0.99763300  0.53505000  1
  H  689  1  0.12931100  0.98115200  0.52207600  1
  H  690  1  0.16040300  0.98164500  0.52142400  1
  H  691  1  0.15901600  0.02832900  0.49257100  1
  H  692  1  0.12808200  0.02817700  0.49362200  1
  H  693  1  0.00690200  0.93845100  0.53736900  1
  H  694  1  0.00676200  0.90739100  0.53758100  1
  H  695  1  0.01901000  0.88166800  0.48768500  1
  H  696  1  0.01903600  0.85061400  0.48807200  1
  H  697  1  0.98899600  0.85097100  0.53393900  1
  H  698  1  0.98830300  0.88203900  0.53332200  1
  H  699  1  0.00065600  0.90713600  0.48290400  1
  H  700  1  0.00141600  0.93820600  0.48274300  1
  H  701  1  0.99220900  0.12974400  0.48867700  1
  H  702  1  0.99258400  0.16082000  0.48951500  1
  H  703  1  0.02305600  0.12833700  0.53420700  1
  H  704  1  0.02270000  0.15941100  0.53530100  1
  H  715  1  0.01748000  0.52598700  0.30211600  1
  H  722  1  0.98509600  0.50244800  0.20855900  1
  H  723  1  0.03891700  0.50715000  0.21777400  1
  H  724  1  0.98864200  0.48006400  0.29439000  1
  H  726  1  0.97271200  0.50511400  0.25307400  1
  H  727  1  0.96585000  0.50283400  0.23278800  1
  H  729  1  0.02722800  0.54173600  0.27727800  1
  H  730  1  0.02273600  0.53562000  0.25712300  1
  H  733  1  0.98799300  0.49813300  0.32312600  1
  H  734  1  0.02808000  0.50152300  0.18830900  1
  H  741  1  0.98637700  0.51329800  0.70841100  1
  H  748  1  0.01326600  0.48634600  0.80241300  1
  H  749  1  0.99538400  0.53735300  0.79363600  1
  H  750  1  0.03740600  0.49551300  0.71725600  1
  H  752  1  0.01662800  0.47489600  0.75775800  1
  H  753  1  0.01948700  0.46840600  0.77807200  1
  H  755  1  0.96841000  0.51957200  0.73272500  1
  H  756  1  0.97486600  0.51672400  0.75305000  1
  H  759  1  0.02039900  0.49024700  0.68840100  1
  H  760  1  0.99010200  0.52024600  0.82246100  1
  H  767  1  0.30204700  0.01747900  0.52599100  1
  H  774  1  0.20850000  0.98509300  0.50243700  1
  H  775  1  0.21770500  0.03891300  0.50719400  1
  H  776  1  0.29431800  0.98870500  0.48002600  1
  H  778  1  0.25301800  0.97271800  0.50508200  1
  H  779  1  0.23273500  0.96585200  0.50279200  1
  H  781  1  0.27721200  0.02718500  0.54176700  1
  H  782  1  0.25705700  0.02270100  0.53564700  1
  H  785  1  0.32306600  0.98805600  0.49808500  1
  H  786  1  0.18824100  0.02810100  0.50168600  1
  H  793  1  0.70831600  0.98629500  0.51334100  1
  H  800  1  0.80225900  0.01325300  0.48629200  1
  H  801  1  0.79350600  0.99545100  0.53732900  1
  H  802  1  0.71705300  0.03731700  0.49548200  1
  H  804  1  0.75759800  0.01667500  0.47486400  1
  H  805  1  0.77791100  0.01953200  0.46837000  1
  H  807  1  0.73266900  0.96835000  0.51949700  1
  H  808  1  0.75297600  0.97484100  0.51659200  1
  H  811  1  0.68821800  0.02025500  0.49028200  1
  H  812  1  0.82231900  0.99017600  0.52024700  1
  H  819  1  0.52598100  0.30205000  0.01751400  1
  H  826  1  0.50244600  0.20850000  0.98511400  1
  H  827  1  0.50715900  0.21770500  0.03893800  1
  H  828  1  0.48003900  0.29431900  0.98870400  1
  H  830  1  0.50511000  0.25301800  0.97273900  1
  H  831  1  0.50282800  0.23273400  0.96587200  1
  H  833  1  0.54174700  0.27721300  0.02724000  1
  H  834  1  0.53563400  0.25705800  0.02274300  1
  H  837  1  0.49808100  0.32306900  0.98807100  1
  H  838  1  0.50151200  0.18824500  0.02809300  1
  H  845  1  0.51334200  0.70835300  0.98630600  1
  H  852  1  0.48634400  0.80233200  0.01329100  1
  H  853  1  0.53733400  0.79357100  0.99535700  1
  H  854  1  0.49551300  0.71713200  0.03732900  1
  H  856  1  0.47489800  0.75767600  0.01663300  1
  H  857  1  0.46841100  0.77798900  0.01951300  1
  H  859  1  0.51956400  0.73268900  0.96835500  1
  H  860  1  0.51668300  0.75300200  0.97483100  1
  H  863  1  0.49030600  0.68827600  0.02032000  1
  H  864  1  0.52021300  0.82239200  0.99009400  1
  H  871  1  0.52605400  0.01742700  0.70863800  1
  H  878  1  0.50260800  0.98492500  0.80218100  1
  H  879  1  0.50718100  0.03876600  0.79302000  1
  H  880  1  0.48018900  0.98849800  0.71636800  1
  H  882  1  0.50530400  0.97259400  0.75765300  1
  H  883  1  0.50303700  0.96570500  0.77793000  1
  H  885  1  0.54179500  0.02719100  0.73347200  1
  H  886  1  0.53568900  0.02269200  0.75362800  1
  H  889  1  0.49823700  0.98790400  0.68761900  1
  H  890  1  0.50152200  0.02787900  0.82247100  1
  H  897  1  0.51329800  0.98633000  0.30232100  1
  H  904  1  0.48633600  0.01325300  0.20834400  1
  H  905  1  0.53738100  0.99549700  0.21715600  1
  H  906  1  0.49539500  0.03733200  0.29355800  1
  H  908  1  0.47485500  0.01667100  0.25299000  1
  H  909  1  0.46838300  0.01952000  0.23267000  1
  H  911  1  0.51950300  0.96839000  0.27797400  1
  H  912  1  0.51661800  0.97487900  0.25766300  1
  H  915  1  0.49013700  0.02020500  0.32238200  1
  H  916  1  0.52028500  0.99017000  0.18833400  1
  H  923  1  0.01422300  0.30166700  0.48514000  1
  H  930  1  0.98516500  0.20895600  0.51424900  1
  H  931  1  0.03631300  0.21616200  0.49608600  1
  H  932  1  0.99614000  0.29447200  0.53631900  1
  H  934  1  0.97472800  0.25391500  0.51670100  1
  H  935  1  0.96780900  0.23382000  0.52003500  1
  H  937  1  0.01996800  0.27679800  0.46777600  1
  H  938  1  0.01664800  0.25670400  0.47470600  1
  H  941  1  0.99136100  0.32301900  0.51818000  1
  H  942  1  0.01816700  0.18761400  0.49132700  1
  H  949  1  0.00240800  0.70852200  0.48507000  1
  H  956  1  0.02594500  0.80205600  0.51754900  1
  H  957  1  0.98005500  0.79435600  0.48864900  1
  H  958  1  0.00711000  0.71769900  0.53889700  1
  H  960  1  0.03561000  0.75706200  0.52268100  1
  H  961  1  0.04172700  0.77721200  0.52720300  1
  H  963  1  0.00281300  0.73276300  0.46584100  1
  H  964  1  0.00509700  0.75304200  0.47271600  1
  H  967  1  0.00149800  0.68824000  0.52804800  1
  H  968  1  0.99803800  0.82309900  0.48807000  1
  H  975  1  0.30232800  0.51326600  0.98632600  1
  H  982  1  0.20834500  0.48636000  0.01326800  1
  H  983  1  0.21715700  0.53740200  0.99550300  1
  H  984  1  0.29355300  0.49545200  0.03735500  1
  H  986  1  0.25299200  0.47488200  0.01670800  1
  H  987  1  0.23267200  0.46840700  0.01954300  1
  H  989  1  0.27798700  0.51955100  0.96839600  1
  H  990  1  0.25767100  0.51671400  0.97488400  1
  H  993  1  0.32237800  0.49014400  0.02021600  1
  H  994  1  0.18831800  0.52036000  0.99020900  1
  H  1001  1  0.70863900  0.52604200  0.01744800  1
  H  1008  1  0.80218500  0.50258600  0.98492800  1
  H  1009  1  0.79301400  0.50720500  0.03876200  1
  H  1010  1  0.71636400  0.48020400  0.98847200  1
  H  1012  1  0.75765900  0.50528200  0.97258400  1
  H  1013  1  0.77793900  0.50300500  0.96570300  1
  H  1015  1  0.73347200  0.54181800  0.02713300  1
  H  1016  1  0.75362600  0.53572200  0.02259900  1
  H  1019  1  0.68761500  0.49822800  0.98790700  1
  H  1020  1  0.82246400  0.50150600  0.02788100  1
  C  1  1  0.01006200  0.45963000  0.47395000  1
  C  2  1  0.01002700  0.47212400  0.46102700  1
  C  3  1  0.00996000  0.48851500  0.46892000  1
  C  5  1  0.01010600  0.46807300  0.49006600  1
  C  6  1  0.01030100  0.45955200  0.50652500  1
  C  7  1  0.01042900  0.46820700  0.52287100  1
  C  9  1  0.01043000  0.48917400  0.54320700  1
  C  10  1  0.01124700  0.47310500  0.55168600  1
  C  11  1  0.01116700  0.46020400  0.53918000  1
  C  12  1  0.01023800  0.50579600  0.55134500  1
  C  13  1  0.00988100  0.52194300  0.54221400  1
  C  15  1  0.00953100  0.54239700  0.52103600  1
  C  16  1  0.00926200  0.55082600  0.53715700  1
  C  17  1  0.00931300  0.53834100  0.55007600  1
  C  18  1  0.00944000  0.55096200  0.50458200  1
  C  19  1  0.00957800  0.54230600  0.48823000  1
  C  21  1  0.00975000  0.52130500  0.46794300  1
  C  22  1  0.00930600  0.53734800  0.45940300  1
  C  23  1  0.00914100  0.55027100  0.47188800  1
  C  24  1  0.00987000  0.50467700  0.45984700  1
  C  25  1  0.00994500  0.50422600  0.44126900  1
  C  26  1  0.99423900  0.50286100  0.43183800  1
  C  27  1  0.99438200  0.50254700  0.41350600  1
  C  28  1  0.01015500  0.50364700  0.40396400  1
  C  29  1  0.02581900  0.50502600  0.41364800  1
  C  30  1  0.02575400  0.50528700  0.43197600  1
  C  31  1  0.01027600  0.50352200  0.38525100  1
  C  32  1  0.02349200  0.49479500  0.37575100  1
  C  33  1  0.02385400  0.49503000  0.35741400  1
  C  34  1  0.01077500  0.50367400  0.34789100  1
  C  35  1  0.99756300  0.51247800  0.35717200  1
  C  36  1  0.99733100  0.51237600  0.37550600  1
  C  37  1  0.00903300  0.56956200  0.50443100  1
  C  38  1  0.99340800  0.57862500  0.50784500  1
  C  39  1  0.99308500  0.59694800  0.50795600  1
  C  40  1  0.00828200  0.60681400  0.50447600  1
  C  41  1  0.02385200  0.59758900  0.50091000  1
  C  42  1  0.02426400  0.57926000  0.50096700  1
  C  43  1  0.00792800  0.62545700  0.50467200  1
  C  44  1  0.99909500  0.63466600  0.51798000  1
  C  45  1  0.99869200  0.65298800  0.51821000  1
  C  46  1  0.00715700  0.66281100  0.50512700  1
  C  47  1  0.01580700  0.65370200  0.49172800  1
  C  48  1  0.01629800  0.63536400  0.49156000  1
  C  49  1  0.01034600  0.50626100  0.56996400  1
  C  50  1  0.02549500  0.51116000  0.57917600  1
  C  51  1  0.02547000  0.51191000  0.59749400  1
  C  52  1  0.01042500  0.50749000  0.60718800  1
  C  53  1  0.99535600  0.50239600  0.59786700  1
  C  54  1  0.99525400  0.50193200  0.57954400  1
  C  55  1  0.01038100  0.50830200  0.62578800  1
  C  56  1  0.00363000  0.49445200  0.63591500  1
  C  57  1  0.00339100  0.49535400  0.65422600  1
  C  58  1  0.00982700  0.51019700  0.66298200  1
  C  59  1  0.01629100  0.52416500  0.65298400  1
  C  60  1  0.01679200  0.52313300  0.63467700  1
  C  61  1  0.01055000  0.44097100  0.50670500  1
  C  62  1  0.02642800  0.43181800  0.50547500  1
  C  63  1  0.99494800  0.43139900  0.50828600  1
  C  64  1  0.99526000  0.41307000  0.50866400  1
  C  65  1  0.01110900  0.40366700  0.50744400  1
  C  66  1  0.02666100  0.41349300  0.50579900  1
  C  67  1  0.01141700  0.38495600  0.50778100  1
  C  68  1  0.02485800  0.37570000  0.51643200  1
  C  69  1  0.02545000  0.35736900  0.51636600  1
  C  70  1  0.01236000  0.34762600  0.50799500  1
  C  71  1  0.99889100  0.35663100  0.49932200  1
  C  72  1  0.99844300  0.37496600  0.49924000  1
  C  119  1  0.47395300  0.01114300  0.45957100  1
  C  120  1  0.46101200  0.01095000  0.47203600  1
  C  121  1  0.46887200  0.01004900  0.48841300  1
  C  123  1  0.49005700  0.01019600  0.46799200  1
  C  124  1  0.50652500  0.01020800  0.45945300  1
  C  125  1  0.52284300  0.01018000  0.46820100  1
  C  127  1  0.54310300  0.01030500  0.48927400  1
  C  128  1  0.55166000  0.01045400  0.47323300  1
  C  129  1  0.53921300  0.01017100  0.46028500  1
  C  130  1  0.55119900  0.01024900  0.50592200  1
  C  131  1  0.54202000  0.01005800  0.52204200  1
  C  133  1  0.52078900  0.00994000  0.54241000  1
  C  134  1  0.53684700  0.00903500  0.55089800  1
  C  135  1  0.54980900  0.00902300  0.53845600  1
  C  136  1  0.50431900  0.01000700  0.55091300  1
  C  137  1  0.48799700  0.01002200  0.54222700  1
  C  139  1  0.46777900  0.00984500  0.52119200  1
  C  140  1  0.45919400  0.00984700  0.53722300  1
  C  141  1  0.47164600  0.01000500  0.55017700  1
  C  142  1  0.45974000  0.00988400  0.50454100  1
  C  143  1  0.44116700  0.01003300  0.50404300  1
  C  144  1  0.43172400  0.99434300  0.50257300  1
  C  145  1  0.41339400  0.99449900  0.50228400  1
  C  146  1  0.40386800  0.01027100  0.50350800  1
  C  147  1  0.41356000  0.02592200  0.50497200  1
  C  148  1  0.43188700  0.02584400  0.50520700  1
  C  149  1  0.38515800  0.01039200  0.50342600  1
  C  150  1  0.37564000  0.02363600  0.49476300  1
  C  151  1  0.35730400  0.02398300  0.49502600  1
  C  152  1  0.34780400  0.01086200  0.50363400  1
  C  153  1  0.35710600  0.99763100  0.51238500  1
  C  154  1  0.37544000  0.99742100  0.51226900  1
  C  155  1  0.50411100  0.01000900  0.56949400  1
  C  156  1  0.50273500  0.99428800  0.57890200  1
  C  157  1  0.50251500  0.99439700  0.59723600  1
  C  158  1  0.50369500  0.01015400  0.60679800  1
  C  159  1  0.50510900  0.02582900  0.59713700  1
  C  160  1  0.50528500  0.02579600  0.57881100  1
  C  161  1  0.50358900  0.01025200  0.62550800  1
  C  162  1  0.51245300  0.99729900  0.63523000  1
  C  163  1  0.51255300  0.99750200  0.65356500  1
  C  164  1  0.50375600  0.01070500  0.66286500  1
  C  165  1  0.49511300  0.02380000  0.65336200  1
  C  166  1  0.49486400  0.02345600  0.63502700  1
  C  167  1  0.56982100  0.01023700  0.50647000  1
  C  168  1  0.57906500  0.02536100  0.51139100  1
  C  169  1  0.59738200  0.02530200  0.51214700  1
  C  170  1  0.60704800  0.01023800  0.50773700  1
  C  171  1  0.59769900  0.99517600  0.50267000  1
  C  172  1  0.57937300  0.99510900  0.50220100  1
  C  173  1  0.62564700  0.01018300  0.50851400  1
  C  174  1  0.63574500  0.00345600  0.49463200  1
  C  175  1  0.65406200  0.00324600  0.49548400  1
  C  176  1  0.66284600  0.00968000  0.51031200  1
  C  177  1  0.65287500  0.01611200  0.52431300  1
  C  178  1  0.63456500  0.01657900  0.52333300  1
  C  179  1  0.50672800  0.01037800  0.44082500  1
  C  180  1  0.51137200  0.02558300  0.43157100  1
  C  181  1  0.50243700  0.99525700  0.43127400  1
  C  182  1  0.50275400  0.99536200  0.41294500  1
  C  183  1  0.50765200  0.01047300  0.40358500  1
  C  184  1  0.51198200  0.02556500  0.41324700  1
  C  185  1  0.50841200  0.01041300  0.38498200  1
  C  186  1  0.52316700  0.01694300  0.37605100  1
  C  187  1  0.52416200  0.01643300  0.35774400  1
  C  188  1  0.51023100  0.00983700  0.34778200  1
  C  189  1  0.49547100  0.00326600  0.35657900  1
  C  190  1  0.49460800  0.00351400  0.37489400  1
  C  237  1  0.45957400  0.47396400  0.01113400  1
  C  238  1  0.47204200  0.46102300  0.01097700  1
  C  239  1  0.48841800  0.46888400  0.01005300  1
  C  241  1  0.46799600  0.49006800  0.01019500  1
  C  242  1  0.45945900  0.50653700  0.01019900  1
  C  243  1  0.46820400  0.52285700  0.01017300  1
  C  245  1  0.48927600  0.54312100  0.01030500  1
  C  246  1  0.47323300  0.55167600  0.01046400  1
  C  247  1  0.46028600  0.53922700  0.01016200  1
  C  248  1  0.50592200  0.55122300  0.01024600  1
  C  249  1  0.52204100  0.54203900  0.01004300  1
  C  251  1  0.54240800  0.52080600  0.00992200  1
  C  252  1  0.55089800  0.53686400  0.00903100  1
  C  253  1  0.53845600  0.54982700  0.00899900  1
  C  254  1  0.55091100  0.50433600  0.01000000  1
  C  255  1  0.54222800  0.48801300  0.01001100  1
  C  257  1  0.52119600  0.46779200  0.00983800  1
  C  258  1  0.53722700  0.45920900  0.00984100  1
  C  259  1  0.55018000  0.47166300  0.01000000  1
  C  260  1  0.50454500  0.45975000  0.00988300  1
  C  261  1  0.50404800  0.44117600  0.01003200  1
  C  262  1  0.50258800  0.43173200  0.99434200  1
  C  263  1  0.50230400  0.41340200  0.99449800  1
  C  264  1  0.50351400  0.40387400  0.01027100  1
  C  265  1  0.50497100  0.41356900  0.02592200  1
  C  266  1  0.50520700  0.43189600  0.02584400  1
  C  267  1  0.50343000  0.38516400  0.01039400  1
  C  268  1  0.49476300  0.37564800  0.02363700  1
  C  269  1  0.49502200  0.35731300  0.02398600  1
  C  270  1  0.50363800  0.34780900  0.01087300  1
  C  271  1  0.51239200  0.35710800  0.99764100  1
  C  272  1  0.51226700  0.37544200  0.99742300  1
  C  273  1  0.56949300  0.50412700  0.01000400  1
  C  274  1  0.57890100  0.50275400  0.99428400  1
  C  275  1  0.59723500  0.50253300  0.99439400  1
  C  276  1  0.60679500  0.50370400  0.01015100  1
  C  277  1  0.59713600  0.50511100  0.02582600  1
  C  278  1  0.57880800  0.50529600  0.02579100  1
  C  279  1  0.62550700  0.50359500  0.01025000  1
  C  280  1  0.63523000  0.51245800  0.99729600  1
  C  281  1  0.65356500  0.51256000  0.99750300  1
  C  282  1  0.66286400  0.50376000  0.01070500  1
  C  283  1  0.65335900  0.49511300  0.02379800  1
  C  284  1  0.63502400  0.49486700  0.02345400  1
  C  285  1  0.50647000  0.56984500  0.01023500  1
  C  286  1  0.51139800  0.57909000  0.02535600  1
  C  287  1  0.51215700  0.59740800  0.02529900  1
  C  288  1  0.50773000  0.60707900  0.01024100  1
  C  289  1  0.50266400  0.59772900  0.99517800  1
  C  290  1  0.50219100  0.57940300  0.99511200  1
  C  291  1  0.50850000  0.62568200  0.01019200  1
  C  292  1  0.49462000  0.63578000  0.00346100  1
  C  293  1  0.49546600  0.65409900  0.00325800  1
  C  294  1  0.51028700  0.66288900  0.00970200  1
  C  295  1  0.52429100  0.65291700  0.01612700  1
  C  296  1  0.52331300  0.63460500  0.01660000  1
  C  297  1  0.44083100  0.50673900  0.01037300  1
  C  298  1  0.43157900  0.51137200  0.02558200  1
  C  299  1  0.43127500  0.50245000  0.99525300  1
  C  300  1  0.41294700  0.50276300  0.99536300  1
  C  301  1  0.40358900  0.50765500  0.01047800  1
  C  302  1  0.41325500  0.51198000  0.02556900  1
  C  303  1  0.38498600  0.50841400  0.01042300  1
  C  304  1  0.37605500  0.52316300  0.01696700  1
  C  305  1  0.35774700  0.52416000  0.01645700  1
  C  306  1  0.34778500  0.51023300  0.00985100  1
  C  307  1  0.35658000  0.49547700  0.00327100  1
  C  308  1  0.37489500  0.49461200  0.00351900  1
  C  355  1  0.51048200  0.95975500  0.97374700  1
  C  356  1  0.51010300  0.97228900  0.96087600  1
  C  357  1  0.50994500  0.98865300  0.96881700  1
  C  359  1  0.51028900  0.96810900  0.98990900  1
  C  360  1  0.51047300  0.95948500  0.00633600  1
  C  361  1  0.51051500  0.96813800  0.02270500  1
  C  363  1  0.51049100  0.98909300  0.04308800  1
  C  364  1  0.51071900  0.97300600  0.05155500  1
  C  365  1  0.51053900  0.96013000  0.03903300  1
  C  366  1  0.51041400  0.00569200  0.05128100  1
  C  367  1  0.51018000  0.02187100  0.04221000  1
  C  369  1  0.50979700  0.04238100  0.02110400  1
  C  370  1  0.50963500  0.05076900  0.03724500  1
  C  371  1  0.50971700  0.03824800  0.05012500  1
  C  372  1  0.50965300  0.05098700  0.00467900  1
  C  373  1  0.50967100  0.04237400  0.98830800  1
  C  375  1  0.50959200  0.02144200  0.96794300  1
  C  376  1  0.50947500  0.03753500  0.95947300  1
  C  377  1  0.50940400  0.05040900  0.97200100  1
  C  378  1  0.50963900  0.00484100  0.95977000  1
  C  379  1  0.50926100  0.00447400  0.94116800  1
  C  380  1  0.49361100  0.00771300  0.93208000  1
  C  381  1  0.49329900  0.00776600  0.91375800  1
  C  382  1  0.50853900  0.00442700  0.90391100  1
  C  383  1  0.52413500  0.00103300  0.91315900  1
  C  384  1  0.52453600  0.00115300  0.93149000  1
  C  385  1  0.50819400  0.00460900  0.88526300  1
  C  386  1  0.51669000  0.99157300  0.87536400  1
  C  387  1  0.51619400  0.99172400  0.85702400  1
  C  388  1  0.50739700  0.00502200  0.84790600  1
  C  389  1  0.49881300  0.01803100  0.85772100  1
  C  390  1  0.49922400  0.01781800  0.87604500  1
  C  391  1  0.50926500  0.06958500  0.00458200  1
  C  392  1  0.49361500  0.07863300  0.00791700  1
  C  393  1  0.49327800  0.09695500  0.00802000  1
  C  394  1  0.50848800  0.10682800  0.00462300  1
  C  395  1  0.52408600  0.09761600  0.00114000  1
  C  396  1  0.52451300  0.07928900  0.00120900  1
  C  397  1  0.50811200  0.12546800  0.00479800  1
  C  398  1  0.49920500  0.13467500  0.01805400  1
  C  399  1  0.49877400  0.15299600  0.01826300  1
  C  400  1  0.50728100  0.16281500  0.00520500  1
  C  401  1  0.51600200  0.15370700  0.99185300  1
  C  402  1  0.51651400  0.13536900  0.99170300  1
  C  403  1  0.51048000  0.00612200  0.06990200  1
  C  404  1  0.52567500  0.01082000  0.07914400  1
  C  405  1  0.52561600  0.01160000  0.09746000  1
  C  406  1  0.51049000  0.00739400  0.10712100  1
  C  407  1  0.49536900  0.00250800  0.09777400  1
  C  408  1  0.49530100  0.00203000  0.07945000  1
  C  409  1  0.51041700  0.00823100  0.12571500  1
  C  410  1  0.50354000  0.99444600  0.13584300  1
  C  411  1  0.50328700  0.99536900  0.15415500  1
  C  412  1  0.50983500  0.01016700  0.16290200  1
  C  413  1  0.51642000  0.02407600  0.15289900  1
  C  414  1  0.51693300  0.02302200  0.13459300  1
  C  415  1  0.51058900  0.94085400  0.00646400  1
  C  416  1  0.52582900  0.93155900  0.01090900  1
  C  417  1  0.49537300  0.93133900  0.00242700  1
  C  418  1  0.49543100  0.91300800  0.00276800  1
  C  419  1  0.51058800  0.90361100  0.00745400  1
  C  420  1  0.52576700  0.91323700  0.01154800  1
  C  421  1  0.51048700  0.88501100  0.00825200  1
  C  422  1  0.51714000  0.87609200  0.02295900  1
  C  423  1  0.51660200  0.85778500  0.02399200  1
  C  424  1  0.50985500  0.84781200  0.01014100  1
  C  425  1  0.50315600  0.85659700  0.99543100  1
  C  426  1  0.50343200  0.87491200  0.99453400  1
  C  473  1  0.97374700  0.51049600  0.95980700  1
  C  474  1  0.96087600  0.51011800  0.97234100  1
  C  475  1  0.96881700  0.50994700  0.98870500  1
  C  477  1  0.98990800  0.51029600  0.96816300  1
  C  478  1  0.00633500  0.51046800  0.95953800  1
  C  479  1  0.02270500  0.51049600  0.96819000  1
  C  481  1  0.04309000  0.51047400  0.98914300  1
  C  482  1  0.05155600  0.51068900  0.97305400  1
  C  483  1  0.03903200  0.51051900  0.96018000  1
  C  484  1  0.05128400  0.51040700  0.00574000  1
  C  485  1  0.04221200  0.51017900  0.02191900  1
  C  487  1  0.02110700  0.50979600  0.04243100  1
  C  488  1  0.03724800  0.50964000  0.05081800  1
  C  489  1  0.05012800  0.50971900  0.03829600  1
  C  490  1  0.00468200  0.50965000  0.05103800  1
  C  491  1  0.98831100  0.50967100  0.04242500  1
  C  493  1  0.96794400  0.50958500  0.02149400  1
  C  494  1  0.95947500  0.50946600  0.03758700  1
  C  495  1  0.97200400  0.50939400  0.05046100  1
  C  496  1  0.95977000  0.50963700  0.00489300  1
  C  497  1  0.94116900  0.50926100  0.00452400  1
  C  498  1  0.93208000  0.49361000  0.00775200  1
  C  499  1  0.91375600  0.49329800  0.00779500  1
  C  500  1  0.90391100  0.50854000  0.00446100  1
  C  501  1  0.91316100  0.52413600  0.00107400  1
  C  502  1  0.93149300  0.52453900  0.00121200  1
  C  503  1  0.88526400  0.50819400  0.00463500  1
  C  504  1  0.87536900  0.51670300  0.99160300  1
  C  505  1  0.85702900  0.51620500  0.99174600  1
  C  506  1  0.84790600  0.50740100  0.00503500  1
  C  507  1  0.85771700  0.49880400  0.01803900  1
  C  508  1  0.87604000  0.49921500  0.01783400  1
  C  509  1  0.00458600  0.50926500  0.06963700  1
  C  510  1  0.00793100  0.49361900  0.07868800  1
  C  511  1  0.00804000  0.49328600  0.09701000  1
  C  512  1  0.00463000  0.50849300  0.10688200  1
  C  513  1  0.00114700  0.52408800  0.09766700  1
  C  514  1  0.00120600  0.52451100  0.07933900  1
  C  515  1  0.00480200  0.50812000  0.12552300  1
  C  516  1  0.01806100  0.49921900  0.13473400  1
  C  517  1  0.01826300  0.49878400  0.15305500  1
  C  518  1  0.00520300  0.50728800  0.16287200  1
  C  519  1  0.99184900  0.51600600  0.15376000  1
  C  520  1  0.99170800  0.51652700  0.13542300  1
  C  521  1  0.06990500  0.51046800  0.00616700  1
  C  522  1  0.07915000  0.52566300  0.01085800  1
  C  523  1  0.09746600  0.52560600  0.01162500  1
  C  524  1  0.10712500  0.51047800  0.00742100  1
  C  525  1  0.09777500  0.49535700  0.00253700  1
  C  526  1  0.07945000  0.49528800  0.00207600  1
  C  527  1  0.12572000  0.51040500  0.00824800  1
  C  528  1  0.13584200  0.50352000  0.99446100  1
  C  529  1  0.15415300  0.50326700  0.99537500  1
  C  530  1  0.16290700  0.50981700  0.01016900  1
  C  531  1  0.15291200  0.51641200  0.02407800  1
  C  532  1  0.13460600  0.51693000  0.02303000  1
  C  533  1  0.00646200  0.51058500  0.94090900  1
  C  534  1  0.01090500  0.52582700  0.93161600  1
  C  535  1  0.00242900  0.49536900  0.93139400  1
  C  536  1  0.00276100  0.49543100  0.91306400  1
  C  537  1  0.00744900  0.51058600  0.90366800  1
  C  538  1  0.01154300  0.52576700  0.91329400  1
  C  539  1  0.00824700  0.51048700  0.88507000  1
  C  540  1  0.02295600  0.51714000  0.87615400  1
  C  541  1  0.02399100  0.51660200  0.85784800  1
  C  542  1  0.01014000  0.50985500  0.84787400  1
  C  543  1  0.99542700  0.50316000  0.85665700  1
  C  544  1  0.99453000  0.50343100  0.87497200  1
  C  591  1  0.95965000  0.97392500  0.51214000  1
  C  592  1  0.97215000  0.96101100  0.51197500  1
  C  593  1  0.98848000  0.96888900  0.51054200  1
  C  595  1  0.96800900  0.99002100  0.51068400  1
  C  596  1  0.95942100  0.00645700  0.51025400  1
  C  597  1  0.96813300  0.02278100  0.50977900  1
  C  599  1  0.98917400  0.04303000  0.50971800  1
  C  600  1  0.97316500  0.05158900  0.50879300  1
  C  601  1  0.96022300  0.03912500  0.50874200  1
  C  602  1  0.00579900  0.05111700  0.51010200  1
  C  603  1  0.02194100  0.04202500  0.51046100  1
  C  605  1  0.04238500  0.02089600  0.51012800  1
  C  606  1  0.05079400  0.03698000  0.51142300  1
  C  607  1  0.03830100  0.04989500  0.51159600  1
  C  608  1  0.05094400  0.00446300  0.50945600  1
  C  609  1  0.04226000  0.98813400  0.50914300  1
  C  611  1  0.02124300  0.96787900  0.50935100  1
  C  612  1  0.03725600  0.95933400  0.50828100  1
  C  613  1  0.05019100  0.97180600  0.50808300  1
  C  614  1  0.00461900  0.95979800  0.50992400  1
  C  615  1  0.00416200  0.94122100  0.51004300  1
  C  616  1  0.00247300  0.93178900  0.49436900  1
  C  617  1  0.00219300  0.91345800  0.49451700  1
  C  618  1  0.00362100  0.90392100  0.51026600  1
  C  619  1  0.00530700  0.91360400  0.52590000  1
  C  620  1  0.00555900  0.93193100  0.52582900  1
  C  621  1  0.00351900  0.88521100  0.51038300  1
  C  622  1  0.99498300  0.87569800  0.52371200  1
  C  623  1  0.99522900  0.85736100  0.52405200  1
  C  624  1  0.00369500  0.84785200  0.51084400  1
  C  625  1  0.01231800  0.85715100  0.49752500  1
  C  626  1  0.01221500  0.87548500  0.49731800  1
  C  627  1  0.06953900  0.00433300  0.50909100  1
  C  628  1  0.07859700  0.00837600  0.49361700  1
  C  629  1  0.09691900  0.00848100  0.49329100  1
  C  630  1  0.10679300  0.00445500  0.50835000  1
  C  631  1  0.09756300  0.00032300  0.52378000  1
  C  632  1  0.07923500  0.00032300  0.52418700  1
  C  633  1  0.12544200  0.00466500  0.50799300  1
  C  634  1  0.13464800  0.01817100  0.49946100  1
  C  635  1  0.15296800  0.01840700  0.49903100  1
  C  636  1  0.16280200  0.00513900  0.50718900  1
  C  637  1  0.15370300  0.99155200  0.51555100  1
  C  638  1  0.13536500  0.99136300  0.51604300  1
  C  639  1  0.00628100  0.06969100  0.51036000  1
  C  640  1  0.00508000  0.07883700  0.52624400  1
  C  641  1  0.00556300  0.09715700  0.52649800  1
  C  642  1  0.00731400  0.10697800  0.51095700  1
  C  643  1  0.00851100  0.09758500  0.49510200  1
  C  644  1  0.00800500  0.07925900  0.49477100  1
  C  645  1  0.00771400  0.12568300  0.51128100  1
  C  646  1  0.99912900  0.13570200  0.49836200  1
  C  647  1  0.99923200  0.15403500  0.49884700  1
  C  648  1  0.00796900  0.16300200  0.51230100  1
  C  649  1  0.01639600  0.15322700  0.52532900  1
  C  650  1  0.01643600  0.13489700  0.52470400  1
  C  651  1  0.94079700  0.00664000  0.51039000  1
  C  652  1  0.93153800  0.01178400  0.52542900  1
  C  653  1  0.93125300  0.00189500  0.49540100  1
  C  654  1  0.91292400  0.00225300  0.49547900  1
  C  655  1  0.90355300  0.00761300  0.51042900  1
  C  656  1  0.91321600  0.01238700  0.52538700  1
  C  657  1  0.88494500  0.00838800  0.51034200  1
  C  658  1  0.87601600  0.02326400  0.51659900  1
  C  659  1  0.85770700  0.02425200  0.51608800  1
  C  660  1  0.84773600  0.01020600  0.50975600  1
  C  661  1  0.85652800  0.99532900  0.50344500  1
  C  662  1  0.87484300  0.99446400  0.50370300  1
  C  709  1  0.00302900  0.50265300  0.30145800  1
  C  710  1  0.99562000  0.49046900  0.28990000  1
  C  712  1  0.00605700  0.50597600  0.26485500  1
  C  713  1  0.01398000  0.51872900  0.27576400  1
  C  714  1  0.01234100  0.51669200  0.29405400  1
  C  716  1  0.00692500  0.50594500  0.24635300  1
  C  717  1  0.99230600  0.50425500  0.23505400  1
  C  718  1  0.99545300  0.50368600  0.21685400  1
  C  719  1  0.01244600  0.50484100  0.20982200  1
  C  720  1  0.02627000  0.50637400  0.22184500  1
  C  731  1  0.01595800  0.50411800  0.19202800  1
  C  732  1  0.99990100  0.50144000  0.31920600  1
  C  735  1  0.01231000  0.50440300  0.70962700  1
  C  736  1  0.02565800  0.50012600  0.72147600  1
  C  738  1  0.00779800  0.50719500  0.74616100  1
  C  739  1  0.99378700  0.51191300  0.73491800  1
  C  740  1  0.99646100  0.51053000  0.71668600  1
  C  742  1  0.00714400  0.50781500  0.76469400  1
  C  743  1  0.01187500  0.49379100  0.77591600  1
  C  744  1  0.01047800  0.49643600  0.79415300  1
  C  745  1  0.00431600  0.51226100  0.80123200  1
  C  746  1  0.00001700  0.52561800  0.78940000  1
  C  757  1  0.00106600  0.51431400  0.81888900  1
  C  758  1  0.01439200  0.50116900  0.69197000  1
  C  761  1  0.30138700  0.00306400  0.50263200  1
  C  762  1  0.28982900  0.99566400  0.49044400  1
  C  764  1  0.26478700  0.00607000  0.50597400  1
  C  765  1  0.27569500  0.01397500  0.51874000  1
  C  766  1  0.29398300  0.01234100  0.51669600  1
  C  768  1  0.24628700  0.00692800  0.50595600  1
  C  769  1  0.23499300  0.99230700  0.50424600  1
  C  770  1  0.21679200  0.99545200  0.50368400  1
  C  771  1  0.20975700  0.01244300  0.50485800  1
  C  772  1  0.22177700  0.02626700  0.50640300  1
  C  783  1  0.19196100  0.01595600  0.50416100  1
  C  784  1  0.31913400  0.99995300  0.50141100  1
  C  787  1  0.70947500  0.01222500  0.50442800  1
  C  788  1  0.72129800  0.02558300  0.50011100  1
  C  790  1  0.74601900  0.00777100  0.50716300  1
  C  791  1  0.73480800  0.99374400  0.51190700  1
  C  792  1  0.71656900  0.99639300  0.51056000  1
  C  794  1  0.76455000  0.00715200  0.50778100  1
  C  795  1  0.77576700  0.01187900  0.49375200  1
  C  796  1  0.79400400  0.01050000  0.49639400  1
  C  797  1  0.80109200  0.00437500  0.51223200  1
  C  798  1  0.78926600  0.00008100  0.52559400  1
  C  809  1  0.81874700  0.00111800  0.51427600  1
  C  810  1  0.69181300  0.01427400  0.50121000  1
  C  813  1  0.50263600  0.30138900  0.00308000  1
  C  814  1  0.49045400  0.28983100  0.99567100  1
  C  816  1  0.50597700  0.26479000  0.00608600  1
  C  817  1  0.51873300  0.27569800  0.01400500  1
  C  818  1  0.51668700  0.29398600  0.01237700  1
  C  820  1  0.50595000  0.24629000  0.00695100  1
  C  821  1  0.50425600  0.23499400  0.99232800  1
  C  822  1  0.50368700  0.21679300  0.99547300  1
  C  823  1  0.50484300  0.20976000  0.01246600  1
  C  824  1  0.50638100  0.22177800  0.02629100  1
  C  835  1  0.50411800  0.19196600  0.01597400  1
  C  836  1  0.50140800  0.31913700  0.99996900  1
  C  839  1  0.50442400  0.70953200  0.01223200  1
  C  840  1  0.50012700  0.72136700  0.02558600  1
  C  842  1  0.50719200  0.74607900  0.00775900  1
  C  843  1  0.51192600  0.73485200  0.99373900  1
  C  844  1  0.51055800  0.71661400  0.99639600  1
  C  846  1  0.50780900  0.76461500  0.00712500  1
  C  847  1  0.49379100  0.77583700  0.01187700  1
  C  848  1  0.49643300  0.79407600  0.01049100  1
  C  849  1  0.51225100  0.80116200  0.00431600  1
  C  850  1  0.52560300  0.78933300  0.00000000  1
  C  861  1  0.51429700  0.81882100  0.00106600  1
  C  862  1  0.50121600  0.69186600  0.01429900  1
  C  865  1  0.50274600  0.00293100  0.70929500  1
  C  866  1  0.49058400  0.99549300  0.72085700  1
  C  868  1  0.50607700  0.00595300  0.74590200  1
  C  869  1  0.51881400  0.01390100  0.73499000  1
  C  870  1  0.51677700  0.01225800  0.71670000  1
  C  872  1  0.50606300  0.00680000  0.76440600  1
  C  873  1  0.50440200  0.99216500  0.77569300  1
  C  874  1  0.50382800  0.99529300  0.79389700  1
  C  875  1  0.50494000  0.01228200  0.80094600  1
  C  876  1  0.50643900  0.02612000  0.78893700  1
  C  887  1  0.50419400  0.01577600  0.81874600  1
  C  888  1  0.50153600  0.99981000  0.69154600  1
  C  891  1  0.50435800  0.01225000  0.30114600  1
  C  892  1  0.50004200  0.02560400  0.28932000  1
  C  894  1  0.50714900  0.00779900  0.26460900  1
  C  895  1  0.51189200  0.99377700  0.27582700  1
  C  896  1  0.51051700  0.99642500  0.29406400  1
  C  898  1  0.50779000  0.00718100  0.24607700  1
  C  899  1  0.49376900  0.01189300  0.23484500  1
  C  900  1  0.49643500  0.01051300  0.21661200  1
  C  901  1  0.51228500  0.00440200  0.20954300  1
  C  902  1  0.52563900  0.00012100  0.22138400  1
  C  913  1  0.51434200  0.00113100  0.19189400  1
  C  914  1  0.50111200  0.01429600  0.31880300  1
  C  917  1  0.00526200  0.30127500  0.51107200  1
  C  918  1  0.00069200  0.28986000  0.52469500  1
  C  920  1  0.00725600  0.26459100  0.50746000  1
  C  921  1  0.01224400  0.27538300  0.49318800  1
  C  922  1  0.01125700  0.29370000  0.49541400  1
  C  924  1  0.00746700  0.24603600  0.50725400  1
  C  925  1  0.99320600  0.23524100  0.51226700  1
  C  926  1  0.99543600  0.21692300  0.51128000  1
  C  927  1  0.01108100  0.20935400  0.50524300  1
  C  928  1  0.02469400  0.22077200  0.50065300  1
  C  939  1  0.01268800  0.19159000  0.50238700  1
  C  940  1  0.00241400  0.31903900  0.51268800  1
  C  943  1  0.00479400  0.70976500  0.51242300  1
  C  944  1  0.00633500  0.72177800  0.52625300  1
  C  946  1  0.00591000  0.74630300  0.50692600  1
  C  947  1  0.00422600  0.73501100  0.49229800  1
  C  948  1  0.00364800  0.71681000  0.49543400  1
  C  950  1  0.00594600  0.76480600  0.50607100  1
  C  951  1  0.01869800  0.77570900  0.51400600  1
  C  952  1  0.01665900  0.79400000  0.51238600  1
  C  953  1  0.00263400  0.80141300  0.50305900  1
  C  954  1  0.99045700  0.78986100  0.49562900  1
  C  965  1  0.00141300  0.81916800  0.49995400  1
  C  966  1  0.00406400  0.69196500  0.51592200  1
  C  969  1  0.30114900  0.50437000  0.01226100  1
  C  970  1  0.28931700  0.50008100  0.02561900  1
  C  972  1  0.26461000  0.50716800  0.00780000  1
  C  973  1  0.27583200  0.51189000  0.99377400  1
  C  974  1  0.29406700  0.51048700  0.99641800  1
  C  976  1  0.24607900  0.50780700  0.00717400  1
  C  977  1  0.23484700  0.49378700  0.01189100  1
  C  978  1  0.21661300  0.49644600  0.01049300  1
  C  979  1  0.20954500  0.51229500  0.00437900  1
  C  980  1  0.22138500  0.52565200  0.00010500  1
  C  991  1  0.19189000  0.51436900  0.00114000  1
  C  992  1  0.31880300  0.50111800  0.01430600  1
  C  995  1  0.70929400  0.50274800  0.00293000  1
  C  996  1  0.72085300  0.49059200  0.99547800  1
  C  998  1  0.74590000  0.50607700  0.00594400  1
  C  999  1  0.73499000  0.51880900  0.01390300  1
  C  1000  1  0.71669900  0.51676000  0.01228400  1
  C  1002  1  0.76440500  0.50606200  0.00679200  1
  C  1003  1  0.77569500  0.50438900  0.99216100  1
  C  1004  1  0.79389900  0.50381600  0.99529300  1
  C  1005  1  0.80094500  0.50494600  0.01228100  1
  C  1006  1  0.78893300  0.50645600  0.02611700  1
  C  1017  1  0.81874300  0.50419100  0.01577900  1
  C  1018  1  0.69154500  0.50153500  0.99981100  1
  N  4  1  0.01000300  0.48532500  0.48629100  1
  N  8  1  0.01001200  0.48552800  0.52598700  1
  N  14  1  0.00994500  0.52514500  0.52483400  1
  N  20  1  0.00988000  0.52497700  0.48515800  1
  N  115  1  0.01190000  0.50412200  0.33058600  1
  N  116  1  0.01362600  0.33035000  0.50750000  1
  N  117  1  0.00900100  0.51183300  0.68022700  1
  N  118  1  0.00710300  0.68019200  0.50437200  1
  N  122  1  0.48624400  0.00955700  0.48523300  1
  N  126  1  0.52588800  0.01019700  0.48554900  1
  N  132  1  0.52463900  0.01055300  0.52517800  1
  N  138  1  0.48498400  0.00992900  0.52488900  1
  N  233  1  0.33050000  0.01196600  0.50409600  1
  N  234  1  0.51184200  0.00901200  0.33053400  1
  N  235  1  0.68009700  0.00888500  0.51190500  1
  N  236  1  0.50420700  0.01181700  0.68017200  1
  N  240  1  0.48523800  0.48625600  0.00956500  1
  N  244  1  0.48555300  0.52590500  0.01019200  1
  N  250  1  0.52517600  0.52465800  0.01053000  1
  N  256  1  0.52488900  0.48499700  0.00992100  1
  N  351  1  0.50410000  0.33050400  0.01197800  1
  N  352  1  0.33053800  0.51184800  0.00902400  1
  N  353  1  0.51188700  0.68014000  0.00888500  1
  N  354  1  0.68016900  0.50421200  0.01181700  1
  N  358  1  0.51003700  0.98538200  0.98618300  1
  N  362  1  0.51042600  0.98546700  0.02585300  1
  N  368  1  0.51018300  0.02511800  0.02484200  1
  N  374  1  0.50975600  0.02505000  0.98517300  1
  N  469  1  0.50734300  0.00425600  0.83052200  1
  N  470  1  0.50901300  0.83056600  0.01178300  1
  N  471  1  0.50901500  0.01182200  0.18014400  1
  N  472  1  0.50721200  0.18019400  0.00444000  1
  N  476  1  0.98618300  0.51003300  0.98543400  1
  N  480  1  0.02585400  0.51041200  0.98551800  1
  N  486  1  0.02484500  0.51017800  0.02516700  1
  N  492  1  0.98517400  0.50975600  0.02510100  1
  N  587  1  0.83052200  0.50735000  0.00426500  1
  N  588  1  0.01177900  0.50901300  0.83063000  1
  N  589  1  0.18015000  0.50898800  0.01181300  1
  N  590  1  0.00442700  0.50721200  0.18025200  1
  N  594  1  0.98524800  0.98624100  0.50982100  1
  N  598  1  0.98546700  0.02582900  0.51030900  1
  N  604  1  0.02513600  0.02467400  0.50966900  1
  N  610  1  0.02493800  0.98508000  0.50987700  1
  N  705  1  0.00415100  0.83054300  0.51194600  1
  N  706  1  0.83048700  0.01181200  0.50893400  1
  N  707  1  0.00749300  0.18027500  0.51359300  1
  N  708  1  0.18018300  0.00438900  0.50711300  1
  N  711  1  0.99748600  0.49249100  0.27248300  1
  N  721  1  0.02307100  0.50677000  0.23917100  1
  N  725  1  0.97558500  0.50368100  0.24085800  1
  N  728  1  0.02229800  0.53304600  0.26948100  1
  N  737  1  0.02296900  0.50174200  0.73883100  1
  N  747  1  0.00165700  0.52296400  0.77204300  1
  N  751  1  0.01684400  0.47783900  0.77003200  1
  N  754  1  0.97780900  0.51683200  0.74077400  1
  N  763  1  0.27241100  0.99752000  0.49247500  1
  N  773  1  0.23910300  0.02307100  0.50679300  1
  N  777  1  0.24080100  0.97558900  0.50365200  1
  N  780  1  0.26941500  0.02226800  0.53307100  1
  N  789  1  0.73865900  0.02292500  0.50170200  1
  N  799  1  0.77190600  0.00169100  0.52293600  1
  N  803  1  0.76987900  0.01678900  0.47778300  1
  N  806  1  0.74070300  0.97778600  0.51684200  1
  N  815  1  0.49248200  0.27241400  0.99752800  1
  N  825  1  0.50677800  0.23910600  0.02309500  1
  N  829  1  0.50368000  0.24080100  0.97560900  1
  N  832  1  0.53305500  0.26941600  0.02231200  1
  N  841  1  0.50173200  0.73872800  0.02291800  1
  N  851  1  0.52295200  0.77197200  0.00162900  1
  N  855  1  0.47784300  0.76995000  0.01685600  1
  N  858  1  0.51685200  0.74072600  0.97777000  1
  N  867  1  0.49260800  0.99735700  0.73827500  1
  N  877  1  0.50684400  0.02294000  0.77160500  1
  N  881  1  0.50386500  0.97545100  0.76987200  1
  N  884  1  0.53311500  0.02224500  0.74127000  1
  N  893  1  0.50166200  0.02294700  0.27195900  1
  N  903  1  0.52296000  0.00173100  0.23874000  1
  N  907  1  0.47778900  0.01678700  0.24071300  1
  N  910  1  0.51685000  0.97782400  0.26993700  1
  N  919  1  0.00193400  0.27241100  0.52243400  1
  N  929  1  0.02243400  0.23821900  0.50190700  1
  N  933  1  0.97738600  0.24158200  0.51709200  1
  N  936  1  0.01704200  0.26903700  0.47736200  1
  N  945  1  0.00673600  0.73910700  0.52306600  1
  N  955  1  0.99247100  0.77244100  0.49749000  1
  N  959  1  0.03299200  0.76941500  0.52235300  1
  N  962  1  0.00365700  0.74082500  0.47558100  1
  N  971  1  0.27195800  0.50170000  0.02295700  1
  N  981  1  0.23874100  0.52297500  0.00172400  1
  N  985  1  0.24071500  0.47781300  0.01680700  1
  N  988  1  0.26995200  0.51681300  0.97780700  1
  N  997  1  0.73827300  0.49261400  0.99734100  1
  N  1007  1  0.77160300  0.50685700  0.02293300  1
  N  1011  1  0.76987700  0.50384000  0.97544500  1
  N  1014  1  0.74127600  0.53309700  0.02226800  1
