# generated using pymatgen
data_H28C43(N2O)4
_symmetry_space_group_name_H-M   'P 1'
_cell_length_a   32.36660000
_cell_length_b   66.20795000
_cell_length_c   66.20760000
_cell_angle_alpha   119.99947538
_cell_angle_beta   90.00260000
_cell_angle_gamma   90.00000003
_symmetry_Int_Tables_number   1
_chemical_formula_structural   H28C43(N2O)4
_chemical_formula_sum   'H336 C516 N96 O48'
_cell_volume   122870.60417057
_cell_formula_units_Z   12
loop_
 _symmetry_equiv_pos_site_id
 _symmetry_equiv_pos_as_xyz
  1  'x, y, z'
loop_
 _atom_site_type_symbol
 _atom_site_label
 _atom_site_symmetry_multiplicity
 _atom_site_fract_x
 _atom_site_fract_y
 _atom_site_fract_z
 _atom_site_occupancy
  H  25  1  0.85513400  0.96267500  0.32493700  1
  H  26  1  0.78247300  0.96752200  0.32311000  1
  H  27  1  0.70735900  0.96736300  0.32294800  1
  H  28  1  0.63473400  0.96219500  0.32444800  1
  H  29  1  0.65577100  0.89602200  0.31803900  1
  H  30  1  0.83477600  0.89644900  0.31854400  1
  H  31  1  0.74839700  0.88038900  0.26586600  1
  H  32  1  0.74930200  0.80975900  0.24964500  1
  H  33  1  0.74612000  0.82192100  0.28991100  1
  H  34  1  0.74463800  0.92448500  0.36768300  1
  H  35  1  0.74316200  0.83991600  0.33153600  1
  H  36  1  0.74250500  0.86308400  0.37276600  1
  H  42  1  0.90808800  0.91164200  0.31364100  1
  H  43  1  0.58218600  0.91099000  0.31334500  1
  H  44  1  0.74319400  0.92689600  0.40731200  1
  H  45  1  0.76541100  0.84483500  0.22348200  1
  H  70  1  0.85514900  0.30511100  0.98298300  1
  H  71  1  0.78250900  0.29837900  0.97810400  1
  H  72  1  0.70739500  0.29832400  0.97822900  1
  H  73  1  0.63474300  0.30487600  0.98340700  1
  H  74  1  0.65559200  0.36462900  0.04962100  1
  H  75  1  0.83460800  0.36496200  0.04917000  1
  H  76  1  0.74836200  0.32825000  0.06521600  1
  H  77  1  0.74928800  0.38266300  0.13584500  1
  H  78  1  0.74603100  0.41076300  0.12368200  1
  H  79  1  0.74448400  0.38595900  0.02111200  1
  H  80  1  0.74311000  0.43439300  0.10568300  1
  H  81  1  0.74245200  0.45244700  0.08250700  1
  H  87  1  0.90797900  0.34521500  0.03408700  1
  H  88  1  0.58209300  0.34481900  0.03460200  1
  H  89  1  0.74308100  0.42317400  0.01869500  1
  H  90  1  0.76532500  0.32139400  0.10073000  1
  H  115  1  0.85514300  0.62077300  0.64067900  1
  H  116  1  0.78246800  0.62255600  0.64729700  1
  H  117  1  0.70735900  0.62272200  0.64727200  1
  H  118  1  0.63474000  0.62125700  0.64059900  1
  H  119  1  0.65585800  0.62763300  0.58082100  1
  H  120  1  0.83489500  0.62714400  0.58082500  1
  H  121  1  0.74842700  0.67973100  0.61735800  1
  H  122  1  0.74945400  0.69595600  0.56295000  1
  H  123  1  0.74632200  0.65569100  0.53484300  1
  H  124  1  0.74472800  0.57791700  0.55963400  1
  H  125  1  0.74341400  0.61406400  0.51120900  1
  H  126  1  0.74274200  0.57283400  0.49314800  1
  H  132  1  0.90820500  0.63208300  0.60098700  1
  H  133  1  0.58231000  0.63227200  0.60036200  1
  H  134  1  0.74332800  0.53828700  0.52241600  1
  H  135  1  0.76507500  0.72212800  0.62429800  1
  H  160  1  0.35512800  0.96287200  0.64061400  1
  H  161  1  0.28247300  0.95801900  0.64245700  1
  H  162  1  0.20733000  0.95815600  0.64257400  1
  H  163  1  0.13470300  0.96335300  0.64112900  1
  H  164  1  0.15575200  0.02956800  0.64763100  1
  H  165  1  0.33470500  0.02910200  0.64703000  1
  H  166  1  0.24848400  0.04514500  0.69973300  1
  H  167  1  0.24918800  0.11578500  0.71598500  1
  H  168  1  0.24594100  0.10364000  0.67572600  1
  H  169  1  0.24460300  0.00108400  0.59792700  1
  H  170  1  0.24305800  0.08565700  0.63409700  1
  H  171  1  0.24240600  0.06249700  0.59286500  1
  H  177  1  0.40809600  0.01391100  0.65188800  1
  H  178  1  0.08222000  0.01466200  0.65216100  1
  H  179  1  0.24315400  0.99868500  0.55830400  1
  H  180  1  0.26548000  0.08064800  0.74210100  1
  H  205  1  0.35514000  0.62056100  0.98263000  1
  H  206  1  0.28249100  0.62726200  0.98751100  1
  H  207  1  0.20739200  0.62731100  0.98737800  1
  H  208  1  0.13474000  0.62073300  0.98221700  1
  H  209  1  0.15558500  0.56093600  0.91603800  1
  H  210  1  0.33464100  0.56069100  0.91644800  1
  H  211  1  0.24841900  0.59734200  0.90041700  1
  H  212  1  0.24927200  0.54292300  0.82979000  1
  H  213  1  0.24599000  0.51482700  0.84195800  1
  H  214  1  0.24452900  0.53964000  0.94452800  1
  H  215  1  0.24308000  0.49120400  0.85996000  1
  H  216  1  0.24245300  0.47315000  0.88313400  1
  H  222  1  0.40799100  0.58047400  0.93154400  1
  H  223  1  0.08206500  0.58094200  0.93109700  1
  H  224  1  0.24312000  0.50242300  0.94694600  1
  H  225  1  0.26556300  0.60415000  0.86486600  1
  H  250  1  0.35513400  0.30490000  0.32502600  1
  H  251  1  0.28247300  0.30305400  0.31835100  1
  H  252  1  0.20735200  0.30284700  0.31833400  1
  H  253  1  0.13472400  0.30431300  0.32499200  1
  H  254  1  0.15578600  0.29794100  0.38477800  1
  H  255  1  0.33479800  0.29854000  0.38487900  1
  H  256  1  0.24837600  0.24584800  0.34826000  1
  H  257  1  0.24941400  0.22961500  0.40266100  1
  H  258  1  0.24626800  0.26988200  0.43077300  1
  H  259  1  0.24467400  0.34766200  0.40599100  1
  H  260  1  0.24335200  0.31150700  0.45440800  1
  H  261  1  0.24269100  0.35273700  0.47247300  1
  H  267  1  0.40815200  0.29363100  0.36475700  1
  H  268  1  0.08224700  0.29322900  0.36512600  1
  H  269  1  0.24328400  0.38728900  0.44321200  1
  H  270  1  0.26523600  0.20346000  0.34137200  1
  H  295  1  0.13490400  0.62695100  0.65185700  1
  H  296  1  0.20745100  0.63406200  0.65489900  1
  H  297  1  0.28211400  0.63407800  0.65469900  1
  H  298  1  0.35467400  0.62696500  0.65121000  1
  H  299  1  0.33492800  0.56193700  0.64767400  1
  H  300  1  0.15534100  0.56202800  0.64843300  1
  H  301  1  0.24715800  0.59642100  0.70278900  1
  H  302  1  0.25149000  0.53898100  0.71430900  1
  H  303  1  0.24877100  0.51274300  0.67333100  1
  H  304  1  0.24259200  0.54562800  0.60138900  1
  H  305  1  0.24538500  0.49136900  0.63075800  1
  H  306  1  0.24305800  0.47653000  0.58972400  1
  H  312  1  0.08036300  0.58279600  0.65449000  1
  H  313  1  0.40958800  0.58262400  0.65355300  1
  H  314  1  0.23607300  0.51130200  0.56101400  1
  H  315  1  0.26493000  0.60041500  0.74393500  1
  H  340  1  0.13485400  0.29366600  0.97791400  1
  H  341  1  0.20740700  0.29062800  0.98196100  1
  H  342  1  0.28208300  0.29086200  0.98217700  1
  H  343  1  0.35463600  0.29437400  0.97854100  1
  H  344  1  0.33480100  0.29795200  0.91708100  1
  H  345  1  0.15521500  0.29718400  0.91645900  1
  H  346  1  0.24701900  0.24282700  0.89645100  1
  H  347  1  0.25160700  0.23134500  0.82751100  1
  H  348  1  0.24887600  0.27232300  0.84226300  1
  H  349  1  0.24240000  0.34423500  0.94708700  1
  H  350  1  0.24535700  0.31488400  0.86346500  1
  H  351  1  0.24297200  0.35591500  0.88966300  1
  H  357  1  0.08029500  0.29127600  0.93116300  1
  H  358  1  0.40951100  0.29191500  0.93187700  1
  H  359  1  0.23558500  0.38460200  0.95311600  1
  H  360  1  0.26490500  0.20168000  0.85926100  1
  H  385  1  0.13478300  0.96774200  0.31865800  1
  H  386  1  0.20731800  0.96368500  0.31152100  1
  H  387  1  0.28198100  0.96346700  0.31148000  1
  H  388  1  0.35454100  0.96704300  0.31860300  1
  H  389  1  0.33485100  0.02848700  0.38367600  1
  H  390  1  0.15527000  0.02919900  0.38361100  1
  H  391  1  0.24707500  0.04919700  0.34922200  1
  H  392  1  0.25159800  0.11813600  0.40668800  1
  H  393  1  0.24887600  0.10337200  0.43290600  1
  H  394  1  0.24246500  0.99854000  0.39997100  1
  H  395  1  0.24536900  0.08215900  0.45425500  1
  H  396  1  0.24300000  0.05595500  0.46908000  1
  H  402  1  0.08028500  0.01451100  0.36292600  1
  H  403  1  0.40947400  0.01367700  0.36302100  1
  H  404  1  0.23584100  0.99248600  0.43430200  1
  H  405  1  0.26479100  0.08634100  0.34522500  1
  H  430  1  0.63491300  0.29859200  0.31371400  1
  H  431  1  0.70746400  0.29148900  0.31065600  1
  H  432  1  0.78214200  0.29149900  0.31088400  1
  H  433  1  0.85469600  0.29863500  0.31438800  1
  H  434  1  0.83489100  0.36367000  0.31795400  1
  H  435  1  0.65530800  0.36354500  0.31719500  1
  H  436  1  0.74707400  0.32919500  0.26282500  1
  H  437  1  0.75158300  0.38666800  0.25136200  1
  H  438  1  0.74886100  0.41288300  0.29234200  1
  H  439  1  0.74258700  0.37993500  0.36423100  1
  H  440  1  0.74539300  0.43423100  0.33490800  1
  H  441  1  0.74308700  0.44904800  0.37593800  1
  H  447  1  0.58038500  0.34292500  0.31127300  1
  H  448  1  0.90957600  0.34296200  0.31204000  1
  H  449  1  0.73619000  0.41424000  0.40461600  1
  H  450  1  0.76490000  0.32524500  0.22168100  1
  H  475  1  0.63482700  0.63188700  0.98772900  1
  H  476  1  0.70737100  0.63495900  0.98368500  1
  H  477  1  0.78205400  0.63476100  0.98347700  1
  H  478  1  0.85460800  0.63122400  0.98708500  1
  H  479  1  0.83483000  0.62763000  0.04854100  1
  H  480  1  0.65525200  0.62840600  0.04920100  1
  H  481  1  0.74702700  0.68277300  0.06920000  1
  H  482  1  0.75165700  0.69424600  0.13813900  1
  H  483  1  0.74892700  0.65326800  0.12338100  1
  H  484  1  0.74238000  0.58136100  0.01855800  1
  H  485  1  0.74540600  0.61071300  0.10218200  1
  H  486  1  0.74297300  0.56968300  0.07598500  1
  H  492  1  0.58029200  0.63437300  0.03450300  1
  H  493  1  0.90948400  0.63349800  0.03375300  1
  H  494  1  0.73543100  0.54099400  0.01254200  1
  H  495  1  0.76466400  0.72392900  0.10633300  1
  H  520  1  0.63481100  0.95784400  0.64702300  1
  H  521  1  0.70735700  0.96188500  0.65413100  1
  H  522  1  0.78201300  0.96213400  0.65411200  1
  H  523  1  0.85456400  0.95853200  0.64697300  1
  H  524  1  0.83479000  0.89707200  0.58192500  1
  H  525  1  0.65520900  0.89640300  0.58204500  1
  H  526  1  0.74703000  0.87638800  0.61640400  1
  H  527  1  0.75155700  0.80745100  0.55894100  1
  H  528  1  0.74883200  0.82221100  0.53272000  1
  H  529  1  0.74243500  0.92704500  0.56565600  1
  H  530  1  0.74535800  0.84342600  0.51136900  1
  H  531  1  0.74300000  0.86963300  0.49654500  1
  H  537  1  0.58023700  0.91111800  0.60282800  1
  H  538  1  0.90944500  0.91186100  0.60256500  1
  H  539  1  0.73590300  0.93310600  0.53133200  1
  H  540  1  0.76477800  0.83924900  0.62040100  1
  H  548  1  0.74513100  0.86824700  0.42398600  1
  H  553  1  0.70504200  0.98282300  0.53230700  1
  H  554  1  0.75293500  0.99594600  0.53218000  1
  H  555  1  0.73131200  0.97296900  0.56094700  1
  H  556  1  0.74193200  0.00276100  0.57120900  1
  H  557  1  0.78209000  0.98182600  0.55860900  1
  H  567  1  0.74527800  0.49849100  0.07734200  1
  H  572  1  0.70498000  0.49266200  0.96304600  1
  H  573  1  0.75253700  0.47902900  0.94973500  1
  H  574  1  0.73224100  0.53094000  0.97274600  1
  H  575  1  0.74227600  0.51128600  0.94291400  1
  H  576  1  0.78270100  0.51930600  0.96365400  1
  H  586  1  0.74523200  0.52160000  0.44708800  1
  H  591  1  0.70527100  0.41333700  0.45362000  1
  H  592  1  0.75343700  0.41340300  0.46660300  1
  H  593  1  0.73092700  0.38469500  0.41497500  1
  H  594  1  0.74199200  0.37439100  0.43442600  1
  H  595  1  0.78191500  0.38694700  0.42588900  1
  H  605  1  0.24510100  0.05734000  0.54164200  1
  H  610  1  0.20490800  0.94294300  0.43329600  1
  H  611  1  0.25256500  0.92964000  0.43346500  1
  H  612  1  0.23166100  0.95265900  0.40464500  1
  H  613  1  0.24189100  0.92283700  0.39442500  1
  H  614  1  0.28225900  0.94362800  0.40704200  1
  H  624  1  0.24529500  0.42710200  0.88830000  1
  H  629  1  0.20510600  0.43317400  0.00279300  1
  H  630  1  0.25292000  0.44656300  0.01591600  1
  H  631  1  0.23180300  0.39475200  0.99295300  1
  H  632  1  0.24226700  0.41433400  0.02275200  1
  H  633  1  0.28246900  0.40612500  0.00186100  1
  H  643  1  0.24523000  0.40395700  0.51853400  1
  H  648  1  0.20519200  0.51225900  0.51217700  1
  H  649  1  0.25319500  0.51216100  0.49904000  1
  H  650  1  0.23120700  0.54090100  0.55073600  1
  H  651  1  0.24200200  0.55118200  0.53124000  1
  H  652  1  0.28207100  0.53860400  0.53965900  1
  H  662  1  0.00428400  0.99829500  0.34234800  1
  H  667  1  0.94304700  0.90271800  0.36414600  1
  H  668  1  0.98016800  0.88139800  0.34620200  1
  H  669  1  0.89033400  0.88393200  0.33371300  1
  H  670  1  0.91266500  0.86275600  0.33925100  1
  H  671  1  0.92711600  0.86386000  0.31394300  1
  H  681  1  0.00442000  0.28664000  0.94760500  1
  H  686  1  0.94056000  0.40335200  0.04253800  1
  H  687  1  0.97961000  0.40799500  0.06337000  1
  H  688  1  0.89144700  0.39153200  0.06293700  1
  H  689  1  0.91302800  0.41888700  0.08314600  1
  H  690  1  0.93042600  0.39317300  0.08259000  1
  H  700  1  0.00448200  0.60338900  0.65884700  1
  H  705  1  0.94394200  0.58145900  0.54105300  1
  H  706  1  0.98028500  0.60014400  0.53832200  1
  H  707  1  0.88997300  0.61120200  0.55288100  1
  H  708  1  0.91250700  0.60659200  0.52653000  1
  H  709  1  0.92585700  0.63174300  0.55333800  1
  H  719  1  0.50437400  0.92744500  0.62357400  1
  H  724  1  0.44116100  0.02262100  0.60187800  1
  H  725  1  0.47971900  0.04357200  0.61857900  1
  H  726  1  0.39106900  0.04254000  0.63363300  1
  H  727  1  0.41289400  0.06305800  0.62699100  1
  H  728  1  0.42948200  0.06228100  0.65216400  1
  H  738  1  0.50442100  0.63892400  0.01811000  1
  H  743  1  0.44198600  0.52174900  0.92291100  1
  H  744  1  0.47989200  0.51780800  0.90175300  1
  H  745  1  0.39072600  0.53350400  0.90351300  1
  H  746  1  0.41275500  0.50654800  0.88266500  1
  H  747  1  0.42839500  0.53272200  0.88361500  1
  H  757  1  0.50445200  0.32200600  0.30667900  1
  H  762  1  0.44240600  0.34396000  0.42402300  1
  H  763  1  0.47999100  0.32638400  0.42764200  1
  H  764  1  0.39053800  0.31311400  0.41221200  1
  H  765  1  0.41273300  0.31882100  0.43900500  1
  H  766  1  0.42782600  0.29364000  0.41264800  1
  H  776  1  0.98509000  0.92831200  0.62428000  1
  H  781  1  0.05000100  0.02303800  0.60233600  1
  H  782  1  0.01098200  0.04391100  0.61848000  1
  H  783  1  0.09902100  0.04339000  0.63463400  1
  H  784  1  0.07766900  0.06360000  0.62741800  1
  H  785  1  0.06004200  0.06310100  0.65256700  1
  H  795  1  0.98526600  0.63855500  0.01753700  1
  H  800  1  0.04627200  0.52070700  0.92173600  1
  H  801  1  0.01025300  0.51811300  0.90023200  1
  H  802  1  0.10065200  0.53266600  0.90413400  1
  H  803  1  0.07826800  0.50633100  0.88225300  1
  H  804  1  0.06508800  0.53317100  0.88393600  1
  H  814  1  0.98535700  0.32168200  0.30703700  1
  H  819  1  0.04873700  0.34359800  0.42397200  1
  H  820  1  0.01075700  0.32656100  0.42813700  1
  H  821  1  0.09975600  0.31227700  0.41224700  1
  H  822  1  0.07799900  0.31877400  0.43938600  1
  H  823  1  0.06195200  0.29343700  0.41342800  1
  H  833  1  0.48510400  0.99723000  0.34127100  1
  H  838  1  0.55026700  0.90247000  0.36317600  1
  H  839  1  0.51107300  0.88167400  0.34714600  1
  H  840  1  0.59895700  0.88204100  0.33072400  1
  H  841  1  0.57765400  0.86186400  0.33799800  1
  H  842  1  0.55979000  0.86240400  0.31290900  1
  H  852  1  0.48517900  0.28699100  0.94814100  1
  H  857  1  0.54669000  0.40473600  0.04378200  1
  H  858  1  0.51032200  0.40758500  0.06523500  1
  H  859  1  0.60050400  0.39277700  0.06169500  1
  H  860  1  0.57821000  0.41923800  0.08339900  1
  H  861  1  0.56455100  0.39251800  0.08185100  1
  H  871  1  0.48533600  0.60409400  0.65866000  1
  H  876  1  0.54949500  0.58221000  0.54191200  1
  H  877  1  0.51091800  0.59875300  0.53743900  1
  H  878  1  0.59938000  0.61409300  0.55379100  1
  H  879  1  0.57784800  0.60721300  0.52649500  1
  H  880  1  0.56090200  0.63243400  0.55229100  1
  H  890  1  0.78998400  0.80105600  0.17708100  1
  H  895  1  0.61892200  0.70929600  0.15660500  1
  H  896  1  0.67094100  0.70033900  0.14824300  1
  H  897  1  0.60200300  0.69872500  0.11574600  1
  H  898  1  0.62214100  0.67446900  0.11711600  1
  H  899  1  0.65389900  0.68972200  0.10737000  1
  H  909  1  0.78998200  0.31872500  0.14455500  1
  H  914  1  0.61891200  0.39009200  0.23628600  1
  H  915  1  0.67092300  0.39069200  0.24526000  1
  H  916  1  0.60199100  0.35977900  0.24682100  1
  H  917  1  0.62210100  0.38539900  0.27109600  1
  H  918  1  0.65388000  0.36040900  0.25583900  1
  H  928  1  0.78993500  0.76857600  0.62691900  1
  H  933  1  0.61855400  0.78915000  0.55578400  1
  H  934  1  0.67052400  0.79744800  0.55493900  1
  H  935  1  0.60203100  0.82999600  0.58624700  1
  H  936  1  0.62171500  0.82869000  0.56056300  1
  H  937  1  0.65388000  0.83830500  0.58538700  1
  H  947  1  0.28987200  0.12447400  0.78870800  1
  H  952  1  0.11894900  0.21629600  0.80895800  1
  H  953  1  0.17093100  0.22531300  0.81737200  1
  H  954  1  0.10198100  0.22675600  0.84978000  1
  H  955  1  0.12202000  0.25107300  0.84848700  1
  H  956  1  0.15383700  0.23582000  0.85820600  1
  H  966  1  0.29007300  0.60690800  0.82114300  1
  H  971  1  0.11867400  0.53554500  0.72945900  1
  H  972  1  0.17066300  0.53464700  0.72031800  1
  H  973  1  0.10208600  0.56564900  0.71857600  1
  H  974  1  0.12180100  0.53980900  0.69440100  1
  H  975  1  0.15393600  0.56468600  0.70936300  1
  H  985  1  0.28988800  0.15701400  0.33869600  1
  H  990  1  0.11860000  0.13644600  0.40988200  1
  H  991  1  0.17056700  0.12813300  0.41070900  1
  H  992  1  0.10203300  0.09560500  0.37941500  1
  H  993  1  0.12173900  0.09690000  0.40509000  1
  H  994  1  0.15388300  0.08728300  0.38025800  1
  C  1  1  0.74468900  0.89278500  0.33552800  1
  C  2  1  0.74432200  0.86851800  0.32550300  1
  C  3  1  0.74509900  0.85814200  0.30143100  1
  C  4  1  0.74583700  0.87531100  0.29498700  1
  C  5  1  0.74753300  0.86798900  0.27075700  1
  C  6  1  0.74815000  0.84376400  0.25338000  1
  C  7  1  0.74778800  0.82730400  0.26120500  1
  C  8  1  0.74607200  0.83425200  0.28493200  1
  C  9  1  0.74347300  0.85767000  0.33907000  1
  C  10  1  0.74310100  0.87157500  0.36342000  1
  C  11  1  0.74363500  0.89635200  0.37475100  1
  C  12  1  0.74432300  0.90673300  0.36028900  1
  C  13  1  0.78094700  0.91432700  0.31840300  1
  C  14  1  0.76648000  0.93491100  0.31979700  1
  C  15  1  0.72368300  0.93477900  0.31960200  1
  C  16  1  0.70941600  0.91406300  0.31797800  1
  C  17  1  0.69654100  0.95230100  0.32175500  1
  C  18  1  0.65390200  0.94917300  0.32285300  1
  C  19  1  0.63772200  0.92881300  0.32198300  1
  C  20  1  0.66616500  0.91102400  0.31898100  1
  C  21  1  0.82421200  0.91144100  0.31952200  1
  C  22  1  0.85245200  0.92932100  0.32255200  1
  C  23  1  0.83608500  0.94961400  0.32335500  1
  C  24  1  0.79343200  0.95255400  0.32207200  1
  C  37  1  0.74526400  0.89904900  0.31661300  1
  C  38  1  0.59490000  0.92651600  0.32322900  1
  C  39  1  0.89529600  0.92710900  0.32369800  1
  C  40  1  0.74350700  0.90959000  0.39931100  1
  C  41  1  0.75109600  0.83543900  0.22925100  1
  C  46  1  0.74451900  0.38551100  0.05281600  1
  C  47  1  0.74418400  0.39975400  0.07708200  1
  C  48  1  0.74503900  0.38606100  0.08746000  1
  C  49  1  0.74576800  0.36244800  0.07029300  1
  C  50  1  0.74750300  0.34554000  0.07761400  1
  C  51  1  0.74816400  0.35239200  0.10184000  1
  C  52  1  0.74777500  0.37667600  0.11830000  1
  C  53  1  0.74603600  0.39345400  0.11135000  1
  C  54  1  0.74337100  0.42417000  0.08792700  1
  C  55  1  0.74300500  0.43461200  0.07402000  1
  C  56  1  0.74352100  0.42116100  0.04924200  1
  C  57  1  0.74416300  0.39631900  0.03886300  1
  C  58  1  0.78085300  0.34688400  0.03127900  1
  C  59  1  0.76643300  0.32770000  0.01067900  1
  C  60  1  0.72364000  0.32757900  0.01082100  1
  C  61  1  0.70932300  0.34664500  0.03154300  1
  C  62  1  0.69654000  0.31216100  0.99330100  1
  C  63  1  0.65388700  0.31632500  0.99643000  1
  C  64  1  0.63766300  0.33578500  0.01679800  1
  C  65  1  0.66605400  0.35060300  0.03460200  1
  C  66  1  0.82410200  0.35093100  0.03417900  1
  C  67  1  0.85239100  0.33610100  0.01632000  1
  C  68  1  0.83607200  0.31658800  0.99602700  1
  C  69  1  0.79342800  0.31233600  0.99306000  1
  C  82  1  0.74514500  0.36033200  0.04655400  1
  C  83  1  0.59483200  0.33922100  0.01908800  1
  C  84  1  0.89522800  0.33949500  0.01855900  1
  C  85  1  0.74343700  0.43247900  0.03600000  1
  C  86  1  0.75112000  0.33658500  0.11016400  1
  C  91  1  0.74482300  0.61007100  0.56008800  1
  C  92  1  0.74449400  0.62009600  0.54584600  1
  C  93  1  0.74526600  0.64416800  0.55954200  1
  C  94  1  0.74594600  0.65061200  0.58315700  1
  C  95  1  0.74760700  0.67484100  0.60006800  1
  C  96  1  0.74826600  0.69221900  0.59321900  1
  C  97  1  0.74794000  0.68439600  0.56893500  1
  C  98  1  0.74626700  0.66066800  0.55215400  1
  C  99  1  0.74369300  0.60653000  0.52143000  1
  C  100  1  0.74330900  0.58218000  0.51098500  1
  C  101  1  0.74379100  0.57084900  0.52443200  1
  C  102  1  0.74444800  0.58531000  0.54927600  1
  C  103  1  0.78102400  0.62719600  0.59877000  1
  C  104  1  0.76652400  0.62581200  0.61795800  1
  C  105  1  0.72373200  0.62600400  0.61800300  1
  C  106  1  0.70949500  0.62760000  0.59889000  1
  C  107  1  0.69656500  0.62388700  0.63338300  1
  C  108  1  0.65393000  0.62281900  0.62916000  1
  C  109  1  0.63777700  0.62368800  0.60966400  1
  C  110  1  0.66624200  0.62666700  0.59487100  1
  C  111  1  0.82430000  0.62613300  0.59481400  1
  C  112  1  0.85251100  0.62313300  0.60969600  1
  C  113  1  0.83611100  0.62232200  0.62917300  1
  C  114  1  0.79344900  0.62356600  0.63335500  1
  C  127  1  0.74536200  0.62898600  0.58526700  1
  C  128  1  0.59495500  0.62249700  0.60615300  1
  C  129  1  0.89535800  0.62203200  0.60639100  1
  C  130  1  0.74364300  0.54628900  0.51311100  1
  C  131  1  0.75113900  0.71635200  0.60902900  1
  C  136  1  0.24462200  0.03277900  0.63008500  1
  C  137  1  0.24423200  0.05704600  0.64011700  1
  C  138  1  0.24505100  0.06741500  0.66418900  1
  C  139  1  0.24582400  0.05024000  0.67062600  1
  C  140  1  0.24756600  0.05755100  0.69485200  1
  C  141  1  0.24816200  0.08177400  0.71223700  1
  C  142  1  0.24769000  0.09824200  0.70442200  1
  C  143  1  0.24595000  0.09130300  0.68069800  1
  C  144  1  0.24337000  0.06790000  0.62655600  1
  C  145  1  0.24300600  0.05400200  0.60220600  1
  C  146  1  0.24356500  0.02922500  0.59087100  1
  C  147  1  0.24426000  0.01883700  0.60532500  1
  C  148  1  0.28091200  0.01121700  0.64717400  1
  C  149  1  0.26645300  0.99061600  0.64574400  1
  C  150  1  0.22365900  0.99077800  0.64601500  1
  C  151  1  0.20939400  0.01149900  0.64764500  1
  C  152  1  0.19651300  0.97323800  0.64381300  1
  C  153  1  0.15387400  0.97638300  0.64274400  1
  C  154  1  0.13769700  0.99677200  0.64367100  1
  C  155  1  0.16614300  0.01456100  0.64668100  1
  C  156  1  0.32416700  0.01410000  0.64603100  1
  C  157  1  0.35242400  0.99622400  0.64299200  1
  C  158  1  0.33607100  0.97592900  0.64219200  1
  C  159  1  0.29341900  0.97298500  0.64348500  1
  C  172  1  0.24523300  0.02650600  0.64899300  1
  C  173  1  0.09487800  0.99908700  0.64246800  1
  C  174  1  0.39526500  0.99845300  0.64184000  1
  C  175  1  0.24346000  0.01599100  0.56630900  1
  C  176  1  0.25121200  0.09008000  0.73636100  1
  C  181  1  0.24453800  0.54008800  0.91282400  1
  C  182  1  0.24417700  0.52584200  0.88855900  1
  C  183  1  0.24500800  0.53953300  0.87817800  1
  C  184  1  0.24573400  0.56314800  0.89534300  1
  C  185  1  0.24751700  0.58005200  0.88801900  1
  C  186  1  0.24817500  0.57319700  0.86379100  1
  C  187  1  0.24773300  0.54891300  0.84733500  1
  C  188  1  0.24598400  0.53213800  0.85428800  1
  C  189  1  0.24336400  0.50142800  0.87771500  1
  C  190  1  0.24301500  0.49098700  0.89162300  1
  C  191  1  0.24355000  0.50443800  0.91640000  1
  C  192  1  0.24419800  0.52928000  0.92677700  1
  C  193  1  0.28086000  0.57873100  0.93435100  1
  C  194  1  0.26643100  0.59792000  0.95494400  1
  C  195  1  0.22363700  0.59802800  0.95480700  1
  C  196  1  0.20932300  0.57894800  0.93409500  1
  C  197  1  0.19653800  0.61344500  0.97232600  1
  C  198  1  0.15388600  0.60927700  0.96919800  1
  C  199  1  0.13766300  0.58979600  0.94884700  1
  C  200  1  0.16605000  0.57497600  0.93104100  1
  C  201  1  0.32411400  0.57470400  0.93145000  1
  C  202  1  0.35239700  0.58956200  0.94930100  1
  C  203  1  0.33606800  0.60906800  0.96959000  1
  C  204  1  0.29341900  0.61330300  0.97255700  1
  C  217  1  0.24514700  0.56526600  0.91908300  1
  C  218  1  0.09483400  0.58633900  0.94657000  1
  C  219  1  0.39523700  0.58618300  0.94707000  1
  C  220  1  0.24346600  0.49311800  0.92964100  1
  C  221  1  0.25120600  0.58900100  0.85546800  1
  C  226  1  0.24475500  0.31550500  0.40553300  1
  C  227  1  0.24443300  0.30547800  0.41977300  1
  C  228  1  0.24520600  0.28140700  0.40607600  1
  C  229  1  0.24589500  0.27496500  0.38246200  1
  C  230  1  0.24755700  0.25073700  0.36555100  1
  C  231  1  0.24821800  0.23335800  0.37239700  1
  C  232  1  0.24789400  0.24117800  0.39668000  1
  C  233  1  0.24621300  0.26490500  0.41346200  1
  C  234  1  0.24363000  0.31904300  0.44418900  1
  C  235  1  0.24325300  0.34339200  0.45463600  1
  C  236  1  0.24374100  0.35472500  0.44119100  1
  C  237  1  0.24438700  0.34026600  0.41634700  1
  C  238  1  0.28097400  0.29838000  0.36685700  1
  C  239  1  0.26649300  0.29976600  0.34766500  1
  C  240  1  0.22369600  0.29956000  0.34760400  1
  C  241  1  0.20944300  0.29797100  0.36671900  1
  C  242  1  0.19654400  0.30167700  0.33221700  1
  C  243  1  0.15390500  0.30274700  0.33643200  1
  C  244  1  0.13774000  0.30187400  0.35592300  1
  C  245  1  0.16618900  0.29890200  0.37072700  1
  C  246  1  0.32423800  0.29951000  0.37086200  1
  C  247  1  0.35247400  0.30253300  0.35600600  1
  C  248  1  0.33609300  0.30332300  0.33651100  1
  C  249  1  0.29343800  0.30203500  0.33229000  1
  C  262  1  0.24530100  0.29659200  0.38035200  1
  C  263  1  0.09491800  0.30308900  0.35944400  1
  C  264  1  0.39531700  0.30371200  0.35938800  1
  C  265  1  0.24360500  0.37928500  0.45251400  1
  C  266  1  0.25109400  0.20922500  0.35658200  1
  C  271  1  0.24467100  0.54281700  0.63176000  1
  C  272  1  0.24539400  0.52699500  0.63993300  1
  C  273  1  0.24635500  0.53916000  0.66414400  1
  C  274  1  0.24608300  0.56316400  0.67227800  1
  C  275  1  0.24727000  0.57887500  0.69678500  1
  C  276  1  0.24850500  0.57047600  0.71290600  1
  C  277  1  0.24948200  0.54593000  0.70357100  1
  C  278  1  0.24806400  0.53030000  0.67946600  1
  C  279  1  0.24497100  0.50277900  0.62460500  1
  C  280  1  0.24365500  0.49423900  0.60046500  1
  C  281  1  0.24276200  0.50949400  0.59118200  1
  C  282  1  0.24332700  0.53402000  0.60731200  1
  C  283  1  0.20921200  0.58176700  0.65225500  1
  C  284  1  0.22356300  0.60240400  0.65371300  1
  C  285  1  0.26634200  0.60234200  0.65343500  1
  C  286  1  0.28090000  0.58162600  0.65170500  1
  C  287  1  0.29313500  0.61905200  0.65350100  1
  C  288  1  0.33571300  0.61460400  0.65126300  1
  C  289  1  0.35207800  0.59351000  0.64860500  1
  C  290  1  0.32414500  0.57726300  0.64944900  1
  C  291  1  0.16597000  0.57739200  0.65023600  1
  C  292  1  0.13785400  0.59356100  0.64938100  1
  C  293  1  0.15400700  0.61465500  0.65193500  1
  C  294  1  0.19657500  0.61912100  0.65395100  1
  C  307  1  0.24516900  0.56730800  0.65194900  1
  C  308  1  0.39469300  0.58975100  0.64553900  1
  C  309  1  0.09528600  0.58966300  0.64623900  1
  C  310  1  0.24071600  0.50047800  0.56695700  1
  C  311  1  0.25034100  0.58521700  0.73723200  1
  C  316  1  0.24455400  0.31386800  0.91390400  1
  C  317  1  0.24532600  0.30570200  0.88991100  1
  C  318  1  0.24627800  0.28149100  0.87785900  1
  C  319  1  0.24595600  0.27334900  0.89372200  1
  C  320  1  0.24716800  0.24884000  0.88491700  1
  C  321  1  0.24845600  0.23272800  0.86039500  1
  C  322  1  0.24952500  0.24207400  0.84519500  1
  C  323  1  0.24809100  0.26618100  0.85367900  1
  C  324  1  0.24492800  0.32103400  0.88102600  1
  C  325  1  0.24356800  0.34517000  0.89662900  1
  C  326  1  0.24262900  0.35444800  0.92116500  1
  C  327  1  0.24317300  0.33831400  0.92955800  1
  C  328  1  0.20911000  0.29336300  0.93235900  1
  C  329  1  0.22348600  0.29188100  0.95152200  1
  C  330  1  0.26626400  0.29215900  0.95172700  1
  C  331  1  0.28079200  0.29392300  0.93275400  1
  C  332  1  0.29307900  0.29208700  0.96836000  1
  C  333  1  0.33565100  0.29433900  0.96614600  1
  C  334  1  0.35198900  0.29700500  0.94770900  1
  C  335  1  0.32403700  0.29615800  0.93062300  1
  C  336  1  0.16586500  0.29539900  0.93002700  1
  C  337  1  0.13776100  0.29620500  0.94703500  1
  C  338  1  0.15394200  0.29362300  0.96555300  1
  C  339  1  0.19651700  0.29163600  0.96800300  1
  C  352  1  0.24504800  0.29367400  0.91820000  1
  C  353  1  0.39459400  0.30007700  0.94700100  1
  C  354  1  0.09519000  0.29935300  0.94630000  1
  C  355  1  0.24048500  0.37866900  0.93637100  1
  C  356  1  0.25027000  0.20840000  0.85079700  1
  C  361  1  0.24460000  0.03172600  0.40279500  1
  C  362  1  0.24535700  0.05572000  0.41862700  1
  C  363  1  0.24632100  0.06777900  0.40647500  1
  C  364  1  0.24603100  0.05191900  0.38246800  1
  C  365  1  0.24722300  0.06073100  0.36676900  1
  C  366  1  0.24849600  0.08525300  0.37518300  1
  C  367  1  0.24954700  0.10045000  0.39973000  1
  C  368  1  0.24810100  0.09196100  0.41534900  1
  C  369  1  0.24494600  0.06459900  0.44284100  1
  C  370  1  0.24359000  0.04899100  0.45137100  1
  C  371  1  0.24267200  0.02445500  0.43610800  1
  C  372  1  0.24322200  0.01606900  0.41158300  1
  C  373  1  0.20912200  0.01330300  0.36384400  1
  C  374  1  0.22345500  0.99416400  0.34316800  1
  C  375  1  0.26623700  0.99391800  0.34324200  1
  C  376  1  0.28080700  0.01287300  0.36398000  1
  C  377  1  0.29301100  0.97727000  0.32652100  1
  C  378  1  0.33558900  0.97944800  0.33097800  1
  C  379  1  0.35197300  0.99786000  0.35208100  1
  C  380  1  0.32404900  0.01494600  0.36834900  1
  C  381  1  0.16588600  0.01563900  0.36824400  1
  C  382  1  0.13775500  0.99863700  0.35206100  1
  C  383  1  0.15389200  0.98011300  0.33094900  1
  C  384  1  0.19645500  0.97767100  0.32647100  1
  C  397  1  0.24508800  0.02744000  0.37830700  1
  C  398  1  0.39458500  0.99853400  0.35584400  1
  C  399  1  0.09519000  0.99938300  0.35597600  1
  C  400  1  0.24057700  0.00924400  0.44512000  1
  C  401  1  0.25030400  0.09485200  0.36045400  1
  C  406  1  0.74466600  0.38276700  0.33387200  1
  C  407  1  0.74539400  0.39859900  0.32571300  1
  C  408  1  0.74635000  0.38644800  0.30150300  1
  C  409  1  0.74604400  0.36244100  0.29335300  1
  C  410  1  0.74721900  0.34674200  0.26884000  1
  C  411  1  0.74848900  0.35515900  0.25273500  1
  C  412  1  0.74953600  0.37970600  0.26208600  1
  C  413  1  0.74811300  0.39532600  0.28619600  1
  C  414  1  0.74498800  0.42281400  0.34105200  1
  C  415  1  0.74367300  0.43134000  0.36518900  1
  C  416  1  0.74278000  0.41607400  0.37445900  1
  C  417  1  0.74332000  0.39155000  0.35831700  1
  C  418  1  0.70919300  0.34381600  0.31337100  1
  C  419  1  0.72355900  0.32317200  0.31189100  1
  C  420  1  0.76634000  0.32323400  0.31215400  1
  C  421  1  0.78088000  0.34396000  0.31390000  1
  C  422  1  0.79315000  0.30652300  0.31207100  1
  C  423  1  0.83572300  0.31098900  0.31433200  1
  C  424  1  0.85207000  0.33209500  0.31700800  1
  C  425  1  0.82412200  0.34833700  0.31616500  1
  C  426  1  0.66594800  0.34819300  0.31541700  1
  C  427  1  0.63783900  0.33200200  0.31623600  1
  C  428  1  0.65400700  0.31090300  0.31366200  1
  C  429  1  0.69658100  0.30645600  0.31166300  1
  C  442  1  0.74513800  0.35828100  0.31367300  1
  C  443  1  0.89467800  0.33587400  0.32009000  1
  C  444  1  0.59526400  0.33588900  0.31937700  1
  C  445  1  0.74075600  0.42507700  0.39868000  1
  C  446  1  0.75028400  0.34043500  0.22840700  1
  C  451  1  0.74457800  0.61172700  0.05174100  1
  C  452  1  0.74536300  0.61989600  0.07573500  1
  C  453  1  0.74633300  0.64410500  0.08778600  1
  C  454  1  0.74601300  0.65224800  0.07192400  1
  C  455  1  0.74719700  0.67676000  0.08073400  1
  C  456  1  0.74849900  0.69286900  0.10525700  1
  C  457  1  0.74958200  0.68351900  0.12045300  1
  C  458  1  0.74814800  0.65941300  0.11196800  1
  C  459  1  0.74495800  0.60456300  0.08461800  1
  C  460  1  0.74357600  0.58042600  0.06901700  1
  C  461  1  0.74261600  0.57115000  0.04448200  1
  C  462  1  0.74317100  0.58728200  0.03608900  1
  C  463  1  0.70912600  0.63222200  0.03328500  1
  C  464  1  0.72348000  0.63376300  0.01415200  1
  C  465  1  0.76626000  0.63344500  0.01391900  1
  C  466  1  0.78080500  0.63166300  0.03287900  1
  C  467  1  0.79306200  0.63351700  0.99728300  1
  C  468  1  0.83563600  0.63125100  0.99948100  1
  C  469  1  0.85199300  0.62857100  0.01790600  1
  C  470  1  0.82404800  0.62940000  0.03498700  1
  C  471  1  0.66588100  0.63021600  0.03564400  1
  C  472  1  0.63776500  0.62938600  0.01862800  1
  C  473  1  0.65392700  0.63195400  0.00009900  1
  C  474  1  0.69649500  0.63396000  0.99765100  1
  C  487  1  0.74507300  0.63192300  0.04744700  1
  C  488  1  0.89460600  0.62550100  0.01860700  1
  C  489  1  0.59519600  0.62623100  0.01937100  1
  C  490  1  0.74043000  0.54692800  0.02927900  1
  C  491  1  0.75028300  0.71720000  0.11486400  1
  C  496  1  0.74455300  0.89385700  0.56283100  1
  C  497  1  0.74531700  0.86986400  0.54699800  1
  C  498  1  0.74629400  0.85780500  0.55915000  1
  C  499  1  0.74597900  0.87366500  0.58315700  1
  C  500  1  0.74717700  0.86485500  0.59885800  1
  C  501  1  0.74846000  0.84033300  0.59044400  1
  C  502  1  0.74950000  0.82513600  0.56589900  1
  C  503  1  0.74805500  0.83362300  0.55027800  1
  C  504  1  0.74491900  0.86098800  0.52278500  1
  C  505  1  0.74357400  0.87659500  0.51425400  1
  C  506  1  0.74264700  0.90113000  0.52951800  1
  C  507  1  0.74318900  0.90951600  0.55404300  1
  C  508  1  0.70909400  0.91229000  0.60178700  1
  C  509  1  0.72345400  0.93144700  0.62244300  1
  C  510  1  0.76623300  0.93164600  0.62239300  1
  C  511  1  0.78077700  0.91269800  0.60164300  1
  C  512  1  0.79302700  0.94831100  0.63908100  1
  C  513  1  0.83559800  0.94612100  0.63461600  1
  C  514  1  0.85195400  0.92769200  0.61351500  1
  C  515  1  0.82401600  0.91060600  0.59726400  1
  C  516  1  0.66585300  0.90996400  0.59740600  1
  C  517  1  0.63774000  0.92696700  0.61360600  1
  C  518  1  0.65390500  0.94547100  0.63472000  1
  C  519  1  0.69647300  0.94791500  0.63917500  1
  C  532  1  0.74504400  0.89814400  0.58731700  1
  C  533  1  0.89456000  0.92700500  0.60973600  1
  C  534  1  0.59517500  0.92623300  0.60971000  1
  C  535  1  0.74058500  0.91634400  0.52050800  1
  C  536  1  0.75027900  0.83073700  0.60517600  1
  C  541  1  0.74384200  0.91058200  0.47910500  1
  C  543  1  0.74470800  0.88505200  0.43755200  1
  C  544  1  0.74395800  0.90408900  0.43371200  1
  C  546  1  0.74367800  0.93025000  0.47569000  1
  C  547  1  0.74310800  0.95360800  0.49321800  1
  C  551  1  0.73860000  0.98167600  0.53350100  1
  C  552  1  0.74925000  0.98497200  0.55764900  1
  C  560  1  0.74391200  0.51128200  0.03501400  1
  C  562  1  0.74482700  0.49525500  0.06053900  1
  C  563  1  0.74402700  0.47238200  0.04150100  1
  C  565  1  0.74373900  0.48820300  0.01533400  1
  C  566  1  0.74306900  0.48237600  0.99195300  1
  C  570  1  0.73859400  0.49473800  0.96405500  1
  C  571  1  0.74975100  0.51548000  0.96067400  1
  C  579  1  0.74394300  0.46648800  0.43432400  1
  C  581  1  0.74481500  0.50803800  0.45033400  1
  C  582  1  0.74407000  0.51188600  0.47321300  1
  C  584  1  0.74378900  0.46990900  0.45740900  1
  C  585  1  0.74319500  0.45239000  0.46325000  1
  C  589  1  0.73878700  0.41210400  0.45109500  1
  C  590  1  0.74915400  0.38795000  0.43017300  1
  C  598  1  0.24385200  0.01500700  0.48652100  1
  C  600  1  0.24469000  0.04053400  0.52807500  1
  C  601  1  0.24394200  0.02149800  0.53191400  1
  C  603  1  0.24369500  0.99533800  0.48993300  1
  C  604  1  0.24314500  0.97198000  0.47240400  1
  C  608  1  0.23849800  0.94396100  0.43212400  1
  C  609  1  0.24935800  0.94060300  0.40797500  1
  C  617  1  0.24391700  0.41431800  0.93063400  1
  C  619  1  0.24485700  0.43034100  0.90510500  1
  C  620  1  0.24404700  0.45321500  0.92414000  1
  C  622  1  0.24374100  0.43740000  0.95031100  1
  C  623  1  0.24305800  0.44323400  0.97369400  1
  C  627  1  0.23868300  0.43092700  0.00164900  1
  C  628  1  0.24958700  0.41011800  0.00496900  1
  C  636  1  0.24393900  0.45907500  0.53131900  1
  C  638  1  0.24481000  0.41752300  0.51529500  1
  C  639  1  0.24405600  0.41368400  0.49241800  1
  C  641  1  0.24377800  0.45566400  0.50823800  1
  C  642  1  0.24320700  0.47318800  0.50240400  1
  C  646  1  0.23873300  0.51347300  0.51459700  1
  C  647  1  0.24926200  0.53762300  0.53547900  1
  C  655  1  0.95793900  0.95193300  0.33904500  1
  C  657  1  0.00165800  0.98347000  0.34339100  1
  C  658  1  0.03610400  0.97345100  0.34795300  1
  C  660  1  0.99246100  0.94170200  0.34398700  1
  C  661  1  0.99194800  0.92220600  0.34685600  1
  C  665  1  0.95345600  0.89151500  0.34616300  1
  C  666  1  0.91856000  0.87435100  0.33229100  1
  C  674  1  0.95796400  0.32988900  0.99375200  1
  C  676  1  0.00172300  0.30259900  0.96230300  1
  C  677  1  0.03610700  0.31726900  0.97219600  1
  C  679  1  0.99242700  0.34513200  0.00388000  1
  C  680  1  0.99182600  0.36766000  0.02313000  1
  C  684  1  0.95299500  0.39720200  0.05388700  1
  C  685  1  0.91975700  0.40038000  0.07185700  1
  C  693  1  0.95800000  0.60665300  0.61580200  1
  C  695  1  0.00179700  0.60229400  0.64295900  1
  C  696  1  0.03619700  0.59769900  0.62833700  1
  C  698  1  0.99244800  0.60161000  0.60056300  1
  C  699  1  0.99197100  0.59865700  0.57818000  1
  C  703  1  0.95361400  0.59961700  0.54821000  1
  C  704  1  0.91811400  0.61325200  0.54506100  1
  C  712  1  0.45792800  0.97365700  0.62659900  1
  C  714  1  0.50171100  0.94221600  0.62243900  1
  C  715  1  0.53611400  0.95217800  0.61776700  1
  C  717  1  0.49240800  0.98383100  0.62155400  1
  C  718  1  0.49183700  0.00313800  0.61836500  1
  C  722  1  0.45306200  0.03390200  0.61952100  1
  C  723  1  0.41937900  0.05164800  0.63409900  1
  C  731  1  0.45797200  0.59576700  0.97188100  1
  C  733  1  0.50172000  0.62298200  0.00338500  1
  C  734  1  0.53609500  0.60830700  0.99347900  1
  C  736  1  0.49241800  0.58051200  0.96175100  1
  C  737  1  0.49190200  0.55806000  0.94243300  1
  C  741  1  0.45325100  0.52826500  0.91163800  1
  C  742  1  0.41899600  0.52507900  0.89417300  1
  C  750  1  0.45795300  0.31896000  0.34983600  1
  C  752  1  0.50175400  0.32318700  0.32260400  1
  C  753  1  0.53613200  0.32791100  0.33726900  1
  C  755  1  0.49239900  0.32406700  0.36509000  1
  C  756  1  0.49187100  0.32714000  0.38752000  1
  C  760  1  0.45332500  0.32607800  0.41732700  1
  C  761  1  0.41880100  0.31191600  0.42047600  1
  C  769  1  0.03199800  0.97435700  0.62718800  1
  C  771  1  0.98796700  0.94297700  0.62297300  1
  C  772  1  0.95376200  0.95286400  0.61803500  1
  C  774  1  0.99772200  0.98445900  0.62188700  1
  C  775  1  0.99852800  0.00367700  0.61856200  1
  C  779  1  0.03752500  0.03440200  0.61982100  1
  C  780  1  0.07078500  0.05233800  0.63464800  1
  C  788  1  0.03210900  0.59561000  0.97130600  1
  C  790  1  0.98809800  0.62265600  0.00277200  1
  C  791  1  0.95381100  0.60794500  0.99270500  1
  C  793  1  0.99777400  0.58028200  0.96108200  1
  C  794  1  0.99839900  0.55789300  0.94166400  1
  C  798  1  0.03686100  0.52794600  0.91076300  1
  C  799  1  0.07261100  0.52485300  0.89414000  1
  C  807  1  0.03210300  0.31843500  0.35003100  1
  C  809  1  0.98814700  0.32279500  0.32292700  1
  C  810  1  0.95386900  0.32754100  0.33766200  1
  C  812  1  0.99775600  0.32357500  0.36535600  1
  C  813  1  0.99850400  0.32659600  0.38777600  1
  C  817  1  0.03736500  0.32585200  0.41759700  1
  C  818  1  0.07155100  0.31158400  0.42085200  1
  C  826  1  0.53207300  0.95123400  0.33843800  1
  C  828  1  0.48799300  0.98256700  0.34258200  1
  C  829  1  0.45379400  0.97267200  0.34751500  1
  C  831  1  0.49780600  0.94112000  0.34372500  1
  C  832  1  0.49870500  0.92196400  0.34714600  1
  C  836  1  0.53761500  0.89113700  0.34572800  1
  C  837  1  0.57071100  0.87314300  0.33079500  1
  C  845  1  0.53203900  0.32993100  0.99436700  1
  C  847  1  0.48801500  0.30288900  0.96290500  1
  C  848  1  0.45377300  0.31765000  0.97292200  1
  C  850  1  0.49775300  0.34530900  0.00454000  1
  C  851  1  0.49841800  0.36772000  0.02392200  1
  C  855  1  0.53693300  0.39762800  0.05481200  1
  C  856  1  0.57242300  0.40071400  0.07157900  1
  C  864  1  0.53209700  0.60719000  0.61558600  1
  C  866  1  0.48813500  0.60292200  0.64274200  1
  C  867  1  0.45387800  0.59810500  0.62798100  1
  C  869  1  0.49776300  0.60198200  0.60023700  1
  C  870  1  0.49847600  0.59874200  0.57772400  1
  C  874  1  0.53748900  0.59981300  0.54815800  1
  C  875  1  0.57115300  0.61441000  0.54500400  1
  C  883  1  0.73196900  0.75334500  0.15177300  1
  C  885  1  0.76480800  0.79080700  0.17471600  1
  C  886  1  0.73515400  0.79742800  0.19255100  1
  C  888  1  0.70104800  0.76016900  0.16926500  1
  C  889  1  0.66912500  0.74577100  0.16870600  1
  C  893  1  0.64371600  0.70800900  0.14481200  1
  C  894  1  0.62953400  0.69163500  0.11954800  1
  C  902  1  0.73198600  0.34122200  0.19227000  1
  C  904  1  0.76486900  0.32670000  0.15482300  1
  C  905  1  0.73523500  0.33791200  0.14819300  1
  C  907  1  0.70113900  0.35193400  0.18544900  1
  C  908  1  0.66917700  0.36575200  0.19983100  1
  C  912  1  0.64370300  0.37958700  0.23757300  1
  C  913  1  0.62951300  0.37067500  0.25392700  1
  C  921  1  0.73199300  0.79386000  0.60446500  1
  C  923  1  0.76478900  0.77092100  0.61900100  1
  C  924  1  0.73521000  0.75305600  0.60772500  1
  C  926  1  0.70117600  0.77631100  0.59368400  1
  C  927  1  0.66928800  0.77685700  0.57976600  1
  C  931  1  0.64349300  0.80088400  0.56618100  1
  C  932  1  0.62938000  0.82618500  0.57522200  1
  C  940  1  0.23204400  0.17226300  0.81384000  1
  C  942  1  0.26482500  0.13477900  0.79098300  1
  C  943  1  0.23548000  0.12828400  0.77302000  1
  C  945  1  0.20128100  0.16548800  0.79626900  1
  C  946  1  0.16933700  0.17988000  0.79682900  1
  C  950  1  0.14373400  0.21758800  0.82075800  1
  C  951  1  0.12948100  0.23390200  0.84602300  1
  C  959  1  0.23210000  0.58448900  0.77340300  1
  C  961  1  0.26504400  0.59888000  0.81081400  1
  C  962  1  0.23544300  0.58760000  0.81737700  1
  C  964  1  0.20126800  0.57370800  0.78016500  1
  C  965  1  0.16920400  0.55999500  0.76573500  1
  C  969  1  0.14358200  0.54587900  0.72798600  1
  C  970  1  0.12944700  0.55461200  0.71147600  1
  C  978  1  0.23199400  0.13172800  0.36116700  1
  C  980  1  0.26475400  0.15466600  0.34661800  1
  C  981  1  0.23517100  0.17252600  0.35789600  1
  C  983  1  0.20115400  0.14926400  0.37193700  1
  C  984  1  0.16932200  0.14873300  0.38588800  1
  C  988  1  0.14352400  0.12470700  0.39947600  1
  C  989  1  0.12939500  0.09940800  0.39043200  1
  N  542  1  0.74448800  0.88909100  0.45972400  1
  N  545  1  0.74343600  0.92567200  0.45300900  1
  N  558  1  0.74315400  0.90927900  0.49853700  1
  N  559  1  0.74387500  0.89959100  0.41176500  1
  N  561  1  0.74460400  0.51338900  0.05650300  1
  N  564  1  0.74347500  0.47010200  0.01992200  1
  N  577  1  0.74317900  0.53202700  0.03633900  1
  N  578  1  0.74388800  0.45493200  0.04599700  1
  N  580  1  0.74458800  0.48586300  0.43220500  1
  N  583  1  0.74354700  0.49259300  0.47550800  1
  N  596  1  0.74326500  0.44704900  0.41359200  1
  N  597  1  0.74399900  0.53383400  0.49065800  1
  N  599  1  0.24448300  0.03649700  0.50590300  1
  N  602  1  0.24343500  0.99991400  0.51261400  1
  N  615  1  0.24316700  0.01631200  0.46709100  1
  N  616  1  0.24384000  0.02599500  0.55386000  1
  N  618  1  0.24461900  0.41220900  0.90914500  1
  N  621  1  0.24348500  0.45549800  0.94572100  1
  N  634  1  0.24318800  0.39357500  0.92931400  1
  N  635  1  0.24391100  0.47066500  0.91964300  1
  N  637  1  0.24458800  0.43969400  0.53342800  1
  N  640  1  0.24353400  0.43298200  0.49013300  1
  N  653  1  0.24326200  0.47850600  0.55205700  1
  N  654  1  0.24397600  0.39173900  0.47497000  1
  N  656  1  0.96468300  0.97234800  0.33921000  1
  N  659  1  0.02936900  0.95316600  0.34780100  1
  N  672  1  0.91850000  0.94525900  0.33481300  1
  N  673  1  0.07507000  0.98022900  0.34914800  1
  N  675  1  0.96476500  0.30954300  0.97344100  1
  N  678  1  0.02931900  0.33747400  0.99240400  1
  N  691  1  0.91853800  0.33231500  0.00043100  1
  N  692  1  0.07507900  0.31166800  0.96545900  1
  N  694  1  0.96481000  0.60650800  0.63605800  1
  N  697  1  0.02937800  0.59778700  0.60817900  1
  N  710  1  0.91854300  0.61087000  0.61338200  1
  N  711  1  0.07516600  0.59646400  0.63389100  1
  N  713  1  0.46472200  0.95331600  0.62657400  1
  N  716  1  0.52932600  0.97238800  0.61777500  1
  N  729  1  0.41847400  0.98029700  0.63076800  1
  N  730  1  0.57508300  0.94539500  0.61653800  1
  N  732  1  0.46476900  0.61607300  0.99223100  1
  N  735  1  0.52930400  0.58813100  0.97324200  1
  N  748  1  0.41853900  0.59335000  0.96520100  1
  N  749  1  0.57507700  0.61389400  0.00021900  1
  N  751  1  0.46476900  0.31900400  0.32953100  1
  N  754  1  0.52932300  0.32786900  0.35745300  1
  N  767  1  0.41848900  0.31480100  0.35230800  1
  N  768  1  0.57512300  0.32905400  0.33169200  1
  N  770  1  0.02497500  0.95408600  0.62726800  1
  N  773  1  0.96076500  0.97302900  0.61799200  1
  N  786  1  0.07143700  0.98100800  0.63154600  1
  N  787  1  0.91473100  0.94618100  0.61679500  1
  N  789  1  0.02513300  0.61585700  0.99169100  1
  N  792  1  0.96079200  0.58780400  0.97247500  1
  N  805  1  0.07158200  0.59328100  0.96469300  1
  N  806  1  0.91479400  0.61339000  0.99943800  1
  N  808  1  0.02516100  0.31852400  0.32975700  1
  N  811  1  0.96080200  0.32746700  0.35781500  1
  N  824  1  0.07154500  0.31409300  0.35235200  1
  N  825  1  0.91485100  0.32883700  0.33222400  1
  N  827  1  0.52503100  0.97149200  0.33833400  1
  N  830  1  0.46082900  0.95252700  0.34759400  1
  N  843  1  0.57154900  0.94462800  0.33419000  1
  N  844  1  0.41475700  0.97935400  0.34876500  1
  N  846  1  0.52504100  0.30967200  0.97400000  1
  N  849  1  0.46078000  0.33780900  0.99313000  1
  N  862  1  0.57150200  0.33222900  0.00098700  1
  N  863  1  0.41475400  0.31224400  0.96616900  1
  N  865  1  0.52514300  0.60718200  0.63589900  1
  N  868  1  0.46081700  0.59809800  0.60778900  1
  N  881  1  0.57153900  0.61153600  0.61327400  1
  N  882  1  0.41486200  0.59680400  0.63341800  1
  N  884  1  0.76273300  0.76898100  0.15555900  1
  N  887  1  0.70551200  0.78147300  0.18882700  1
  N  900  1  0.73547600  0.73092300  0.13536300  1
  N  901  1  0.73854500  0.81468600  0.21448700  1
  N  903  1  0.76273400  0.32933800  0.17663500  1
  N  906  1  0.70560000  0.35017100  0.16413700  1
  N  919  1  0.73542800  0.34720200  0.21468400  1
  N  920  1  0.73862900  0.34257900  0.13092800  1
  N  922  1  0.76270300  0.79008800  0.61634800  1
  N  925  1  0.70564900  0.75675100  0.59543300  1
  N  938  1  0.73544700  0.81024700  0.59841800  1
  N  939  1  0.73868700  0.73111800  0.60302200  1
  N  941  1  0.26268000  0.15659200  0.81015900  1
  N  944  1  0.20581300  0.14420400  0.77669300  1
  N  957  1  0.23545200  0.19467500  0.83030000  1
  N  958  1  0.23888400  0.11087000  0.75115900  1
  N  960  1  0.26286300  0.59632800  0.78903900  1
  N  963  1  0.20574200  0.57540800  0.80145600  1
  N  976  1  0.23551000  0.57847300  0.75097500  1
  N  977  1  0.23875800  0.58300600  0.83469700  1
  N  979  1  0.26269000  0.13550300  0.34927900  1
  N  982  1  0.20562200  0.16882600  0.37018900  1
  N  995  1  0.23546400  0.11534100  0.36721400  1
  N  996  1  0.23860000  0.19446200  0.36258400  1
  O  549  1  0.75097000  0.96812600  0.48739500  1
  O  550  1  0.75391000  0.95949400  0.51511800  1
  O  568  1  0.75075500  0.46199400  0.97750600  1
  O  569  1  0.75398300  0.49845300  0.98619300  1
  O  587  1  0.75105100  0.45821400  0.48359000  1
  O  588  1  0.75390700  0.43047500  0.44722600  1
  O  606  1  0.25104800  0.95746700  0.47822700  1
  O  607  1  0.25398900  0.96609200  0.45051100  1
  O  625  1  0.25074800  0.46361600  0.98814100  1
  O  626  1  0.25389700  0.42714800  0.97945800  1
  O  644  1  0.25107600  0.46736500  0.48206300  1
  O  645  1  0.25397100  0.49509300  0.51842200  1
  O  663  1  0.02512400  0.91602600  0.35102000  1
  O  664  1  0.96411800  0.90523100  0.33545500  1
  O  682  1  0.02467300  0.37836900  0.02882900  1
  O  683  1  0.96489800  0.37293600  0.04045800  1
  O  701  1  0.02502500  0.59455800  0.56773900  1
  O  702  1  0.96397000  0.61004400  0.57265100  1
  O  720  1  0.52474700  0.00896600  0.61355800  1
  O  721  1  0.46462300  0.02034700  0.63027500  1
  O  739  1  0.52485200  0.54747700  0.93635200  1
  O  740  1  0.46456500  0.55260900  0.92522800  1
  O  758  1  0.52482800  0.33158200  0.39809100  1
  O  759  1  0.46439800  0.31543800  0.39295900  1
  O  777  1  0.96580300  0.00936800  0.61342100  1
  O  778  1  0.02546700  0.02098900  0.63064900  1
  O  796  1  0.96541000  0.54738700  0.93527400  1
  O  797  1  0.02655100  0.55238700  0.92482700  1
  O  815  1  0.96550700  0.33112700  0.39833000  1
  O  816  1  0.02597900  0.31496000  0.39325700  1
  O  834  1  0.46606600  0.91637500  0.35247400  1
  O  835  1  0.52546400  0.90458200  0.33494800  1
  O  853  1  0.46547600  0.37828400  0.03023700  1
  O  854  1  0.52640900  0.37320600  0.04083400  1
  O  872  1  0.46564000  0.59386500  0.56701100  1
  O  873  1  0.52571100  0.61064800  0.57243900  1
  O  891  1  0.64374000  0.75396800  0.18457400  1
  O  892  1  0.65302200  0.73066700  0.14780600  1
  O  910  1  0.64382700  0.37343900  0.19163300  1
  O  911  1  0.65303400  0.35993700  0.21491200  1
  O  929  1  0.64447600  0.76070600  0.57177700  1
  O  930  1  0.65319800  0.79779100  0.58574000  1
  O  948  1  0.14403600  0.17169500  0.78091700  1
  O  949  1  0.15312600  0.19492200  0.81771800  1
  O  967  1  0.14418200  0.55221300  0.77401500  1
  O  968  1  0.15318500  0.56563700  0.75052400  1
  O  986  1  0.14454000  0.16489700  0.39390700  1
  O  987  1  0.15320900  0.12780400  0.37991800  1
