# generated using pymatgen
data_H24C43N4
_symmetry_space_group_name_H-M   'P 1'
_cell_length_a   25.15500000
_cell_length_b   26.02094057
_cell_length_c   74.95880000
_cell_angle_alpha   90.00000000
_cell_angle_beta   90.00000000
_cell_angle_gamma   118.90536118
_symmetry_Int_Tables_number   1
_chemical_formula_structural   H24C43N4
_chemical_formula_sum   'H288 C516 N48'
_cell_volume   42952.26358415
_cell_formula_units_Z   12
loop_
 _symmetry_equiv_pos_site_id
 _symmetry_equiv_pos_as_xyz
  1  'x, y, z'
loop_
 _atom_site_type_symbol
 _atom_site_label
 _atom_site_symmetry_multiplicity
 _atom_site_fract_x
 _atom_site_fract_y
 _atom_site_fract_z
 _atom_site_occupancy
  C  1  1  0.28294100  0.28409200  0.09276600  1
  C  2  1  0.30604000  0.25830200  0.10514200  1
  C  3  1  0.21659800  0.15911100  0.10038100  1
  C  4  1  0.18827350  0.18239750  0.08894300  1
  C  5  1  0.13146900  0.14091400  0.08116200  1
  C  6  1  0.10566950  0.07914750  0.08376200  1
  C  7  1  0.13442600  0.05978300  0.09618400  1
  C  8  1  0.18921300  0.09869600  0.10414200  1
  C  9  1  0.36290450  0.29158050  0.11338500  1
  C  10  1  0.40123600  0.34895700  0.10794400  1
  C  11  1  0.38549000  0.37385800  0.09351600  1
  C  12  1  0.32435550  0.34307650  0.08729300  1
  C  13  1  0.21264550  0.26301450  0.06727300  1
  C  14  1  0.18314400  0.29550300  0.06200700  1
  C  15  1  0.14905550  0.29701150  0.09320400  1
  C  16  1  0.18006450  0.26715750  0.09955400  1
  C  17  1  0.11511100  0.31300500  0.10475100  1
  C  18  1  0.11131950  0.30024050  0.12291500  1
  C  19  1  0.14161350  0.27137350  0.12993900  1
  C  20  1  0.17554050  0.25540150  0.11828700  1
  C  21  1  0.23958050  0.24544550  0.05348000  1
  C  22  1  0.23703300  0.25964100  0.03533500  1
  C  23  1  0.20849100  0.29301700  0.03086400  1
  C  24  1  0.18216050  0.31100750  0.04404800  1
  C  37  1  0.21613950  0.24919750  0.08690900  1
  C  38  1  0.15086950  0.31427350  0.07449050  1
  C  41  1  0.27399500  0.19566200  0.10983500  1
  C  44  1  0.68366800  0.94271600  0.75881200  1
  C  45  1  0.70452400  0.99202200  0.77041000  1
  C  46  1  0.80982200  0.00457900  0.77026300  1
  C  47  1  0.79276300  0.95726800  0.75805100  1
  C  48  1  0.84075100  0.94794100  0.75123400  1
  C  49  1  0.90290700  0.98488600  0.75583700  1
  C  50  1  0.91505450  0.02577550  0.76973900  1
  C  51  1  0.86990800  0.03664700  0.77650000  1
  C  52  1  0.66659750  0.01567650  0.77536200  1
  C  53  1  0.60915100  0.99457300  0.76776700  1
  C  54  1  0.58735250  0.94795350  0.75545100  1
  C  55  1  0.62358550  0.92085150  0.75176500  1
  C  56  1  0.71701150  0.90026950  0.73466000  1
  C  57  1  0.68897400  0.84061300  0.72900700  1
  C  58  1  0.68103550  0.80534050  0.76037900  1
  C  59  1  0.70657650  0.86376350  0.76697600  1
  C  60  1  0.66484600  0.75709700  0.77191800  1
  C  61  1  0.67441150  0.76553650  0.79025300  1
  C  62  1  0.69992100  0.82242800  0.79744100  1
  C  63  1  0.71459250  0.87043950  0.78585900  1
  C  64  1  0.73435250  0.94394850  0.72112300  1
  C  65  1  0.72390950  0.92853350  0.70284000  1
  C  66  1  0.69563300  0.86893300  0.69786600  1
  C  67  1  0.67823750  0.82545350  0.71081200  1
  C  80  1  0.72505950  0.91614150  0.75443900  1
  C  81  1  0.66935700  0.79090700  0.74136300  1
  C  84  1  0.76684450  0.02259950  0.77753300  1
  C  87  1  0.03929050  0.70498650  0.42378400  1
  C  88  1  0.98288000  0.67909600  0.43295400  1
  C  89  1  0.97612800  0.77332400  0.43117300  1
  C  90  1  0.03304600  0.80369700  0.42233700  1
  C  91  1  0.05300800  0.86427900  0.41772200  1
  C  92  1  0.01786850  0.89325050  0.42123000  1
  C  93  1  0.96256500  0.86034800  0.43039900  1
  C  94  1  0.94206350  0.80186950  0.43520900  1
  C  95  1  0.95430800  0.61940000  0.43809500  1
  C  96  1  0.97822600  0.58270100  0.43329300  1
  C  97  1  0.03160900  0.60379700  0.42300600  1
  C  98  1  0.06230050  0.66551350  0.41895300  1
  C  99  1  0.09110050  0.77920150  0.40048300  1
  C  100  1  0.15373000  0.80500300  0.39595000  1
  C  101  1  0.18421700  0.82755000  0.42796700  1
  C  102  1  0.12234100  0.80046500  0.43334600  1
  C  103  1  0.23167500  0.85531800  0.44048300  1
  C  104  1  0.21889200  0.85846100  0.45844000  1
  C  105  1  0.15831200  0.83295100  0.46431400  1
  C  106  1  0.11083350  0.80301950  0.45188400  1
  C  107  1  0.04832050  0.75860950  0.38623000  1
  C  108  1  0.06729500  0.76407000  0.36821700  1
  C  109  1  0.12972750  0.78964250  0.36430800  1
  C  110  1  0.17241550  0.80946350  0.37802500  1
  C  123  1  0.07089900  0.77177200  0.41984700  1
  C  124  1  0.20273150  0.82889050  0.40929600  1
  C  127  1  0.95019300  0.71183900  0.43737900  1
  C  130  1  0.66626650  0.70471050  0.08749500  1
  C  131  1  0.63781050  0.73614650  0.09436300  1
  C  132  1  0.73395600  0.83186100  0.09076100  1
  C  133  1  0.76600150  0.80281650  0.08474600  1
  C  134  1  0.82878550  0.83901650  0.08051400  1
  C  135  1  0.86204400  0.90104200  0.08345300  1
  C  136  1  0.82641100  0.92602300  0.08993300  1
  C  137  1  0.76414550  0.89306150  0.09304600  1
  C  138  1  0.57660450  0.70650650  0.09979400  1
  C  139  1  0.54251500  0.64549600  0.09847700  1
  C  140  1  0.56632500  0.61128100  0.09068700  1
  C  141  1  0.62813850  0.64294050  0.08501100  1
  C  142  1  0.75057250  0.71304550  0.06836300  1
  C  143  1  0.77069700  0.67042800  0.06894800  1
  C  144  1  0.77824050  0.67709550  0.10223400  1
  C  145  1  0.75843050  0.71988850  0.10228700  1
  C  146  1  0.79730600  0.66160700  0.11813200  1
  C  147  1  0.80071750  0.69060350  0.13414600  1
  C  148  1  0.78386250  0.73483950  0.13464900  1
  C  149  1  0.75987700  0.74642400  0.11906400  1
  C  150  1  0.74458650  0.73328650  0.05126900  1
  C  151  1  0.76132400  0.71452100  0.03555600  1
  C  152  1  0.77846850  0.67057750  0.03653000  1
  C  153  1  0.78233400  0.64818900  0.05310700  1
  C  166  1  0.73543600  0.73547500  0.08534500  1
  C  167  1  0.78149250  0.64773750  0.08579500  1
  C  170  1  0.66969200  0.80051400  0.09630100  1
  C  173  1  0.31939350  0.97372050  0.74828500  1
  C  174  1  0.29485550  0.91421850  0.75211500  1
  C  175  1  0.18910700  0.90024800  0.74975200  1
  C  176  1  0.21170250  0.96084750  0.74645700  1
  C  177  1  0.16818700  0.98085900  0.74456500  1
  C  178  1  0.10472750  0.94545450  0.74809400  1
  C  179  1  0.08592100  0.88540800  0.75165000  1
  C  180  1  0.12634300  0.86284500  0.75186800  1
  C  181  1  0.33184250  0.88982350  0.75563500  1
  C  182  1  0.39726300  0.92696500  0.75712100  1
  C  183  1  0.42173000  0.98514000  0.75010200  1
  C  184  1  0.38260750  0.00680650  0.74689900  1
  C  185  1  0.29901600  0.04300400  0.73145700  1
  C  186  1  0.33226500  0.10517300  0.73330800  1
  C  187  1  0.32228400  0.09699900  0.76660800  1
  C  188  1  0.28966200  0.03471500  0.76547400  1
  C  189  1  0.33147000  0.12575700  0.78321700  1
  C  190  1  0.30538700  0.09376000  0.79877000  1
  C  191  1  0.27000400  0.03222300  0.79806000  1
  C  192  1  0.26575850  0.00340950  0.78171100  1
  C  193  1  0.28616350  0.01992950  0.71383600  1
  C  194  1  0.30439050  0.05719050  0.69872700  1
  C  195  1  0.33845400  0.11830100  0.70100000  1
  C  196  1  0.35246800  0.14200100  0.71816300  1
  C  209  1  0.28006750  0.00277650  0.74770300  1
  C  210  1  0.34756250  0.13478150  0.75079900  1
  C  213  1  0.22960550  0.87454150  0.75249400  1
  C  216  1  0.02379250  0.31076350  0.41705500  1
  C  217  1  0.08558700  0.34440000  0.42009900  1
  C  218  1  0.09973900  0.25488800  0.41577700  1
  C  219  1  0.03620400  0.21657300  0.41607000  1
  C  220  1  0.01576550  0.15431750  0.41609000  1
  C  221  1  0.05576400  0.12943600  0.41522700  1
  C  222  1  0.11838700  0.17063000  0.41436900  1
  C  223  1  0.13987950  0.23145750  0.41466400  1
  C  224  1  0.11109000  0.40422900  0.42339700  1
  C  225  1  0.07191750  0.43055150  0.42740800  1
  C  226  1  0.01261550  0.39911850  0.42093300  1
  C  227  1  0.99061150  0.34133250  0.41544200  1
  C  228  1  0.95441000  0.22324900  0.40034300  1
  C  229  1  0.89004150  0.19592250  0.40156900  1
  C  230  1  0.89548600  0.19614100  0.43506300  1
  C  231  1  0.95991350  0.22404850  0.43440700  1
  C  232  1  0.86478150  0.17844250  0.45157200  1
  C  233  1  0.89691450  0.18449950  0.46738200  1
  C  234  1  0.96058500  0.20919000  0.46705300  1
  C  235  1  0.99153350  0.23175450  0.45078600  1
  C  236  1  0.98037450  0.23250750  0.38298900  1
  C  237  1  0.94393700  0.21320400  0.36745800  1
  C  238  1  0.88049450  0.18765150  0.36910200  1
  C  239  1  0.85391400  0.17945900  0.38599100  1
  C  252  1  0.99412650  0.24416050  0.41690400  1
  C  253  1  0.85785150  0.18349950  0.41884400  1
  C  256  1  0.12651750  0.31977650  0.41757400  1
  C  259  1  0.66458550  0.90516250  0.58605500  1
  C  260  1  0.63905400  0.84391900  0.58275400  1
  C  261  1  0.73598950  0.84636750  0.59106600  1
  C  262  1  0.76636550  0.90867150  0.59237900  1
  C  263  1  0.82962600  0.93712500  0.59641000  1
  C  264  1  0.86156500  0.90536600  0.59930300  1
  C  265  1  0.82927200  0.84379100  0.59685900  1
  C  266  1  0.76734300  0.81449200  0.59337900  1
  C  267  1  0.57941000  0.81070000  0.57633100  1
  C  268  1  0.54245000  0.83641500  0.57462600  1
  C  269  1  0.56168600  0.89374500  0.58107800  1
  C  270  1  0.62417050  0.92910350  0.58520800  1
  C  271  1  0.74678100  0.98824300  0.60254900  1
  C  272  1  0.77149300  0.04900600  0.59852500  1
  C  273  1  0.77982050  0.03017850  0.56600000  1
  C  274  1  0.75499000  0.96907800  0.56941800  1
  C  275  1  0.79879750  0.05294550  0.54859400  1
  C  276  1  0.79383850  0.01584150  0.53438700  1
  C  277  1  0.76926500  0.95558300  0.53742100  1
  C  278  1  0.75001400  0.93273200  0.55459300  1
  C  279  1  0.73699400  0.97155800  0.62083300  1
  C  280  1  0.75302200  0.01376500  0.63458100  1
  C  281  1  0.77561500  0.07320000  0.63017400  1
  C  282  1  0.78397400  0.09046800  0.61227700  1
  C  295  1  0.73321800  0.94305600  0.58789400  1
  C  296  1  0.78700700  0.07238500  0.58018300  1
  C  299  1  0.67255850  0.81143950  0.58532000  1
  C  302  1  0.26945300  0.32846700  0.92071300  1
  C  303  1  0.24057800  0.36305300  0.92358100  1
  C  304  1  0.14045350  0.27321650  0.92862500  1
  C  305  1  0.16639100  0.23590400  0.92608900  1
  C  306  1  0.12655450  0.17406550  0.92680400  1
  C  307  1  0.06274250  0.14963050  0.92895600  1
  C  308  1  0.03928450  0.18928750  0.92907900  1
  C  309  1  0.07719600  0.24966100  0.93003000  1
  C  310  1  0.27114550  0.42372350  0.91998300  1
  C  311  1  0.32887700  0.44994100  0.91237300  1
  C  312  1  0.36170350  0.41901950  0.91027100  1
  C  313  1  0.33101750  0.35832550  0.91479900  1
  C  314  1  0.26270300  0.23979300  0.93458000  1
  C  315  1  0.29255700  0.20792300  0.92907900  1
  C  316  1  0.26368950  0.21060250  0.89700900  1
  C  317  1  0.23339800  0.24251500  0.90198400  1
  C  318  1  0.26431100  0.19478500  0.87895900  1
  C  319  1  0.23519000  0.21027100  0.86572800  1
  C  320  1  0.20569550  0.24222250  0.87037400  1
  C  321  1  0.20499850  0.25822750  0.88820600  1
  C  322  1  0.25929100  0.24841300  0.95320800  1
  C  323  1  0.28296200  0.22472800  0.96596000  1
  C  324  1  0.31369050  0.19481250  0.96011800  1
  C  325  1  0.31905300  0.18718700  0.94184400  1
  C  338  1  0.23314900  0.26163800  0.92112100  1
  C  339  1  0.29590350  0.19331450  0.91017100  1
  C  342  1  0.17593600  0.33768300  0.92822200  1
  C  345  1  0.09668700  0.73255400  0.25464000  1
  C  346  1  0.15997750  0.75863050  0.25804000  1
  C  347  1  0.16780950  0.85776350  0.26143300  1
  C  348  1  0.10427200  0.83411000  0.25900900  1
  C  349  1  0.08050750  0.87399350  0.25954800  1
  C  350  1  0.11834200  0.93563500  0.26139700  1
  C  351  1  0.18177550  0.95675650  0.26116800  1
  C  352  1  0.20606650  0.91883050  0.26232800  1
  C  353  1  0.19105850  0.72627350  0.25587700  1
  C  354  1  0.16090950  0.66932950  0.24909300  1
  C  355  1  0.09760250  0.64023450  0.24602900  1
  C  356  1  0.06631400  0.67253300  0.24922200  1
  C  357  1  0.01351650  0.74328950  0.26793700  1
  C  358  1  0.95165400  0.71721000  0.26257800  1
  C  359  1  0.98250800  0.74164300  0.23036300  1
  C  360  1  0.04483300  0.76845000  0.23524800  1
  C  361  1  0.96570600  0.74025300  0.21226200  1
  C  362  1  0.01005800  0.76504000  0.19890000  1
  C  363  1  0.07160650  0.79125050  0.20348000  1
  C  364  1  0.08869000  0.79285100  0.22136800  1
  C  365  1  0.02618100  0.74619400  0.28650800  1
  C  366  1  0.97927850  0.72574850  0.29937900  1
  C  367  1  0.91843250  0.69907850  0.29372300  1
  C  368  1  0.90483300  0.69425700  0.27548100  1
  C  381  1  0.06465700  0.76947600  0.25443300  1
  C  382  1  0.93326300  0.71400400  0.24367700  1
  C  385  1  0.19817200  0.82159300  0.26180700  1
  C  388  1  0.29722500  0.97686600  0.57337400  1
  C  389  1  0.31697000  0.02272900  0.56057300  1
  C  390  1  0.21921400  0.02584200  0.56433800  1
  C  391  1  0.20041400  0.98181900  0.57769200  1
  C  392  1  0.14442550  0.96536850  0.58632200  1
  C  393  1  0.10165050  0.98205050  0.58029800  1
  C  394  1  0.12137600  0.02386600  0.56626100  1
  C  395  1  0.17980250  0.04720150  0.55895300  1
  C  396  1  0.37363250  0.04300150  0.55200300  1
  C  397  1  0.41016150  0.01709550  0.55556000  1
  C  398  1  0.39276550  0.97207450  0.56842600  1
  C  399  1  0.33791000  0.95561600  0.57770600  1
  C  400  1  0.23310500  0.93125600  0.59997500  1
  C  401  1  0.21040400  0.87221900  0.60581800  1
  C  402  1  0.17000100  0.83343300  0.57550600  1
  C  403  1  0.19752800  0.89120300  0.56831500  1
  C  404  1  0.13499650  0.78358750  0.56484000  1
  C  405  1  0.12721100  0.78956400  0.54669600  1
  C  406  1  0.15542450  0.84539950  0.53866100  1
  C  407  1  0.19035750  0.89507650  0.54952200  1
  C  408  1  0.25687400  0.97584300  0.61328800  1
  C  409  1  0.25803300  0.96172600  0.63147800  1
  C  410  1  0.23934250  0.90327650  0.63646300  1
  C  411  1  0.21562050  0.85889950  0.62373700  1
  C  424  1  0.23234800  0.94556300  0.58019100  1
  C  425  1  0.17775350  0.82115050  0.59413200  1
  C  428  1  0.27888750  0.04938150  0.55533100  1
  C  431  1  0.70900300  0.71879700  0.91610200  1
  C  432  1  0.74046800  0.69256200  0.90749200  1
  C  433  1  0.83121200  0.79213900  0.90253100  1
  C  434  1  0.80417950  0.81735150  0.91355400  1
  C  435  1  0.84022400  0.87718700  0.91819500  1
  C  436  1  0.89739500  0.91535300  0.91048800  1
  C  437  1  0.92015000  0.88884400  0.89835100  1
  C  438  1  0.88885800  0.82821500  0.89492700  1
  C  439  1  0.71386700  0.63066800  0.90650100  1
  C  440  1  0.65741350  0.59438650  0.91446100  1
  C  441  1  0.62602550  0.61962050  0.92291100  1
  C  442  1  0.65073650  0.68083450  0.92335000  1
  C  443  1  0.72747100  0.79872800  0.93696600  1
  C  444  1  0.69488800  0.82938900  0.94086000  1
  C  445  1  0.67479600  0.83555000  0.90848700  1
  C  446  1  0.70707650  0.80535250  0.90367800  1
  C  447  1  0.65021200  0.85710700  0.89541500  1
  C  448  1  0.65956550  0.85182450  0.87732800  1
  C  449  1  0.69248700  0.82360500  0.87187300  1
  C  450  1  0.71371950  0.79885950  0.88502100  1
  C  451  1  0.75220850  0.78257350  0.95163100  1
  C  452  1  0.74591100  0.79774500  0.96931400  1
  C  453  1  0.71361550  0.82833550  0.97264800  1
  C  454  1  0.68829250  0.84394150  0.95854000  1
  C  467  1  0.73663950  0.78483650  0.91777600  1
  C  468  1  0.66650300  0.84822000  0.92706400  1
  C  471  1  0.80080800  0.72815800  0.89904300  1
  C  474  1  0.01472750  0.27839350  0.24545000  1
  C  475  1  0.95819700  0.24805400  0.23631900  1
  C  476  1  0.97019100  0.15762300  0.23429700  1
  C  477  1  0.02142550  0.18422650  0.24570700  1
  C  478  1  0.04790800  0.14959100  0.25119300  1
  C  479  1  0.03269850  0.09402950  0.24376600  1
  C  480  1  0.98371550  0.07107450  0.23146900  1
  C  481  1  0.95157950  0.10107650  0.22734900  1
  C  482  1  0.92256300  0.27584800  0.23327200  1
  C  483  1  0.94151300  0.33291000  0.23953800  1
  C  484  1  0.99690550  0.36320950  0.24854100  1
  C  485  1  0.03335400  0.33670900  0.25118200  1
  C  486  1  0.07373500  0.26192900  0.26853300  1
  C  487  1  0.13584150  0.29804250  0.27319100  1
  C  488  1  0.16771050  0.30735950  0.24123000  1
  C  489  1  0.10623350  0.27524550  0.23556000  1
  C  490  1  0.21605950  0.32697850  0.22891500  1
  C  491  1  0.20470100  0.31369900  0.21082400  1
  C  492  1  0.14466450  0.28207550  0.20447000  1
  C  493  1  0.09638600  0.26508600  0.21681700  1
  C  494  1  0.03085850  0.23910550  0.28272700  1
  C  495  1  0.04940400  0.25203900  0.30073600  1
  C  496  1  0.11097800  0.28967300  0.30476800  1
  C  497  1  0.15380150  0.31216950  0.29113100  1
  C  510  1  0.05400550  0.25002950  0.24902500  1
  C  511  1  0.18520150  0.32225250  0.25999800  1
  C  514  1  0.93537400  0.18781100  0.22925700  1
  C  517  1  0.27105500  0.22497900  0.98435700  1
  C  518  1  0.22206700  0.17802800  0.99345400  1
  C  519  1  0.21393450  0.18483750  0.01201900  1
  C  520  1  0.25554100  0.23792800  0.02066000  1
  C  523  1  0.16349650  0.13940850  0.02103600  1
  C  524  1  0.12235350  0.08806150  0.01205800  1
  C  525  1  0.13042350  0.08140450  0.99385600  1
  C  526  1  0.17972000  0.12599700  0.98461600  1
  C  531  1  0.75380500  0.99910000  0.65262400  1
  C  532  1  0.80448200  0.99950500  0.66112200  1
  C  533  1  0.79921300  0.98367600  0.67953700  1
  C  534  1  0.74405400  0.96899000  0.68861700  1
  C  537  1  0.84839000  0.98138900  0.68805600  1
  C  538  1  0.90199900  0.99511800  0.67869400  1
  C  539  1  0.90723750  0.01086350  0.66062400  1
  C  540  1  0.85893150  0.01300950  0.65189700  1
  C  545  1  0.99262850  0.73569450  0.31773500  1
  C  546  1  0.99219850  0.78212650  0.32761300  1
  C  547  1  0.01074600  0.78943900  0.34588600  1
  C  548  1  0.02782500  0.74943200  0.35343200  1
  C  551  1  0.01375000  0.83752700  0.35562700  1
  C  552  1  0.99820000  0.87725100  0.34762200  1
  C  553  1  0.97979650  0.86994150  0.32972000  1
  C  554  1  0.97699700  0.82294400  0.31977700  1
  C  559  1  0.76530900  0.77904500  0.98434000  1
  C  560  1  0.80904050  0.81869350  0.99657200  1
  C  561  1  0.80962400  0.79889100  0.01428700  1
  C  562  1  0.76506950  0.74088350  0.01889900  1
  C  565  1  0.85433000  0.83757600  0.02643300  1
  C  566  1  0.89679250  0.89494050  0.02133900  1
  C  567  1  0.89549400  0.91462900  0.00400200  1
  C  568  1  0.85198800  0.87686200  0.99170400  1
  C  573  1  0.26835500  0.00067500  0.64571200  1
  C  574  1  0.21886500  0.99764200  0.65576200  1
  C  575  1  0.22863650  0.01588950  0.67398100  1
  C  576  1  0.28739600  0.03557600  0.68127600  1
  C  579  1  0.17955200  0.01284000  0.68410500  1
  C  580  1  0.12159400  0.99127400  0.67651600  1
  C  581  1  0.11169700  0.97257900  0.65868600  1
  C  582  1  0.15983750  0.97566750  0.64840400  1
  C  587  1  0.01033000  0.22686700  0.31541600  1
  C  588  1  0.01653800  0.18666000  0.32691600  1
  C  589  1  0.99554250  0.18119750  0.34485900  1
  C  590  1  0.96885950  0.21585550  0.35037100  1
  C  593  1  0.00260100  0.14192400  0.35644700  1
  C  594  1  0.02987400  0.10886500  0.35060100  1
  C  595  1  0.05030250  0.11416150  0.33295000  1
  C  596  1  0.04382900  0.15281000  0.32120600  1
  C  601  1  0.92705200  0.94030700  0.08045000  1
  C  602  1  0.97572700  0.92844300  0.07624900  1
  C  603  1  0.03510450  0.97693350  0.07272900  1
  C  604  1  0.04801250  0.03526350  0.07701300  1
  C  607  1  0.08188000  0.96636000  0.06618900  1
  C  608  1  0.07320850  0.90911450  0.06483100  1
  C  609  1  0.01868850  0.86208350  0.07081900  1
  C  610  1  0.97124350  0.87191050  0.07660900  1
  C  615  1  0.05884750  0.96480050  0.74819700  1
  C  616  1  0.06584950  0.02281650  0.74806600  1
  C  617  1  0.01275500  0.02976100  0.74634100  1
  C  618  1  0.95388500  0.98038600  0.74889800  1
  C  621  1  0.01966600  0.08639500  0.74302600  1
  C  622  1  0.07692950  0.13658450  0.74368300  1
  C  623  1  0.12759150  0.13094550  0.74852500  1
  C  624  1  0.12182100  0.07490500  0.75081000  1
  C  629  1  0.03970650  0.06714250  0.41530000  1
  C  630  1  0.99671600  0.02106900  0.40422600  1
  C  631  1  0.99280950  0.96385150  0.40456800  1
  C  632  1  0.03093650  0.95222850  0.41616300  1
  C  635  1  0.95095850  0.91936650  0.39305100  1
  C  636  1  0.91331200  0.92991800  0.38154200  1
  C  637  1  0.91652400  0.98515100  0.38133000  1
  C  638  1  0.95776750  0.02999650  0.39250500  1
  C  643  1  0.04204700  0.95987200  0.58807800  1
  C  644  1  0.01061050  0.91106350  0.59989500  1
  C  645  1  0.95663550  0.90402950  0.60838100  1
  C  646  1  0.92612500  0.93294500  0.60093000  1
  C  649  1  0.93109300  0.86395100  0.62275800  1
  C  650  1  0.95247200  0.82466600  0.62699400  1
  C  651  1  0.99762850  0.82343950  0.61636500  1
  C  652  1  0.02549550  0.86555250  0.60286900  1
  C  657  1  0.93347900  0.97612300  0.91576900  1
  C  658  1  0.91502850  0.00979050  0.92668000  1
  C  659  1  0.96093350  0.06131750  0.93515400  1
  C  660  1  0.02106700  0.08790100  0.92815400  1
  C  663  1  0.94437650  0.08550650  0.94972900  1
  C  664  1  0.88316500  0.06692600  0.95358400  1
  C  665  1  0.83805350  0.02554850  0.94245500  1
  C  666  1  0.85413100  0.99803700  0.92901100  1
  C  671  1  0.06153000  0.05997500  0.24906800  1
  C  672  1  0.11600550  0.07902750  0.25920000  1
  C  673  1  0.12751750  0.03554950  0.26723400  1
  C  674  1  0.09590550  0.97686550  0.26065700  1
  C  677  1  0.17120100  0.05292000  0.28112500  1
  C  678  1  0.21078600  0.11244300  0.28462200  1
  C  679  1  0.20842550  0.15520650  0.27382100  1
  C  680  1  0.16178400  0.13844500  0.26117200  1
  C  685  1  0.52634650  0.54837450  0.08893100  1
  C  686  1  0.54169600  0.50227300  0.08783200  1
  C  687  1  0.49396950  0.44312350  0.08528200  1
  C  688  1  0.43208950  0.42977650  0.08723500  1
  C  691  1  0.50918250  0.39811950  0.08187100  1
  C  692  1  0.56949350  0.40924150  0.08280200  1
  C  693  1  0.61520450  0.46502450  0.08786200  1
  C  694  1  0.60124400  0.51061100  0.09048200  1
  C  699  1  0.42520800  0.94308900  0.73828700  1
  C  700  1  0.48366050  0.97779650  0.72836300  1
  C  701  1  0.53567650  0.97088150  0.73161300  1
  C  702  1  0.53479200  0.93643000  0.74605300  1
  C  705  1  0.58727400  0.00060300  0.72044400  1
  C  706  1  0.58740000  0.03625300  0.70634700  1
  C  707  1  0.53585250  0.04243550  0.70306600  1
  C  708  1  0.48408400  0.01278400  0.71384700  1
  C  713  1  0.05164850  0.44973550  0.40972100  1
  C  714  1  0.00826200  0.46502700  0.40011200  1
  C  715  1  0.00754900  0.51956300  0.40260500  1
  C  716  1  0.04444200  0.56012100  0.41578900  1
  C  719  1  0.97016750  0.53240850  0.39130300  1
  C  720  1  0.93452000  0.49323700  0.37789000  1
  C  721  1  0.93654500  0.44094800  0.37515800  1
  C  722  1  0.97394300  0.42767700  0.38592100  1
  C  727  1  0.43064000  0.94648300  0.57245700  1
  C  728  1  0.41105150  0.88939150  0.57971300  1
  C  729  1  0.45598500  0.87610000  0.58648900  1
  C  730  1  0.51791500  0.91356300  0.58181200  1
  C  733  1  0.43718200  0.82478100  0.59701600  1
  C  734  1  0.37560600  0.78299500  0.59861200  1
  C  735  1  0.33206500  0.79116200  0.58926800  1
  C  736  1  0.34975950  0.84360050  0.57985300  1
  C  741  1  0.50723800  0.48513900  0.87407100  1
  C  742  1  0.50377450  0.52659250  0.88529900  1
  C  743  1  0.46029500  0.50682200  0.89940200  1
  C  744  1  0.41778600  0.44546200  0.90050600  1
  C  747  1  0.46250500  0.54995100  0.91143200  1
  C  748  1  0.49964150  0.61022050  0.90809200  1
  C  749  1  0.53840800  0.62876100  0.89321200  1
  C  750  1  0.54238700  0.58698400  0.88223800  1
  C  755  1  0.03260450  0.50123750  0.20952700  1
  C  756  1  0.07237850  0.50130750  0.22267700  1
  C  757  1  0.08943700  0.54220300  0.23702500  1
  C  758  1  0.07033950  0.58575450  0.23647100  1
  C  761  1  0.12469750  0.53698650  0.25096900  1
  C  762  1  0.14841850  0.49803750  0.24959700  1
  C  763  1  0.13588500  0.46219100  0.23446100  1
  C  764  1  0.09610000  0.46220100  0.22129900  1
  C  769  1  0.14094800  0.26483700  0.14868700  1
  C  770  1  0.10785300  0.21176500  0.15839500  1
  C  771  1  0.10598700  0.21456800  0.17747200  1
  C  772  1  0.13618850  0.27058950  0.18586600  1
  C  775  1  0.07509900  0.16148300  0.18723600  1
  C  776  1  0.04469900  0.10711500  0.17845300  1
  C  777  1  0.04511800  0.10467700  0.15975800  1
  C  778  1  0.07658400  0.15653300  0.14979000  1
  C  783  1  0.70672250  0.82833550  0.81617100  1
  C  784  1  0.76256750  0.85470350  0.82567200  1
  C  785  1  0.76083650  0.85227350  0.84477100  1
  C  786  1  0.70327850  0.82255750  0.85336200  1
  C  789  1  0.81629950  0.88037650  0.85435800  1
  C  790  1  0.87227600  0.90830300  0.84538900  1
  C  791  1  0.87390800  0.90922200  0.82668100  1
  C  792  1  0.81954500  0.88278800  0.81688800  1
  C  797  1  0.14826350  0.83681650  0.48268400  1
  C  798  1  0.12986400  0.87543500  0.49055200  1
  C  799  1  0.13157550  0.88093850  0.50959700  1
  C  800  1  0.15249300  0.84813400  0.51979200  1
  C  803  1  0.11156850  0.91799350  0.51756400  1
  C  804  1  0.09221350  0.95049550  0.50702900  1
  C  805  1  0.09205200  0.94623100  0.48836700  1
  C  806  1  0.11063350  0.90897150  0.48017600  1
  C  811  1  0.79124500  0.76698900  0.15054300  1
  C  812  1  0.84755000  0.80072900  0.15952600  1
  C  813  1  0.84690950  0.82813450  0.17592100  1
  C  814  1  0.79158000  0.82176500  0.18236800  1
  C  817  1  0.90100050  0.86188850  0.18555500  1
  C  818  1  0.95654300  0.86947500  0.17887200  1
  C  819  1  0.95825900  0.84389400  0.16252700  1
  C  820  1  0.90435150  0.80998350  0.15291900  1
  C  825  1  0.23951550  0.00046450  0.81354700  1
  C  826  1  0.19813650  0.01105150  0.82382900  1
  C  827  1  0.17458550  0.97807050  0.83980600  1
  C  828  1  0.19178500  0.93593200  0.84455600  1
  C  831  1  0.13400750  0.98685650  0.85072000  1
  C  832  1  0.11569600  0.02803300  0.84576000  1
  C  833  1  0.13717500  0.05986300  0.82981700  1
  C  834  1  0.17771700  0.05125500  0.81891100  1
  C  839  1  0.99244300  0.21017400  0.48272900  1
  C  840  1  0.98132750  0.15964950  0.49287400  1
  C  841  1  0.01512400  0.16831200  0.50889200  1
  C  842  1  0.05847850  0.22556150  0.51383200  1
  C  845  1  0.00603100  0.12025100  0.51964200  1
  C  846  1  0.96373000  0.06287100  0.51447600  1
  C  847  1  0.93105500  0.05334200  0.49850500  1
  C  848  1  0.93992050  0.10119650  0.48777100  1
  H  25  1  0.20471500  0.30305400  0.01785600  1
  H  26  1  0.16056200  0.33408900  0.04029700  1
  H  27  1  0.09321100  0.33477200  0.10005100  1
  H  28  1  0.08703550  0.31315150  0.13098600  1
  H  29  1  0.19787050  0.23543850  0.12376200  1
  H  30  1  0.26005000  0.22089900  0.05663300  1
  H  31  1  0.10876550  0.15586850  0.07323400  1
  H  32  1  0.11551500  0.01660600  0.09988200  1
  H  33  1  0.20858650  0.08239750  0.11292900  1
  H  34  1  0.31096900  0.36305800  0.07794600  1
  H  35  1  0.37832400  0.27340500  0.12281000  1
  H  36  1  0.44286800  0.37089500  0.11398400  1
  H  39  1  0.17210150  0.36222550  0.07396800  1
  H  40  1  0.10389800  0.29582100  0.06981700  1
  H  42  1  0.26517350  0.19144650  0.12421000  1
  H  43  1  0.30466300  0.17797400  0.10681200  1
  H  68  1  0.68833350  0.85645550  0.68472400  1
  H  69  1  0.65818500  0.78249500  0.70677800  1
  H  70  1  0.64627550  0.71516150  0.76703800  1
  H  71  1  0.66266250  0.72972950  0.79826700  1
  H  72  1  0.73169250  0.91100850  0.79145500  1
  H  73  1  0.75500900  0.98736600  0.72461000  1
  H  74  1  0.83052200  0.91464000  0.74235100  1
  H  75  1  0.95787800  0.05004200  0.77485400  1
  H  76  1  0.88161450  0.06893350  0.78590500  1
  H  77  1  0.60705950  0.88667550  0.74292800  1
  H  78  1  0.68204900  0.05121000  0.78370700  1
  H  79  1  0.58466750  0.01556950  0.77070000  1
  H  82  1  0.62043150  0.76231550  0.73965300  1
  H  83  1  0.69272400  0.76631900  0.73753900  1
  H  85  1  0.76464350  0.01734750  0.79204300  1
  H  86  1  0.78564300  0.06942700  0.77455500  1
  H  111  1  0.14497900  0.79513700  0.35139700  1
  H  112  1  0.21752150  0.82834750  0.37475500  1
  H  113  1  0.27619800  0.87471500  0.43655100  1
  H  114  1  0.25431750  0.87989950  0.46714200  1
  H  115  1  0.06712800  0.78386700  0.45643200  1
  H  116  1  0.00291050  0.74010750  0.38898300  1
  H  117  1  0.09383250  0.88764750  0.41141100  1
  H  118  1  0.93562000  0.87857300  0.43355700  1
  H  119  1  0.90141600  0.78002400  0.44178500  1
  H  120  1  0.10127700  0.68162600  0.41159400  1
  H  121  1  0.91383000  0.60121600  0.44482800  1
  H  122  1  0.95373650  0.53905050  0.43650500  1
  H  125  1  0.22800750  0.80457050  0.40839500  1
  H  126  1  0.23338700  0.87478100  0.40576300  1
  H  128  1  0.94566450  0.71161350  0.45190700  1
  H  129  1  0.90460650  0.68745050  0.43163600  1
  H  154  1  0.79075700  0.65630300  0.02532500  1
  H  155  1  0.79679450  0.61754950  0.05355500  1
  H  156  1  0.81127250  0.63058550  0.11803900  1
  H  157  1  0.81669700  0.67993200  0.14532500  1
  H  158  1  0.74628800  0.77743500  0.11990300  1
  H  159  1  0.73116850  0.76458050  0.05030900  1
  H  160  1  0.84930150  0.81845450  0.07456600  1
  H  161  1  0.84494500  0.96983800  0.09263300  1
  H  162  1  0.74150250  0.91399850  0.09784900  1
  H  163  1  0.64599600  0.62088200  0.07834200  1
  H  164  1  0.55654900  0.72911800  0.10517000  1
  H  165  1  0.49893850  0.62662750  0.10318200  1
  H  168  1  0.74905250  0.60090250  0.08679100  1
  H  169  1  0.82729400  0.65279200  0.08509300  1
  H  171  1  0.66726900  0.81081500  0.11034400  1
  H  172  1  0.64514100  0.81761800  0.08836900  1
  H  197  1  0.35200000  0.14611900  0.69025800  1
  H  198  1  0.37648600  0.18671300  0.71950900  1
  H  199  1  0.35543950  0.17061150  0.78403200  1
  H  200  1  0.31110900  0.11595000  0.81051300  1
  H  201  1  0.24128850  0.95864150  0.78149500  1
  H  202  1  0.26212400  0.97543900  0.71199500  1
  H  203  1  0.18447650  0.02264250  0.74022200  1
  H  204  1  0.04154850  0.85596450  0.75427900  1
  H  205  1  0.10989200  0.81926100  0.75472800  1
  H  206  1  0.40143350  0.04992950  0.74842300  1
  H  207  1  0.31403650  0.85208050  0.76236800  1
  H  208  1  0.42073800  0.90609100  0.76353300  1
  H  211  1  0.39703500  0.15888600  0.75211900  1
  H  212  1  0.33072200  0.16652900  0.75085300  1
  H  214  1  0.21831150  0.85287550  0.76554600  1
  H  215  1  0.21873650  0.84089450  0.74226000  1
  H  240  1  0.85297700  0.17304500  0.35809900  1
  H  241  1  0.80755450  0.15970850  0.38684900  1
  H  242  1  0.81836550  0.15861750  0.45211500  1
  H  243  1  0.87325100  0.16919500  0.47905000  1
  H  244  1  0.03789250  0.25063650  0.45068000  1
  H  245  1  0.02658200  0.25207500  0.38165800  1
  H  246  1  0.97021600  0.12641500  0.41725600  1
  H  247  1  0.15002750  0.15666550  0.41354100  1
  H  248  1  0.18583100  0.25892000  0.41441400  1
  H  249  1  0.94572750  0.31783450  0.41580600  1
  H  250  1  0.15146850  0.42406750  0.42931200  1
  H  251  1  0.09459950  0.47860450  0.42903300  1
  H  254  1  0.83336650  0.20858550  0.41951900  1
  H  255  1  0.82451700  0.13669700  0.41902900  1
  H  257  1  0.15693600  0.33260600  0.42912000  1
  H  258  1  0.15410750  0.34015850  0.40571500  1
  H  283  1  0.78828750  0.10459550  0.63991000  1
  H  284  1  0.80211200  0.13423200  0.60940600  1
  H  285  1  0.81673300  0.09693900  0.54613900  1
  H  286  1  0.80774700  0.03236200  0.52186100  1
  H  287  1  0.73247500  0.88858600  0.55602400  1
  H  288  1  0.72118450  0.92846850  0.62421200  1
  H  289  1  0.85321300  0.98201100  0.59681500  1
  H  290  1  0.85062750  0.81888850  0.59671900  1
  H  291  1  0.74618550  0.76994350  0.59145400  1
  H  292  1  0.64000500  0.97251400  0.58805100  1
  H  293  1  0.56214100  0.76736900  0.57295900  1
  H  294  1  0.49953450  0.81083550  0.56973700  1
  H  297  1  0.75902600  0.09262700  0.57676200  1
  H  298  1  0.83467500  0.10665800  0.58018300  1
  H  300  1  0.67203400  0.78974600  0.57274000  1
  H  301  1  0.64829800  0.77755500  0.59539300  1
  H  326  1  0.33062800  0.17671100  0.96908600  1
  H  327  1  0.34025800  0.16392100  0.93794400  1
  H  328  1  0.28607050  0.17180850  0.87530900  1
  H  329  1  0.23569100  0.19878800  0.85272200  1
  H  330  1  0.18335550  0.28186850  0.89098800  1
  H  331  1  0.23621600  0.26940000  0.95757000  1
  H  332  1  0.14432300  0.14635800  0.92512200  1
  H  333  1  0.99373800  0.17515300  0.92833300  1
  H  334  1  0.05785450  0.27641450  0.93060700  1
  H  335  1  0.35215300  0.33396400  0.91226900  1
  H  336  1  0.24891400  0.44785200  0.92086100  1
  H  337  1  0.34455050  0.49127150  0.90738800  1
  H  340  1  0.34381950  0.21397050  0.90635800  1
  H  341  1  0.27692100  0.14565500  0.90923000  1
  H  343  1  0.15487650  0.35320150  0.91830700  1
  H  344  1  0.17251000  0.35453800  0.94129600  1
  H  369  1  0.88372400  0.68430500  0.30280400  1
  H  370  1  0.86024100  0.67581700  0.27169600  1
  H  371  1  0.92089600  0.72096900  0.20866100  1
  H  372  1  0.99781250  0.76378650  0.18585300  1
  H  373  1  0.13403600  0.81199900  0.22411800  1
  H  374  1  0.07040800  0.76628100  0.29073300  1
  H  375  1  0.03472300  0.85773700  0.25806600  1
  H  376  1  0.21202000  0.00049500  0.26012300  1
  H  377  1  0.25233550  0.93639250  0.26276200  1
  H  378  1  0.02114100  0.65348700  0.24611000  1
  H  379  1  0.23728900  0.74601100  0.25733200  1
  H  380  1  0.18729650  0.65122950  0.24534600  1
  H  383  1  0.90554600  0.66766200  0.24015600  1
  H  384  1  0.90493400  0.73518700  0.24257300  1
  H  386  1  0.23444500  0.83932900  0.25179000  1
  H  387  1  0.21894050  0.82625850  0.27495000  1
  H  412  1  0.23885000  0.89173300  0.64957000  1
  H  413  1  0.19922100  0.81636300  0.62788500  1
  H  414  1  0.11538750  0.74215750  0.57015500  1
  H  415  1  0.10215950  0.75238150  0.53931400  1
  H  416  1  0.21186700  0.93483000  0.54337200  1
  H  417  1  0.27073200  0.01850100  0.60982600  1
  H  418  1  0.13582150  0.94114350  0.59756700  1
  H  419  1  0.09376250  0.03904050  0.56123000  1
  H  420  1  0.19221250  0.07778950  0.54898700  1
  H  421  1  0.32676100  0.92684500  0.58801700  1
  H  422  1  0.38766150  0.07532850  0.54254000  1
  H  423  1  0.44976600  0.03160900  0.54855800  1
  H  426  1  0.20180550  0.79556850  0.59420900  1
  H  427  1  0.13248400  0.79414000  0.59985600  1
  H  429  1  0.27114600  0.04366600  0.54092800  1
  H  430  1  0.30445900  0.09646000  0.55812100  1
  H  455  1  0.70711550  0.83855550  0.98538400  1
  H  456  1  0.66465700  0.86585300  0.96133000  1
  H  457  1  0.62736500  0.87917500  0.89896900  1
  H  458  1  0.64350300  0.87036000  0.86822300  1
  H  459  1  0.73639100  0.77754900  0.88078900  1
  H  460  1  0.77535900  0.75989400  0.94938600  1
  H  461  1  0.82448800  0.89179800  0.92827700  1
  H  462  1  0.96154950  0.91289050  0.89238600  1
  H  463  1  0.90825100  0.81059300  0.88666300  1
  H  464  1  0.62593650  0.69730750  0.92948800  1
  H  465  1  0.73607550  0.61150550  0.90027500  1
  H  466  1  0.63871900  0.54975800  0.91397800  1
  H  469  1  0.61768000  0.82715500  0.92976200  1
  H  470  1  0.68529100  0.89582300  0.92833000  1
  H  472  1  0.79559150  0.72082050  0.88463600  1
  H  473  1  0.83113400  0.71213300  0.90393000  1
  H  498  1  0.12563750  0.29965650  0.31770400  1
  H  499  1  0.19850550  0.33825150  0.29446900  1
  H  500  1  0.26028400  0.34992500  0.23308800  1
  H  501  1  0.24098850  0.32718550  0.20235300  1
  H  502  1  0.05311900  0.24357900  0.21198700  1
  H  503  1  0.98594750  0.21202350  0.27992300  1
  H  504  1  0.07830200  0.16584800  0.26129600  1
  H  505  1  0.96921800  0.03094300  0.22564100  1
  H  506  1  0.91554650  0.08207150  0.21874700  1
  H  507  1  0.07341500  0.36044500  0.25779800  1
  H  508  1  0.88206250  0.25439650  0.22662600  1
  H  509  1  0.91544350  0.35265250  0.23750300  1
  H  512  1  0.20887250  0.37016150  0.26118100  1
  H  513  1  0.21704200  0.30634500  0.26345900  1
  H  515  1  0.93413200  0.18998900  0.21469900  1
  H  516  1  0.88887050  0.16066050  0.23404300  1
  H  527  1  0.15635950  0.14271150  0.03431200  1
  H  528  1  0.08635050  0.05562350  0.01876300  1
  H  529  1  0.10016150  0.04420450  0.98729600  1
  H  530  1  0.18374950  0.12003650  0.97130300  1
  H  541  1  0.84614600  0.97043000  0.70124100  1
  H  542  1  0.93718100  0.99353000  0.68503100  1
  H  543  1  0.94616050  0.02053150  0.65379400  1
  H  544  1  0.86400800  0.02404700  0.63867500  1
  H  555  1  0.02704950  0.84423950  0.36869100  1
  H  556  1  0.00080200  0.91183100  0.35478300  1
  H  557  1  0.96900950  0.89920650  0.32386500  1
  H  558  1  0.96442450  0.81953750  0.30667500  1
  H  569  1  0.85688850  0.82456750  0.03911100  1
  H  570  1  0.92878250  0.92231350  0.03024400  1
  H  571  1  0.92663600  0.95628500  0.00027100  1
  H  572  1  0.85297300  0.89201200  0.97904600  1
  H  583  1  0.18510300  0.02582300  0.69715800  1
  H  584  1  0.08653850  0.98906750  0.68399200  1
  H  585  1  0.06949450  0.95692150  0.65316300  1
  H  586  1  0.15128250  0.96237650  0.63538800  1
  H  597  1  0.98852700  0.13740500  0.36935200  1
  H  598  1  0.03493800  0.08099300  0.35918000  1
  H  599  1  0.06996350  0.08996050  0.32865400  1
  H  600  1  0.05866250  0.15530850  0.30836400  1
  H  611  1  0.12349800  0.00043700  0.06284300  1
  H  612  1  0.10808600  0.90220500  0.06079900  1
  H  613  1  0.01395400  0.82078400  0.07129600  1
  H  614  1  0.93600400  0.83744700  0.08262600  1
  H  625  1  0.98274450  0.09195550  0.74058600  1
  H  626  1  0.08088050  0.17731950  0.74209200  1
  H  627  1  0.16857550  0.16765150  0.75055800  1
  H  628  1  0.15834800  0.07365300  0.75608600  1
  H  639  1  0.94805950  0.87880650  0.39258900  1
  H  640  1  0.88371100  0.89741800  0.37326400  1
  H  641  1  0.88912000  0.99288300  0.37292900  1
  H  642  1  0.95840300  0.06924800  0.39190200  1
  H  653  1  0.89431200  0.86066100  0.62957300  1
  H  654  1  0.93164300  0.79379700  0.63673000  1
  H  655  1  0.00976350  0.79158550  0.61831600  1
  H  656  1  0.05383900  0.85950200  0.59447200  1
  H  667  1  0.97679900  0.11881600  0.95719500  1
  H  668  1  0.87187850  0.08687750  0.96350300  1
  H  669  1  0.79361850  0.01497150  0.94425500  1
  H  670  1  0.82052500  0.97027100  0.92061800  1
  H  681  1  0.17614200  0.02235700  0.28846000  1
  H  682  1  0.24416100  0.12431800  0.29401800  1
  H  683  1  0.23993000  0.19846800  0.27534300  1
  H  684  1  0.16328350  0.17042250  0.25297400  1
  H  695  1  0.47622050  0.35620450  0.07907200  1
  H  696  1  0.57945200  0.37587300  0.08096900  1
  H  697  1  0.65857600  0.47234900  0.08978200  1
  H  698  1  0.63492900  0.54883500  0.09548800  1
  H  709  1  0.62533100  0.99654500  0.72237300  1
  H  710  1  0.62486350  0.05732250  0.69838100  1
  H  711  1  0.53563750  0.06770750  0.69265000  1
  H  712  1  0.44639050  0.01662150  0.71094400  1
  H  723  1  0.96896100  0.57099800  0.39248000  1
  H  724  1  0.90823850  0.50351150  0.36981400  1
  H  725  1  0.91192650  0.41321450  0.36505500  1
  H  726  1  0.97627450  0.39031550  0.38314900  1
  H  737  1  0.46831300  0.81639400  0.60327000  1
  H  738  1  0.36296500  0.74512300  0.60562500  1
  H  739  1  0.28748500  0.75934700  0.58950100  1
  H  740  1  0.31696500  0.84705300  0.57277300  1
  H  751  1  0.43670500  0.53819600  0.92275300  1
  H  752  1  0.49934800  0.64059600  0.91669300  1
  H  753  1  0.56633350  0.67257050  0.89101000  1
  H  754  1  0.57259950  0.60099450  0.87185800  1
  H  765  1  0.13413450  0.56194250  0.26225100  1
  H  766  1  0.17505300  0.49599100  0.25957700  1
  H  767  1  0.15314100  0.43387200  0.23347900  1
  H  768  1  0.08511800  0.43396300  0.21072500  1
  H  779  1  0.07422000  0.16144900  0.20085300  1
  H  780  1  0.02227950  0.06923350  0.18568600  1
  H  781  1  0.02300150  0.06503250  0.15340200  1
  H  782  1  0.07660950  0.15322950  0.13619800  1
  H  793  1  0.81695900  0.88080000  0.86797700  1
  H  794  1  0.91190500  0.92795600  0.85249500  1
  H  795  1  0.91471400  0.92955200  0.82018000  1
  H  796  1  0.82234150  0.88455450  0.80327600  1
  H  807  1  0.11058000  0.92180100  0.53110900  1
  H  808  1  0.07814450  0.97725750  0.51296200  1
  H  809  1  0.07786750  0.96988850  0.48073200  1
  H  810  1  0.10939600  0.90641000  0.46655800  1
  H  821  1  0.90049150  0.88143250  0.19736000  1
  H  822  1  0.99582950  0.89418450  0.18580200  1
  H  823  1  0.99884900  0.85014000  0.15758100  1
  H  824  1  0.90748800  0.79295500  0.14093200  1
  H  835  1  0.11728950  0.96329450  0.86223300  1
  H  836  1  0.08601950  0.03419950  0.85361700  1
  H  837  1  0.12300300  0.08909700  0.82609000  1
  H  838  1  0.19131400  0.07426100  0.80723700  1
  H  849  1  0.03021450  0.12652450  0.53117600  1
  H  850  1  0.95736300  0.02797200  0.52221000  1
  H  851  1  0.90098900  0.01148500  0.49463900  1
  H  852  1  0.91626800  0.09246900  0.47607800  1
  N  521  1  0.30038250  0.27992350  0.01057400  1
  N  522  1  0.30854200  0.27372300  0.99370500  1
  N  535  1  0.69855950  0.96986950  0.67908000  1
  N  536  1  0.70331550  0.98518450  0.66236100  1
  N  549  1  0.02741900  0.70728500  0.34264600  1
  N  550  1  0.01022450  0.70017650  0.32602700  1
  N  563  1  0.72580650  0.70616450  0.00618700  1
  N  564  1  0.72511750  0.72449350  0.99008400  1
  N  577  1  0.33189250  0.03766950  0.67060700  1
  N  578  1  0.32242650  0.01984650  0.65410400  1
  N  591  1  0.96403050  0.25213650  0.33826100  1
  N  592  1  0.98487850  0.25841250  0.32202200  1
  N  605  1  0.00029600  0.04267600  0.08152000  1
  N  606  1  0.94541700  0.99877000  0.08237900  1
  N  619  1  0.95126250  0.92737250  0.74980900  1
  N  620  1  0.99968800  0.92127100  0.74886600  1
  N  633  1  0.06905150  0.99829750  0.42653300  1
  N  634  1  0.07370950  0.05086650  0.42574500  1
  N  647  1  0.95728700  0.97593000  0.58891400  1
  N  648  1  0.01181150  0.98961750  0.58371400  1
  N  661  1  0.03376750  0.05550850  0.91649400  1
  N  662  1  0.99361600  0.00287000  0.91151600  1
  N  675  1  0.04779550  0.96342050  0.24984500  1
  N  676  1  0.03094250  0.00157750  0.24519100  1
  N  689  1  0.42159700  0.47584000  0.08874600  1
  N  690  1  0.46544100  0.53004400  0.08893500  1
  N  703  1  0.48418200  0.90698500  0.75440500  1
  N  704  1  0.42845000  0.89748700  0.75005400  1
  N  717  1  0.08331750  0.54854950  0.42354300  1
  N  718  1  0.09670950  0.50589150  0.41863700  1
  N  731  1  0.53218200  0.96528100  0.57380300  1
  N  732  1  0.49152000  0.98110100  0.57010900  1
  N  745  1  0.42546900  0.40974600  0.88870300  1
  N  746  1  0.46771600  0.42757500  0.87651000  1
  N  759  1  0.03245400  0.58165100  0.22289200  1
  N  760  1  0.01347050  0.54159150  0.21043800  1
  N  773  1  0.16600150  0.31835250  0.17524300  1
  N  774  1  0.16769950  0.31583850  0.15796500  1
  N  787  1  0.65290950  0.79872150  0.84295900  1
  N  788  1  0.65447300  0.80073500  0.82564300  1
  N  801  1  0.16949000  0.81313400  0.51081800  1
  N  802  1  0.16815250  0.80819750  0.49357300  1
  N  815  1  0.74024900  0.78962300  0.17284300  1
  N  816  1  0.74034900  0.76388900  0.15788400  1
  N  829  1  0.23053250  0.92792950  0.83386200  1
  N  830  1  0.25295600  0.95852200  0.81931200  1
  N  843  1  0.06689350  0.27106750  0.50326200  1
  N  844  1  0.03563350  0.26357150  0.48865100  1
