# generated using pymatgen
data_H16C20NO2
_symmetry_space_group_name_H-M   'P 1'
_cell_length_a   36.72810000
_cell_length_b   36.72810000
_cell_length_c   36.72810000
_cell_angle_alpha   90.00000000
_cell_angle_beta   90.00000000
_cell_angle_gamma   90.00000000
_symmetry_Int_Tables_number   1
_chemical_formula_structural   H16C20NO2
_chemical_formula_sum   'H512 C640 N32 O64'
_cell_volume   49544.49278525
_cell_formula_units_Z   32
loop_
 _symmetry_equiv_pos_site_id
 _symmetry_equiv_pos_as_xyz
  1  'x, y, z'
loop_
 _atom_site_type_symbol
 _atom_site_label
 _atom_site_symmetry_multiplicity
 _atom_site_fract_x
 _atom_site_fract_y
 _atom_site_fract_z
 _atom_site_occupancy
  H  7  1  0.06326700  0.02253200  0.98153800  1
  H  16  1  0.94938000  0.99009500  0.03104000  1
  H  17  1  0.02844900  0.87957500  0.08053600  1
  H  18  1  0.98372100  0.87970300  0.08054100  1
  H  19  1  0.98398300  0.13277200  0.93187000  1
  H  20  1  0.02870900  0.13279800  0.93187000  1
  H  21  1  0.94941000  0.02245200  0.98139400  1
  H  22  1  0.06323400  0.98979900  0.03090300  1
  H  29  1  0.44916600  0.98980700  0.48152000  1
  H  38  1  0.56301100  0.02247100  0.53099400  1
  H  39  1  0.48370300  0.13275900  0.58069700  1
  H  40  1  0.52840500  0.13280200  0.58082300  1
  H  41  1  0.52863400  0.87967800  0.43158800  1
  H  42  1  0.48393200  0.87963200  0.43171600  1
  H  43  1  0.56303800  0.99006800  0.48139700  1
  H  44  1  0.44913600  0.02254500  0.53086100  1
  H  51  1  0.24004500  0.81268900  0.23111800  1
  H  60  1  0.27243700  0.69892600  0.28092700  1
  H  61  1  0.38396000  0.77777800  0.32828800  1
  H  62  1  0.38376600  0.73305200  0.32825600  1
  H  63  1  0.12865300  0.73306600  0.18410900  1
  H  64  1  0.12846500  0.77779200  0.18407800  1
  H  65  1  0.23996100  0.69892600  0.23148100  1
  H  66  1  0.27236700  0.81268300  0.28128900  1
  H  73  1  0.27230100  0.19974300  0.73106700  1
  H  82  1  0.23987100  0.31348500  0.78087400  1
  H  83  1  0.12841400  0.23450400  0.82781100  1
  H  84  1  0.12854700  0.27927100  0.82773200  1
  H  85  1  0.38385900  0.27928200  0.68470200  1
  H  86  1  0.38399500  0.23451300  0.68462100  1
  H  87  1  0.27252400  0.31348800  0.73153600  1
  H  88  1  0.24010200  0.19974100  0.78134000  1
  H  95  1  0.77242800  0.19946900  0.78123600  1
  H  104  1  0.74004400  0.31321500  0.73141300  1
  H  105  1  0.62846200  0.23439400  0.68447400  1
  H  106  1  0.62868500  0.27916200  0.68448200  1
  H  107  1  0.88373800  0.27915200  0.82793600  1
  H  108  1  0.88395600  0.23438300  0.82794400  1
  H  109  1  0.77239800  0.31321500  0.78097500  1
  H  110  1  0.74000100  0.19947200  0.73115200  1
  H  117  1  0.74002800  0.81294500  0.28127000  1
  H  126  1  0.77246600  0.69917900  0.23149300  1
  H  127  1  0.88394000  0.77809100  0.18440300  1
  H  128  1  0.88382800  0.73334900  0.18430800  1
  H  129  1  0.62860100  0.73332700  0.32811400  1
  H  130  1  0.62848400  0.77807200  0.32801600  1
  H  131  1  0.73997600  0.69917600  0.28094600  1
  H  132  1  0.77239500  0.81294700  0.23116600  1
  H  139  1  0.56314100  0.52246100  0.48125000  1
  H  148  1  0.44948200  0.49010500  0.53127700  1
  H  149  1  0.52851100  0.37728600  0.57532300  1
  H  150  1  0.48374200  0.37739500  0.57534700  1
  H  151  1  0.48387200  0.63503500  0.43710200  1
  H  152  1  0.52864200  0.63508400  0.43710200  1
  H  153  1  0.44949300  0.52234700  0.48114100  1
  H  154  1  0.56312800  0.48986500  0.53112800  1
  H  161  1  0.94929000  0.48987300  0.98126800  1
  H  170  1  0.06290900  0.52239300  0.03125000  1
  H  171  1  0.98368300  0.63507500  0.07490400  1
  H  172  1  0.02849500  0.63505600  0.07488100  1
  H  173  1  0.02864500  0.37732200  0.93724700  1
  H  174  1  0.98385800  0.37729700  0.93737000  1
  H  175  1  0.06292700  0.49007500  0.98115100  1
  H  176  1  0.94927600  0.52242900  0.03118700  1
  H  183  1  0.92013500  0.90634700  0.16369600  1
  H  184  1  0.96698200  0.93599200  0.13150500  1
  H  191  1  0.85995500  0.83927100  0.09909700  1
  H  192  1  0.83052500  0.79281600  0.13176400  1
  H  193  1  0.82462200  0.85987100  0.22424500  1
  H  194  1  0.90422900  0.93400700  0.03590200  1
  H  198  1  0.85949200  0.94295400  0.17833200  1
  H  199  1  0.86681900  0.91886400  0.21908400  1
  H  200  1  0.79803200  0.93863100  0.18813100  1
  H  202  1  0.82054900  0.89937200  0.08024500  1
  H  203  1  0.83483300  0.93254300  0.04885100  1
  H  204  1  0.82575500  0.87613900  0.02216500  1
  H  211  1  0.59225300  0.10617100  0.66368600  1
  H  212  1  0.54536700  0.07651100  0.63150600  1
  H  219  1  0.65248200  0.17321500  0.59905900  1
  H  220  1  0.68190600  0.21963200  0.63173700  1
  H  221  1  0.68772700  0.15256400  0.72422000  1
  H  222  1  0.60807400  0.07844500  0.53588200  1
  H  226  1  0.65287100  0.06950800  0.67823600  1
  H  227  1  0.64543800  0.09359400  0.71897600  1
  H  228  1  0.71430400  0.07381900  0.68819800  1
  H  230  1  0.69180000  0.11303600  0.58015800  1
  H  231  1  0.67745400  0.07986600  0.54879300  1
  H  232  1  0.68660300  0.13624000  0.52206900  1
  H  239  1  0.35641100  0.67046500  0.41332100  1
  H  240  1  0.32710700  0.71718200  0.38059700  1
  H  247  1  0.42386900  0.61068500  0.34967800  1
  H  248  1  0.47026100  0.58172700  0.38285700  1
  H  249  1  0.40213400  0.57463100  0.47447300  1
  H  250  1  0.32900400  0.65355200  0.28556100  1
  H  254  1  0.31941500  0.60951500  0.42784200  1
  H  255  1  0.34302900  0.61653100  0.46891400  1
  H  256  1  0.32372800  0.54797300  0.43716400  1
  H  258  1  0.36378200  0.57029700  0.33066500  1
  H  259  1  0.33069800  0.58422300  0.29900800  1
  H  260  1  0.38726200  0.57514300  0.27266100  1
  H  267  1  0.15585100  0.34191300  0.91325500  1
  H  268  1  0.18512400  0.29516100  0.88049800  1
  H  275  1  0.08852000  0.40186400  0.84964100  1
  H  276  1  0.04216500  0.43077700  0.88287500  1
  H  277  1  0.11032000  0.43768400  0.97449100  1
  H  278  1  0.18344500  0.35888600  0.78552700  1
  H  282  1  0.19299100  0.40281200  0.92775100  1
  H  283  1  0.16938100  0.39567000  0.96880900  1
  H  284  1  0.18873600  0.46432300  0.93730200  1
  H  286  1  0.14875200  0.44216300  0.83065100  1
  H  287  1  0.18184400  0.42818500  0.79902400  1
  H  288  1  0.12533100  0.43741700  0.77261300  1
  H  295  1  0.59230200  0.90637700  0.34871400  1
  H  296  1  0.54545200  0.93603000  0.38089400  1
  H  303  1  0.65243500  0.83925400  0.41332700  1
  H  304  1  0.68187100  0.79279900  0.38066500  1
  H  305  1  0.68781700  0.85986500  0.28819400  1
  H  306  1  0.60815300  0.93396900  0.47652900  1
  H  310  1  0.65295800  0.94295400  0.33411200  1
  H  311  1  0.64563100  0.91887200  0.29335300  1
  H  312  1  0.71441800  0.93860900  0.32432700  1
  H  314  1  0.69184400  0.89933100  0.43221200  1
  H  315  1  0.67755500  0.93249600  0.46361000  1
  H  316  1  0.68660800  0.87608200  0.49028200  1
  H  323  1  0.92019800  0.10621400  0.84872900  1
  H  324  1  0.96708300  0.07656200  0.88091700  1
  H  331  1  0.85991200  0.17319800  0.91334800  1
  H  332  1  0.83049000  0.21961600  0.88066700  1
  H  333  1  0.82472100  0.15256700  0.78816800  1
  H  334  1  0.90432200  0.07840500  0.97650900  1
  H  338  1  0.85959800  0.06951300  0.83414100  1
  H  339  1  0.86702900  0.09361200  0.79340900  1
  H  340  1  0.79816600  0.07379800  0.82416200  1
  H  342  1  0.82060600  0.11299100  0.93220800  1
  H  343  1  0.83494700  0.07981100  0.96356500  1
  H  344  1  0.82576900  0.13617200  0.99031000  1
  H  351  1  0.15603700  0.67047100  0.09906300  1
  H  352  1  0.18535100  0.71717600  0.13179300  1
  H  359  1  0.08848900  0.61077500  0.16268600  1
  H  360  1  0.04209100  0.58184600  0.12948800  1
  H  361  1  0.11027900  0.57463400  0.03792400  1
  H  362  1  0.18335300  0.65357600  0.22684500  1
  H  366  1  0.19299500  0.60947100  0.08459700  1
  H  367  1  0.16942100  0.61648200  0.04350100  1
  H  368  1  0.18863300  0.54792700  0.07531000  1
  H  370  1  0.14853600  0.57033200  0.18174500  1
  H  371  1  0.18161600  0.58424200  0.21341700  1
  H  372  1  0.12502900  0.57521100  0.23973700  1
  H  379  1  0.35657500  0.34192100  0.59917100  1
  H  380  1  0.32730500  0.29516100  0.63192300  1
  H  387  1  0.42385800  0.40190800  0.66280100  1
  H  388  1  0.47021200  0.43084200  0.62959200  1
  H  389  1  0.40209800  0.43770100  0.53794000  1
  H  390  1  0.32892500  0.35889700  0.72688500  1
  H  394  1  0.31942300  0.40279300  0.58464300  1
  H  395  1  0.34305900  0.39565600  0.54360000  1
  H  396  1  0.32364900  0.46430400  0.57508300  1
  H  398  1  0.36360500  0.44218200  0.68176700  1
  H  399  1  0.33050700  0.42819600  0.71338300  1
  H  400  1  0.38700900  0.43745300  0.73981300  1
  H  407  1  0.09248300  0.10615100  0.84880600  1
  H  408  1  0.04566200  0.07644700  0.88098300  1
  H  415  1  0.15242500  0.17349300  0.91335300  1
  H  416  1  0.18179700  0.21994500  0.88063100  1
  H  417  1  0.18797700  0.15271300  0.78829600  1
  H  418  1  0.10827300  0.07875400  0.97667000  1
  H  422  1  0.15323700  0.06964400  0.83434000  1
  H  423  1  0.14591700  0.09362900  0.79352400  1
  H  424  1  0.21470100  0.07409300  0.82463100  1
  H  426  1  0.19192300  0.11353900  0.93239600  1
  H  427  1  0.17767900  0.08039000  0.96383200  1
  H  428  1  0.18656100  0.13687200  0.99041900  1
  H  435  1  0.41998400  0.90613500  0.34879000  1
  H  436  1  0.46683400  0.93587000  0.38095100  1
  H  443  1  0.35990700  0.83891700  0.41339500  1
  H  444  1  0.33051600  0.79249400  0.38069800  1
  H  445  1  0.32453400  0.85964200  0.28828400  1
  H  446  1  0.40421900  0.93371300  0.47663000  1
  H  450  1  0.35928900  0.94270700  0.33433000  1
  H  451  1  0.36671700  0.91868400  0.29355200  1
  H  452  1  0.29785400  0.93829800  0.32443300  1
  H  454  1  0.32053100  0.89897200  0.43241300  1
  H  455  1  0.33483900  0.93213400  0.46380300  1
  H  456  1  0.32585400  0.87570600  0.49046700  1
  H  463  1  0.65600200  0.34161900  0.59902400  1
  H  464  1  0.68526900  0.29490500  0.63178400  1
  H  471  1  0.58870200  0.40161100  0.66265400  1
  H  472  1  0.54233400  0.43062700  0.62949400  1
  H  473  1  0.61037800  0.43748800  0.53779600  1
  H  474  1  0.68356400  0.35866800  0.72673300  1
  H  478  1  0.69307500  0.40248000  0.58437900  1
  H  479  1  0.66940300  0.39546600  0.54333600  1
  H  480  1  0.68887600  0.46401800  0.57499100  1
  H  482  1  0.64887700  0.44191800  0.68154700  1
  H  483  1  0.68196600  0.42797800  0.71319500  1
  H  484  1  0.62544000  0.43719100  0.73958100  1
  H  491  1  0.85646500  0.67071800  0.09906900  1
  H  492  1  0.82719300  0.71747800  0.13181700  1
  H  499  1  0.92373700  0.61068800  0.16269500  1
  H  500  1  0.97006200  0.58169400  0.12949600  1
  H  501  1  0.90195600  0.57489800  0.03783700  1
  H  502  1  0.82883700  0.65375900  0.22678900  1
  H  506  1  0.81930800  0.60988800  0.08452300  1
  H  507  1  0.84296300  0.61702100  0.04349000  1
  H  508  1  0.82348400  0.54837600  0.07494000  1
  H  510  1  0.86348100  0.57046000  0.18167000  1
  H  511  1  0.83039500  0.58446000  0.21329300  1
  H  512  1  0.88689900  0.57518700  0.23970900  1
  H  519  1  0.41991300  0.10613200  0.66361800  1
  H  520  1  0.46673300  0.07642100  0.63144600  1
  H  527  1  0.36000200  0.17350800  0.59906800  1
  H  528  1  0.33063000  0.21995800  0.63178900  1
  H  529  1  0.32441400  0.15271300  0.72411100  1
  H  530  1  0.40415400  0.07878000  0.53574000  1
  H  534  1  0.35914800  0.06964500  0.67806200  1
  H  535  1  0.36646300  0.09362000  0.71888300  1
  H  536  1  0.29768200  0.07410700  0.68776000  1
  H  538  1  0.32049900  0.11357400  0.57999800  1
  H  539  1  0.33474400  0.08043000  0.54855900  1
  H  540  1  0.32588400  0.13692100  0.52198200  1
  H  547  1  0.09240600  0.90608900  0.16360800  1
  H  548  1  0.04554400  0.93580200  0.13144300  1
  H  555  1  0.15254500  0.83894100  0.09899500  1
  H  556  1  0.18194000  0.79251900  0.13169100  1
  H  557  1  0.18785400  0.85963900  0.22413100  1
  H  558  1  0.10819600  0.93374900  0.03578600  1
  H  562  1  0.15307600  0.94270100  0.17809600  1
  H  563  1  0.14564700  0.91866200  0.21886400  1
  H  564  1  0.21451100  0.93832300  0.18801400  1
  H  566  1  0.19189200  0.89904000  0.08001900  1
  H  567  1  0.17757400  0.93220800  0.04864100  1
  H  568  1  0.18660900  0.87579900  0.02195000  1
  H  575  1  0.85640500  0.34161600  0.91338300  1
  H  576  1  0.82713800  0.29490500  0.88061800  1
  H  583  1  0.92375100  0.40157300  0.84978000  1
  H  584  1  0.97011100  0.43057500  0.88296200  1
  H  585  1  0.90201600  0.43748300  0.97461700  1
  H  586  1  0.82889400  0.35865500  0.78566000  1
  H  590  1  0.81933500  0.40249000  0.92799800  1
  H  591  1  0.84298200  0.39547400  0.96905100  1
  H  592  1  0.82354700  0.46402900  0.93738400  1
  H  594  1  0.86359500  0.44189900  0.83084700  1
  H  595  1  0.83051200  0.42796700  0.79919000  1
  H  596  1  0.88705200  0.43715600  0.77282600  1
  H  603  1  0.65596100  0.67071000  0.41336200  1
  H  604  1  0.68523300  0.71747000  0.38061600  1
  H  611  1  0.58870800  0.61067400  0.34970500  1
  H  612  1  0.54237000  0.58168000  0.38288400  1
  H  613  1  0.61042900  0.57489000  0.47457700  1
  H  614  1  0.68361300  0.65374500  0.28564800  1
  H  618  1  0.69310200  0.60987400  0.42792600  1
  H  619  1  0.66943300  0.61700200  0.46895200  1
  H  620  1  0.68891400  0.54836200  0.43749400  1
  H  622  1  0.64896700  0.57044600  0.33076100  1
  H  623  1  0.68205900  0.58444900  0.29914700  1
  H  624  1  0.62556200  0.57517000  0.27271500  1
  H  631  1  0.06326700  0.02253200  0.28103600  1
  H  640  1  0.94938000  0.99009500  0.33053800  1
  H  641  1  0.02844900  0.87957500  0.38003400  1
  H  642  1  0.98372100  0.87970300  0.38003900  1
  H  643  1  0.98398300  0.13277200  0.23136800  1
  H  644  1  0.02870900  0.13279800  0.23136800  1
  H  645  1  0.94941000  0.02245200  0.28089200  1
  H  646  1  0.06323400  0.98979900  0.33040100  1
  H  653  1  0.44916600  0.98980700  0.78101800  1
  H  662  1  0.56301100  0.02247100  0.83049200  1
  H  663  1  0.48370300  0.13275900  0.88019500  1
  H  664  1  0.52840500  0.13280200  0.88032100  1
  H  665  1  0.52863400  0.87967800  0.73108600  1
  H  666  1  0.48393200  0.87963200  0.73121400  1
  H  667  1  0.56303800  0.99006800  0.78089500  1
  H  668  1  0.44913600  0.02254500  0.83035900  1
  H  675  1  0.24004500  0.81268900  0.53061600  1
  H  684  1  0.27243700  0.69892600  0.58042500  1
  H  685  1  0.38396000  0.77777800  0.62778600  1
  H  686  1  0.38376600  0.73305200  0.62775400  1
  H  687  1  0.12865300  0.73306600  0.48360700  1
  H  688  1  0.12846500  0.77779200  0.48357600  1
  H  689  1  0.23996100  0.69892600  0.53097900  1
  H  690  1  0.27236700  0.81268300  0.58078700  1
  H  697  1  0.27230100  0.19974300  0.03056520  1
  H  706  1  0.23987100  0.31348500  0.08037220  1
  H  707  1  0.12841400  0.23450400  0.12730900  1
  H  708  1  0.12854700  0.27927100  0.12723000  1
  H  709  1  0.38385900  0.27928200  0.98420000  1
  H  710  1  0.38399500  0.23451300  0.98411900  1
  H  711  1  0.27252400  0.31348800  0.03103420  1
  H  712  1  0.24010200  0.19974100  0.08083820  1
  H  719  1  0.77242800  0.19946900  0.08073420  1
  H  728  1  0.74004400  0.31321500  0.03091120  1
  H  729  1  0.62846200  0.23439400  0.98397200  1
  H  730  1  0.62868500  0.27916200  0.98398000  1
  H  731  1  0.88373800  0.27915200  0.12743400  1
  H  732  1  0.88395600  0.23438300  0.12744200  1
  H  733  1  0.77239800  0.31321500  0.08047320  1
  H  734  1  0.74000100  0.19947200  0.03065020  1
  H  741  1  0.74002800  0.81294500  0.58076800  1
  H  750  1  0.77246600  0.69917900  0.53099100  1
  H  751  1  0.88394000  0.77809100  0.48390100  1
  H  752  1  0.88382800  0.73334900  0.48380600  1
  H  753  1  0.62860100  0.73332700  0.62761200  1
  H  754  1  0.62848400  0.77807200  0.62751400  1
  H  755  1  0.73997600  0.69917600  0.58044400  1
  H  756  1  0.77239500  0.81294700  0.53066400  1
  H  763  1  0.56314100  0.52246100  0.78074800  1
  H  772  1  0.44948200  0.49010500  0.83077500  1
  H  773  1  0.52851100  0.37728600  0.87482100  1
  H  774  1  0.48374200  0.37739500  0.87484500  1
  H  775  1  0.48387200  0.63503500  0.73660000  1
  H  776  1  0.52864200  0.63508400  0.73660000  1
  H  777  1  0.44949300  0.52234700  0.78063900  1
  H  778  1  0.56312800  0.48986500  0.83062600  1
  H  785  1  0.94929000  0.48987300  0.28076600  1
  H  794  1  0.06290900  0.52239300  0.33074800  1
  H  795  1  0.98368300  0.63507500  0.37440200  1
  H  796  1  0.02849500  0.63505600  0.37437900  1
  H  797  1  0.02864500  0.37732200  0.23674500  1
  H  798  1  0.98385800  0.37729700  0.23686800  1
  H  799  1  0.06292700  0.49007500  0.28064900  1
  H  800  1  0.94927600  0.52242900  0.33068500  1
  H  807  1  0.92013500  0.90634700  0.46319400  1
  H  808  1  0.96698200  0.93599200  0.43100300  1
  H  815  1  0.85995500  0.83927100  0.39859500  1
  H  816  1  0.83052500  0.79281600  0.43126200  1
  H  817  1  0.82462200  0.85987100  0.52374300  1
  H  818  1  0.90422900  0.93400700  0.33540000  1
  H  822  1  0.85949200  0.94295400  0.47783000  1
  H  823  1  0.86681900  0.91886400  0.51858200  1
  H  824  1  0.79803200  0.93863100  0.48762900  1
  H  826  1  0.82054900  0.89937200  0.37974300  1
  H  827  1  0.83483300  0.93254300  0.34834900  1
  H  828  1  0.82575500  0.87613900  0.32166300  1
  H  835  1  0.59225300  0.10617100  0.96318400  1
  H  836  1  0.54536700  0.07651100  0.93100400  1
  H  843  1  0.65248200  0.17321500  0.89855700  1
  H  844  1  0.68190600  0.21963200  0.93123500  1
  H  845  1  0.68772700  0.15256400  0.02371820  1
  H  846  1  0.60807400  0.07844500  0.83538000  1
  H  850  1  0.65287100  0.06950800  0.97773400  1
  H  851  1  0.64543800  0.09359400  0.01847420  1
  H  852  1  0.71430400  0.07381900  0.98769600  1
  H  854  1  0.69180000  0.11303600  0.87965600  1
  H  855  1  0.67745400  0.07986600  0.84829100  1
  H  856  1  0.68660300  0.13624000  0.82156700  1
  H  863  1  0.35641100  0.67046500  0.71281900  1
  H  864  1  0.32710700  0.71718200  0.68009500  1
  H  871  1  0.42386900  0.61068500  0.64917600  1
  H  872  1  0.47026100  0.58172700  0.68235500  1
  H  873  1  0.40213400  0.57463100  0.77397100  1
  H  874  1  0.32900400  0.65355200  0.58505900  1
  H  878  1  0.31941500  0.60951500  0.72734000  1
  H  879  1  0.34302900  0.61653100  0.76841200  1
  H  880  1  0.32372800  0.54797300  0.73666200  1
  H  882  1  0.36378200  0.57029700  0.63016300  1
  H  883  1  0.33069800  0.58422300  0.59850600  1
  H  884  1  0.38726200  0.57514300  0.57215900  1
  H  891  1  0.15585100  0.34191300  0.21275300  1
  H  892  1  0.18512400  0.29516100  0.17999600  1
  H  899  1  0.08852000  0.40186400  0.14913900  1
  H  900  1  0.04216500  0.43077700  0.18237300  1
  H  901  1  0.11032000  0.43768400  0.27398900  1
  H  902  1  0.18344500  0.35888600  0.08502520  1
  H  906  1  0.19299100  0.40281200  0.22724900  1
  H  907  1  0.16938100  0.39567000  0.26830700  1
  H  908  1  0.18873600  0.46432300  0.23680000  1
  H  910  1  0.14875200  0.44216300  0.13014900  1
  H  911  1  0.18184400  0.42818500  0.09852220  1
  H  912  1  0.12533100  0.43741700  0.07211120  1
  H  919  1  0.59230200  0.90637700  0.64821200  1
  H  920  1  0.54545200  0.93603000  0.68039200  1
  H  927  1  0.65243500  0.83925400  0.71282500  1
  H  928  1  0.68187100  0.79279900  0.68016300  1
  H  929  1  0.68781700  0.85986500  0.58769200  1
  H  930  1  0.60815300  0.93396900  0.77602700  1
  H  934  1  0.65295800  0.94295400  0.63361000  1
  H  935  1  0.64563100  0.91887200  0.59285100  1
  H  936  1  0.71441800  0.93860900  0.62382500  1
  H  938  1  0.69184400  0.89933100  0.73171000  1
  H  939  1  0.67755500  0.93249600  0.76310800  1
  H  940  1  0.68660800  0.87608200  0.78978000  1
  H  947  1  0.92019800  0.10621400  0.14822700  1
  H  948  1  0.96708300  0.07656200  0.18041500  1
  H  955  1  0.85991200  0.17319800  0.21284600  1
  H  956  1  0.83049000  0.21961600  0.18016500  1
  H  957  1  0.82472100  0.15256700  0.08766620  1
  H  958  1  0.90432200  0.07840500  0.27600700  1
  H  962  1  0.85959800  0.06951300  0.13363900  1
  H  963  1  0.86702900  0.09361200  0.09290720  1
  H  964  1  0.79816600  0.07379800  0.12366000  1
  H  966  1  0.82060600  0.11299100  0.23170600  1
  H  967  1  0.83494700  0.07981100  0.26306300  1
  H  968  1  0.82576900  0.13617200  0.28980800  1
  H  975  1  0.15603700  0.67047100  0.39856100  1
  H  976  1  0.18535100  0.71717600  0.43129100  1
  H  983  1  0.08848900  0.61077500  0.46218400  1
  H  984  1  0.04209100  0.58184600  0.42898600  1
  H  985  1  0.11027900  0.57463400  0.33742200  1
  H  986  1  0.18335300  0.65357600  0.52634300  1
  H  990  1  0.19299500  0.60947100  0.38409500  1
  H  991  1  0.16942100  0.61648200  0.34299900  1
  H  992  1  0.18863300  0.54792700  0.37480800  1
  H  994  1  0.14853600  0.57033200  0.48124300  1
  H  995  1  0.18161600  0.58424200  0.51291500  1
  H  996  1  0.12502900  0.57521100  0.53923500  1
  H  1003  1  0.35657500  0.34192100  0.89866900  1
  H  1004  1  0.32730500  0.29516100  0.93142100  1
  H  1011  1  0.42385800  0.40190800  0.96229900  1
  H  1012  1  0.47021200  0.43084200  0.92909000  1
  H  1013  1  0.40209800  0.43770100  0.83743800  1
  H  1014  1  0.32892500  0.35889700  0.02638320  1
  H  1018  1  0.31942300  0.40279300  0.88414100  1
  H  1019  1  0.34305900  0.39565600  0.84309800  1
  H  1020  1  0.32364900  0.46430400  0.87458100  1
  H  1022  1  0.36360500  0.44218200  0.98126500  1
  H  1023  1  0.33050700  0.42819600  0.01288120  1
  H  1024  1  0.38700900  0.43745300  0.03931120  1
  H  1031  1  0.09248300  0.10615100  0.14830400  1
  H  1032  1  0.04566200  0.07644700  0.18048100  1
  H  1039  1  0.15242500  0.17349300  0.21285100  1
  H  1040  1  0.18179700  0.21994500  0.18012900  1
  H  1041  1  0.18797700  0.15271300  0.08779420  1
  H  1042  1  0.10827300  0.07875400  0.27616800  1
  H  1046  1  0.15323700  0.06964400  0.13383800  1
  H  1047  1  0.14591700  0.09362900  0.09302220  1
  H  1048  1  0.21470100  0.07409300  0.12412900  1
  H  1050  1  0.19192300  0.11353900  0.23189400  1
  H  1051  1  0.17767900  0.08039000  0.26333000  1
  H  1052  1  0.18656100  0.13687200  0.28991700  1
  H  1059  1  0.41998400  0.90613500  0.64828800  1
  H  1060  1  0.46683400  0.93587000  0.68044900  1
  H  1067  1  0.35990700  0.83891700  0.71289300  1
  H  1068  1  0.33051600  0.79249400  0.68019600  1
  H  1069  1  0.32453400  0.85964200  0.58778200  1
  H  1070  1  0.40421900  0.93371300  0.77612800  1
  H  1074  1  0.35928900  0.94270700  0.63382800  1
  H  1075  1  0.36671700  0.91868400  0.59305000  1
  H  1076  1  0.29785400  0.93829800  0.62393100  1
  H  1078  1  0.32053100  0.89897200  0.73191100  1
  H  1079  1  0.33483900  0.93213400  0.76330100  1
  H  1080  1  0.32585400  0.87570600  0.78996500  1
  H  1087  1  0.65600200  0.34161900  0.89852200  1
  H  1088  1  0.68526900  0.29490500  0.93128200  1
  H  1095  1  0.58870200  0.40161100  0.96215200  1
  H  1096  1  0.54233400  0.43062700  0.92899200  1
  H  1097  1  0.61037800  0.43748800  0.83729400  1
  H  1098  1  0.68356400  0.35866800  0.02623120  1
  H  1102  1  0.69307500  0.40248000  0.88387700  1
  H  1103  1  0.66940300  0.39546600  0.84283400  1
  H  1104  1  0.68887600  0.46401800  0.87448900  1
  H  1106  1  0.64887700  0.44191800  0.98104500  1
  H  1107  1  0.68196600  0.42797800  0.01269320  1
  H  1108  1  0.62544000  0.43719100  0.03907920  1
  H  1115  1  0.85646500  0.67071800  0.39856700  1
  H  1116  1  0.82719300  0.71747800  0.43131500  1
  H  1123  1  0.92373700  0.61068800  0.46219300  1
  H  1124  1  0.97006200  0.58169400  0.42899400  1
  H  1125  1  0.90195600  0.57489800  0.33733500  1
  H  1126  1  0.82883700  0.65375900  0.52628700  1
  H  1130  1  0.81930800  0.60988800  0.38402100  1
  H  1131  1  0.84296300  0.61702100  0.34298800  1
  H  1132  1  0.82348400  0.54837600  0.37443800  1
  H  1134  1  0.86348100  0.57046000  0.48116800  1
  H  1135  1  0.83039500  0.58446000  0.51279100  1
  H  1136  1  0.88689900  0.57518700  0.53920700  1
  H  1143  1  0.41991300  0.10613200  0.96311600  1
  H  1144  1  0.46673300  0.07642100  0.93094400  1
  H  1151  1  0.36000200  0.17350800  0.89856600  1
  H  1152  1  0.33063000  0.21995800  0.93128700  1
  H  1153  1  0.32441400  0.15271300  0.02360920  1
  H  1154  1  0.40415400  0.07878000  0.83523800  1
  H  1158  1  0.35914800  0.06964500  0.97756000  1
  H  1159  1  0.36646300  0.09362000  0.01838120  1
  H  1160  1  0.29768200  0.07410700  0.98725800  1
  H  1162  1  0.32049900  0.11357400  0.87949600  1
  H  1163  1  0.33474400  0.08043000  0.84805700  1
  H  1164  1  0.32588400  0.13692100  0.82148000  1
  H  1171  1  0.09240600  0.90608900  0.46310600  1
  H  1172  1  0.04554400  0.93580200  0.43094100  1
  H  1179  1  0.15254500  0.83894100  0.39849300  1
  H  1180  1  0.18194000  0.79251900  0.43118900  1
  H  1181  1  0.18785400  0.85963900  0.52362900  1
  H  1182  1  0.10819600  0.93374900  0.33528400  1
  H  1186  1  0.15307600  0.94270100  0.47759400  1
  H  1187  1  0.14564700  0.91866200  0.51836200  1
  H  1188  1  0.21451100  0.93832300  0.48751200  1
  H  1190  1  0.19189200  0.89904000  0.37951700  1
  H  1191  1  0.17757400  0.93220800  0.34813900  1
  H  1192  1  0.18660900  0.87579900  0.32144800  1
  H  1199  1  0.85640500  0.34161600  0.21288100  1
  H  1200  1  0.82713800  0.29490500  0.18011600  1
  H  1207  1  0.92375100  0.40157300  0.14927800  1
  H  1208  1  0.97011100  0.43057500  0.18246000  1
  H  1209  1  0.90201600  0.43748300  0.27411500  1
  H  1210  1  0.82889400  0.35865500  0.08515820  1
  H  1214  1  0.81933500  0.40249000  0.22749600  1
  H  1215  1  0.84298200  0.39547400  0.26854900  1
  H  1216  1  0.82354700  0.46402900  0.23688200  1
  H  1218  1  0.86359500  0.44189900  0.13034500  1
  H  1219  1  0.83051200  0.42796700  0.09868820  1
  H  1220  1  0.88705200  0.43715600  0.07232420  1
  H  1227  1  0.65596100  0.67071000  0.71286000  1
  H  1228  1  0.68523300  0.71747000  0.68011400  1
  H  1235  1  0.58870800  0.61067400  0.64920300  1
  H  1236  1  0.54237000  0.58168000  0.68238200  1
  H  1237  1  0.61042900  0.57489000  0.77407500  1
  H  1238  1  0.68361300  0.65374500  0.58514600  1
  H  1242  1  0.69310200  0.60987400  0.72742400  1
  H  1243  1  0.66943300  0.61700200  0.76845000  1
  H  1244  1  0.68891400  0.54836200  0.73699200  1
  H  1246  1  0.64896700  0.57044600  0.63025900  1
  H  1247  1  0.68205900  0.58444900  0.59864500  1
  H  1248  1  0.62556200  0.57517000  0.57221300  1
  C  1  1  0.00632500  0.02098300  0.99255900  1
  C  2  1  0.03899600  0.03501200  0.97663400  1
  C  3  1  0.03970200  0.06524600  0.95254100  1
  C  4  1  0.00634500  0.08370400  0.94563300  1
  C  5  1  0.97299100  0.06520800  0.95245700  1
  C  6  1  0.97367500  0.03497600  0.97655800  1
  C  9  1  0.00629800  0.99144900  0.01986800  1
  C  10  1  0.03894100  0.97735800  0.03579800  1
  C  11  1  0.03958400  0.94712800  0.05990100  1
  C  12  1  0.00619500  0.92872300  0.06678900  1
  C  13  1  0.97287400  0.94727800  0.05995400  1
  C  14  1  0.97361700  0.97750600  0.03585100  1
  C  23  1  0.50610900  0.99148700  0.49250100  1
  C  24  1  0.47345800  0.97737800  0.47660800  1
  C  25  1  0.47281300  0.94715500  0.45249800  1
  C  26  1  0.50620100  0.92875500  0.44559100  1
  C  27  1  0.53952700  0.94728900  0.45244400  1
  C  28  1  0.53879200  0.97751100  0.47655400  1
  C  31  1  0.50608700  0.02095500  0.51989100  1
  C  32  1  0.47340900  0.03501100  0.53577800  1
  C  33  1  0.47270900  0.06523700  0.55988200  1
  C  34  1  0.50606800  0.08368200  0.56680900  1
  C  35  1  0.53942100  0.06519700  0.55996700  1
  C  36  1  0.53874300  0.03497700  0.53585200  1
  C  45  1  0.24133400  0.75587400  0.24267500  1
  C  46  1  0.22724600  0.78848700  0.22664900  1
  C  47  1  0.19673500  0.78906100  0.20283900  1
  C  48  1  0.17799400  0.75567000  0.19687500  1
  C  49  1  0.19668000  0.72238700  0.20331800  1
  C  50  1  0.22727500  0.72315200  0.22689300  1
  C  53  1  0.27107500  0.75587400  0.26972600  1
  C  54  1  0.28516600  0.78848400  0.28575400  1
  C  55  1  0.31568200  0.78905300  0.30955600  1
  C  56  1  0.33442300  0.75565900  0.31551100  1
  C  57  1  0.31573100  0.72238200  0.30907700  1
  C  58  1  0.28513600  0.72315000  0.28550100  1
  C  67  1  0.27109200  0.25653900  0.74270400  1
  C  68  1  0.28515500  0.22392600  0.72665900  1
  C  69  1  0.31571800  0.22333000  0.70291700  1
  C  70  1  0.33451000  0.25670800  0.69701200  1
  C  71  1  0.31583700  0.29000700  0.70343700  1
  C  72  1  0.28522000  0.28925800  0.72698300  1
  C  75  1  0.24130800  0.25653800  0.76970500  1
  C  76  1  0.22724600  0.22392400  0.78575000  1
  C  77  1  0.19668700  0.22332500  0.80949800  1
  C  78  1  0.17789500  0.25670200  0.81540900  1
  C  79  1  0.19656200  0.29000200  0.80897800  1
  C  80  1  0.22717800  0.28925600  0.78542600  1
  C  89  1  0.77110800  0.25628300  0.76969700  1
  C  90  1  0.78519800  0.22368100  0.78573700  1
  C  91  1  0.81573800  0.22310200  0.80950100  1
  C  92  1  0.83445400  0.25650600  0.81549600  1
  C  93  1  0.81572700  0.28978100  0.80909200  1
  C  94  1  0.78512700  0.28900200  0.78552200  1
  C  97  1  0.74132100  0.25628500  0.74269900  1
  C  98  1  0.72723100  0.22368400  0.72665900  1
  C  99  1  0.69668500  0.22310800  0.70289800  1
  C  100  1  0.67797200  0.25651400  0.69690800  1
  C  101  1  0.69669900  0.28978600  0.70330900  1
  C  102  1  0.72729100  0.28900800  0.72689300  1
  C  111  1  0.74135600  0.75612400  0.26976000  1
  C  112  1  0.72725300  0.78873700  0.28576500  1
  C  113  1  0.69671500  0.78931400  0.30953400  1
  C  114  1  0.67797700  0.75592000  0.31550800  1
  C  115  1  0.69668800  0.72264300  0.30910700  1
  C  116  1  0.72728300  0.72340000  0.28552300  1
  C  119  1  0.77107500  0.75612700  0.24267700  1
  C  120  1  0.78517300  0.78874300  0.22666900  1
  C  121  1  0.81571100  0.78932300  0.20289900  1
  C  122  1  0.83445100  0.75593400  0.19692200  1
  C  123  1  0.81574600  0.72265100  0.20332800  1
  C  124  1  0.78515700  0.72340600  0.22691400  1
  C  133  1  0.50630500  0.52122500  0.49287100  1
  C  134  1  0.53897700  0.53543500  0.47709000  1
  C  135  1  0.53962000  0.56636800  0.45388700  1
  C  136  1  0.50628600  0.58530200  0.44840900  1
  C  137  1  0.47297900  0.56631100  0.45383500  1
  C  138  1  0.47364300  0.53535600  0.47700300  1
  C  141  1  0.50629100  0.49116400  0.51952900  1
  C  142  1  0.53895500  0.47691800  0.53530200  1
  C  143  1  0.53957100  0.44598600  0.55850700  1
  C  144  1  0.50621800  0.42709300  0.56400400  1
  C  145  1  0.47292700  0.44611400  0.55857500  1
  C  146  1  0.47361900  0.47706300  0.53540200  1
  C  155  1  0.00611900  0.49115000  0.99289700  1
  C  156  1  0.97345700  0.47690500  0.97712400  1
  C  157  1  0.97282800  0.44594200  0.95396800  1
  C  158  1  0.00618400  0.42704400  0.94846800  1
  C  159  1  0.03948200  0.44605900  0.95390500  1
  C  160  1  0.03879200  0.47702700  0.97705100  1
  C  163  1  0.00610200  0.52124200  0.01952100  1
  C  164  1  0.97343000  0.53543500  0.03531300  1
  C  165  1  0.97276500  0.56639800  0.05847100  1
  C  166  1  0.00609100  0.58535900  0.06393900  1
  C  167  1  0.03941600  0.56638700  0.05850100  1
  C  168  1  0.03876200  0.53542100  0.03534600  1
  C  177  1  0.94060500  0.93717900  0.08003500  1
  C  178  1  0.90681800  0.92953100  0.06329700  1
  C  179  1  0.87734500  0.91355700  0.08281900  1
  C  180  1  0.88171500  0.90407400  0.12040900  1
  C  181  1  0.91503300  0.91363900  0.13727300  1
  C  182  1  0.94311800  0.93097400  0.11799700  1
  C  185  1  0.85793500  0.87982500  0.14039100  1
  C  186  1  0.85097000  0.84530700  0.12477200  1
  C  187  1  0.83394200  0.81737200  0.14449200  1
  C  188  1  0.82586100  0.82115600  0.18201900  1
  C  189  1  0.83075700  0.85614300  0.19730800  1
  C  190  1  0.84593600  0.88556800  0.17705800  1
  C  195  1  0.84295500  0.90724300  0.06227000  1
  C  196  1  0.84851400  0.92155400  0.19581600  1
  C  205  1  0.57168500  0.07539200  0.58001700  1
  C  206  1  0.60548200  0.08297500  0.56326700  1
  C  207  1  0.63498300  0.09893700  0.58276700  1
  C  208  1  0.63059400  0.10850300  0.62033500  1
  C  209  1  0.59732000  0.09890400  0.63725100  1
  C  210  1  0.56919900  0.08162800  0.61797400  1
  C  213  1  0.65453200  0.13260400  0.64030600  1
  C  214  1  0.66150800  0.16713900  0.62471300  1
  C  215  1  0.67847800  0.19508100  0.64447400  1
  C  216  1  0.68655100  0.19128400  0.68199900  1
  C  217  1  0.68158800  0.15630700  0.69728400  1
  C  218  1  0.66643300  0.12688900  0.67700800  1
  C  223  1  0.66937600  0.10518600  0.56219900  1
  C  224  1  0.66380500  0.09090400  0.69575700  1
  C  233  1  0.32585200  0.69029700  0.32939100  1
  C  234  1  0.33344800  0.65636400  0.31294000  1
  C  235  1  0.34938700  0.62705700  0.33273700  1
  C  236  1  0.35870600  0.63172600  0.37032400  1
  C  237  1  0.34919900  0.66519100  0.38690800  1
  C  238  1  0.33208400  0.69318600  0.36731800  1
  C  241  1  0.38290300  0.60814800  0.39053200  1
  C  242  1  0.41765600  0.60160000  0.37528000  1
  C  243  1  0.44553700  0.58486900  0.39530800  1
  C  244  1  0.44133300  0.57648300  0.43272100  1
  C  245  1  0.40612500  0.58096400  0.44761900  1
  C  246  1  0.37683400  0.59604300  0.42710600  1
  C  251  1  0.35590500  0.59253300  0.31248300  1
  C  252  1  0.34063600  0.59841100  0.44546800  1
  C  261  1  0.18638700  0.32206400  0.82930800  1
  C  262  1  0.17892300  0.35604400  0.81288800  1
  C  263  1  0.16301300  0.38536500  0.83269000  1
  C  264  1  0.15357500  0.38063200  0.87024200  1
  C  265  1  0.16306400  0.34717600  0.88683900  1
  C  266  1  0.18009100  0.31914800  0.86722200  1
  C  269  1  0.12954000  0.40437200  0.89045500  1
  C  270  1  0.09477500  0.41096100  0.87523200  1
  C  271  1  0.06688900  0.42761300  0.89532600  1
  C  272  1  0.07111200  0.43593600  0.93274400  1
  C  273  1  0.10631200  0.43137600  0.94763500  1
  C  274  1  0.13558900  0.41633500  0.92707500  1
  C  279  1  0.15659900  0.41992100  0.81246000  1
  C  280  1  0.17178600  0.41387100  0.94542900  1
  C  289  1  0.57180200  0.93717400  0.43238000  1
  C  290  1  0.60557500  0.92950700  0.44913300  1
  C  291  1  0.63505400  0.91353300  0.42961700  1
  C  292  1  0.63070000  0.90406600  0.39202200  1
  C  293  1  0.59739600  0.91365200  0.37514300  1
  C  294  1  0.56930800  0.93099600  0.39441200  1
  C  297  1  0.65448000  0.87981700  0.37204200  1
  C  298  1  0.66143100  0.84529300  0.38765400  1
  C  299  1  0.67846200  0.81735800  0.36793600  1
  C  300  1  0.68655400  0.82114600  0.33041500  1
  C  301  1  0.68167200  0.85613800  0.31512900  1
  C  302  1  0.66649300  0.88556200  0.33537800  1
  C  307  1  0.66943300  0.90720200  0.45017900  1
  C  308  1  0.66393300  0.92155100  0.31662700  1
  C  317  1  0.94073500  0.07539200  0.93239000  1
  C  318  1  0.90692500  0.08295000  0.94912700  1
  C  319  1  0.87743000  0.09891300  0.92962100  1
  C  320  1  0.88183200  0.10850000  0.89206100  1
  C  321  1  0.91512300  0.09892900  0.87515900  1
  C  322  1  0.94324300  0.08165800  0.89443800  1
  C  325  1  0.85789100  0.13259800  0.87208800  1
  C  326  1  0.85089900  0.16712600  0.88768900  1
  C  327  1  0.83392900  0.19506800  0.86792500  1
  C  328  1  0.82586900  0.19127600  0.83039700  1
  C  329  1  0.83085200  0.15630400  0.81510400  1
  C  330  1  0.84600700  0.12688700  0.83538000  1
  C  335  1  0.84302500  0.10514100  0.95017500  1
  C  336  1  0.84865900  0.09090800  0.81662300  1
  C  345  1  0.18655900  0.69030300  0.18300700  1
  C  346  1  0.17892800  0.65638100  0.19946300  1
  C  347  1  0.16298000  0.62707900  0.17966600  1
  C  348  1  0.15368500  0.63174600  0.14207300  1
  C  349  1  0.16322800  0.66519700  0.12548300  1
  C  350  1  0.18035200  0.69318600  0.14507500  1
  C  353  1  0.12948000  0.60818000  0.12185700  1
  C  354  1  0.09471000  0.60167900  0.13709000  1
  C  355  1  0.06682400  0.58496700  0.11704800  1
  C  356  1  0.07104500  0.57657000  0.07964100  1
  C  357  1  0.10627300  0.58098900  0.06477000  1
  C  358  1  0.13556400  0.59605300  0.08529700  1
  C  363  1  0.15642100  0.59256800  0.19992600  1
  C  364  1  0.17177900  0.59837600  0.06695900  1
  C  373  1  0.32601500  0.32207000  0.68311000  1
  C  374  1  0.33346100  0.35605500  0.69952500  1
  C  375  1  0.34936800  0.38537800  0.67972800  1
  C  376  1  0.35882100  0.38064600  0.64218200  1
  C  377  1  0.34935100  0.34718400  0.62558100  1
  C  378  1  0.33232600  0.31915400  0.64519600  1
  C  381  1  0.38285400  0.40439400  0.62197100  1
  C  382  1  0.41760700  0.41100200  0.63721300  1
  C  383  1  0.44549300  0.42767000  0.61713300  1
  C  384  1  0.44128100  0.43600200  0.57971200  1
  C  385  1  0.40609500  0.43140300  0.56479900  1
  C  386  1  0.37681800  0.41634900  0.58534800  1
  C  391  1  0.35576100  0.41994000  0.69995800  1
  C  392  1  0.34063000  0.41386000  0.56697500  1
  C  401  1  0.07197100  0.07541000  0.93249100  1
  C  402  1  0.10571100  0.08317700  0.94926300  1
  C  403  1  0.13517100  0.09919700  0.92975700  1
  C  404  1  0.13083500  0.10859800  0.89214300  1
  C  405  1  0.09756400  0.09892300  0.87524900  1
  C  406  1  0.06949300  0.08154900  0.89451500  1
  C  409  1  0.15458800  0.13285800  0.87214500  1
  C  410  1  0.16145500  0.16742400  0.88770200  1
  C  411  1  0.17844800  0.19535600  0.86794600  1
  C  412  1  0.18657300  0.19151700  0.83043500  1
  C  413  1  0.18179500  0.15648200  0.81521600  1
  C  414  1  0.16665400  0.12706600  0.83550800  1
  C  419  1  0.16951100  0.10564200  0.95034900  1
  C  420  1  0.16419200  0.09103300  0.81682500  1
  C  429  1  0.44055400  0.93691300  0.43246500  1
  C  430  1  0.40679500  0.92921500  0.44923900  1
  C  431  1  0.37731300  0.91320300  0.42975600  1
  C  432  1  0.38168300  0.90368700  0.39217100  1
  C  433  1  0.41492500  0.91336900  0.37523600  1
  C  434  1  0.44302600  0.93068800  0.39450200  1
  C  437  1  0.35777000  0.87956700  0.37219200  1
  C  438  1  0.35085700  0.84500500  0.38775500  1
  C  439  1  0.33390500  0.81706200  0.36797700  1
  C  440  1  0.32582200  0.82087600  0.33045800  1
  C  441  1  0.33070600  0.85587900  0.31520600  1
  C  442  1  0.34582800  0.88530100  0.33550600  1
  C  447  1  0.34296100  0.90685100  0.45035600  1
  C  448  1  0.34837400  0.92131400  0.31679800  1
  C  457  1  0.68661100  0.32185700  0.68295400  1
  C  458  1  0.67908800  0.35582600  0.69936400  1
  C  459  1  0.66317700  0.38513000  0.67954300  1
  C  460  1  0.65380800  0.38042300  0.64197200  1
  C  461  1  0.66324500  0.34692000  0.62542600  1
  C  462  1  0.68033800  0.31892500  0.64503800  1
  C  465  1  0.62963000  0.40401500  0.62175000  1
  C  466  1  0.59490700  0.41065000  0.63703300  1
  C  467  1  0.56703800  0.42741700  0.61701600  1
  C  468  1  0.57121700  0.43574300  0.57958900  1
  C  469  1  0.60640300  0.43118800  0.56465800  1
  C  470  1  0.63568500  0.41606900  0.58515700  1
  C  475  1  0.65673200  0.41969300  0.69975300  1
  C  476  1  0.67185900  0.41360500  0.56676000  1
  C  485  1  0.82590800  0.69057800  0.18300700  1
  C  486  1  0.83336200  0.65659600  0.19942700  1
  C  487  1  0.84926000  0.62726900  0.17962900  1
  C  488  1  0.85871100  0.63199600  0.14207800  1
  C  489  1  0.84924100  0.66545500  0.12548100  1
  C  490  1  0.83221300  0.69348600  0.14509300  1
  C  493  1  0.88273300  0.60823500  0.12186500  1
  C  494  1  0.91748100  0.60160000  0.13710400  1
  C  495  1  0.94535000  0.58489900  0.11703000  1
  C  496  1  0.94113600  0.57655600  0.07961200  1
  C  497  1  0.90595500  0.58119600  0.06469800  1
  C  498  1  0.87668900  0.59628500  0.08523800  1
  C  503  1  0.85564800  0.59270500  0.19985900  1
  C  504  1  0.84051200  0.59881200  0.06685800  1
  C  513  1  0.44044000  0.07540500  0.57993000  1
  C  514  1  0.40670800  0.08319400  0.56314700  1
  C  515  1  0.37724500  0.09921600  0.58265000  1
  C  516  1  0.38157500  0.10860400  0.62026900  1
  C  517  1  0.41483500  0.09891200  0.63716900  1
  C  518  1  0.44290600  0.08153400  0.61790600  1
  C  521  1  0.35782200  0.13286600  0.64026500  1
  C  522  1  0.35096600  0.16743700  0.62471500  1
  C  523  1  0.33397100  0.19536800  0.64447100  1
  C  524  1  0.32583500  0.19152400  0.68198000  1
  C  525  1  0.33060500  0.15648500  0.69719100  1
  C  526  1  0.34574400  0.12707000  0.67689900  1
  C  531  1  0.34291500  0.10567600  0.56205000  1
  C  532  1  0.34819400  0.09103400  0.69557700  1
  C  541  1  0.07183700  0.93687200  0.07993900  1
  C  542  1  0.10561300  0.92922900  0.06317500  1
  C  543  1  0.13509900  0.91322800  0.08266100  1
  C  544  1  0.13072100  0.90368700  0.12023800  1
  C  545  1  0.09746600  0.91333700  0.13716600  1
  C  546  1  0.06935800  0.93064200  0.11789900  1
  C  549  1  0.15464400  0.87957500  0.14021500  1
  C  550  1  0.16158200  0.84502400  0.12464200  1
  C  551  1  0.17853700  0.81708100  0.14441600  1
  C  552  1  0.18660000  0.82088700  0.18194100  1
  C  553  1  0.18169600  0.85588500  0.19720300  1
  C  554  1  0.16656800  0.88530400  0.17690800  1
  C  559  1  0.16946500  0.90691100  0.06207300  1
  C  560  1  0.16399800  0.92130900  0.19562700  1
  C  569  1  0.82581800  0.32185200  0.82944400  1
  C  570  1  0.83336000  0.35581500  0.81303500  1
  C  571  1  0.84927400  0.38511700  0.83285600  1
  C  572  1  0.85862600  0.38041200  0.87043200  1
  C  573  1  0.84917300  0.34691400  0.88697800  1
  C  574  1  0.83208000  0.31892200  0.86736400  1
  C  577  1  0.88279900  0.40400200  0.89065900  1
  C  578  1  0.91753500  0.41061800  0.87539300  1
  C  579  1  0.94539900  0.42737900  0.89542700  1
  C  580  1  0.94120100  0.43571800  0.93284800  1
  C  581  1  0.90600400  0.43117700  0.94775700  1
  C  582  1  0.87673000  0.41606300  0.92724400  1
  C  587  1  0.85573800  0.41967300  0.81264300  1
  C  588  1  0.84054500  0.41361300  0.94562500  1
  C  597  1  0.68653200  0.69057000  0.32942600  1
  C  598  1  0.67908300  0.65658500  0.31300800  1
  C  599  1  0.66318200  0.62725600  0.33280300  1
  C  600  1  0.65372300  0.63198500  0.37035200  1
  C  601  1  0.66319000  0.66544700  0.38695200  1
  C  602  1  0.68022100  0.69347800  0.36734000  1
  C  605  1  0.62969300  0.60822900  0.39055900  1
  C  606  1  0.59495100  0.60159100  0.37530100  1
  C  607  1  0.56707300  0.58489000  0.39536500  1
  C  608  1  0.57126600  0.57657000  0.43278900  1
  C  609  1  0.60644100  0.58119300  0.44771700  1
  C  610  1  0.63571800  0.59627900  0.42718800  1
  C  615  1  0.65680300  0.59269400  0.31257300  1
  C  616  1  0.67188900  0.59879500  0.44558000  1
  C  625  1  0.00632500  0.02098300  0.29205700  1
  C  626  1  0.03899600  0.03501200  0.27613200  1
  C  627  1  0.03970200  0.06524600  0.25203900  1
  C  628  1  0.00634500  0.08370400  0.24513100  1
  C  629  1  0.97299100  0.06520800  0.25195500  1
  C  630  1  0.97367500  0.03497600  0.27605600  1
  C  633  1  0.00629800  0.99144900  0.31936600  1
  C  634  1  0.03894100  0.97735800  0.33529600  1
  C  635  1  0.03958400  0.94712800  0.35939900  1
  C  636  1  0.00619500  0.92872300  0.36628700  1
  C  637  1  0.97287400  0.94727800  0.35945200  1
  C  638  1  0.97361700  0.97750600  0.33534900  1
  C  647  1  0.50610900  0.99148700  0.79199900  1
  C  648  1  0.47345800  0.97737800  0.77610600  1
  C  649  1  0.47281300  0.94715500  0.75199600  1
  C  650  1  0.50620100  0.92875500  0.74508900  1
  C  651  1  0.53952700  0.94728900  0.75194200  1
  C  652  1  0.53879200  0.97751100  0.77605200  1
  C  655  1  0.50608700  0.02095500  0.81938900  1
  C  656  1  0.47340900  0.03501100  0.83527600  1
  C  657  1  0.47270900  0.06523700  0.85938000  1
  C  658  1  0.50606800  0.08368200  0.86630700  1
  C  659  1  0.53942100  0.06519700  0.85946500  1
  C  660  1  0.53874300  0.03497700  0.83535000  1
  C  669  1  0.24133400  0.75587400  0.54217300  1
  C  670  1  0.22724600  0.78848700  0.52614700  1
  C  671  1  0.19673500  0.78906100  0.50233700  1
  C  672  1  0.17799400  0.75567000  0.49637300  1
  C  673  1  0.19668000  0.72238700  0.50281600  1
  C  674  1  0.22727500  0.72315200  0.52639100  1
  C  677  1  0.27107500  0.75587400  0.56922400  1
  C  678  1  0.28516600  0.78848400  0.58525200  1
  C  679  1  0.31568200  0.78905300  0.60905400  1
  C  680  1  0.33442300  0.75565900  0.61500900  1
  C  681  1  0.31573100  0.72238200  0.60857500  1
  C  682  1  0.28513600  0.72315000  0.58499900  1
  C  691  1  0.27109200  0.25653900  0.04220220  1
  C  692  1  0.28515500  0.22392600  0.02615720  1
  C  693  1  0.31571800  0.22333000  0.00241520  1
  C  694  1  0.33451000  0.25670800  0.99651000  1
  C  695  1  0.31583700  0.29000700  0.00293520  1
  C  696  1  0.28522000  0.28925800  0.02648120  1
  C  699  1  0.24130800  0.25653800  0.06920320  1
  C  700  1  0.22724600  0.22392400  0.08524820  1
  C  701  1  0.19668700  0.22332500  0.10899600  1
  C  702  1  0.17789500  0.25670200  0.11490700  1
  C  703  1  0.19656200  0.29000200  0.10847600  1
  C  704  1  0.22717800  0.28925600  0.08492420  1
  C  713  1  0.77110800  0.25628300  0.06919520  1
  C  714  1  0.78519800  0.22368100  0.08523520  1
  C  715  1  0.81573800  0.22310200  0.10899900  1
  C  716  1  0.83445400  0.25650600  0.11499400  1
  C  717  1  0.81572700  0.28978100  0.10859000  1
  C  718  1  0.78512700  0.28900200  0.08502020  1
  C  721  1  0.74132100  0.25628500  0.04219720  1
  C  722  1  0.72723100  0.22368400  0.02615720  1
  C  723  1  0.69668500  0.22310800  0.00239620  1
  C  724  1  0.67797200  0.25651400  0.99640600  1
  C  725  1  0.69669900  0.28978600  0.00280720  1
  C  726  1  0.72729100  0.28900800  0.02639120  1
  C  735  1  0.74135600  0.75612400  0.56925800  1
  C  736  1  0.72725300  0.78873700  0.58526300  1
  C  737  1  0.69671500  0.78931400  0.60903200  1
  C  738  1  0.67797700  0.75592000  0.61500600  1
  C  739  1  0.69668800  0.72264300  0.60860500  1
  C  740  1  0.72728300  0.72340000  0.58502100  1
  C  743  1  0.77107500  0.75612700  0.54217500  1
  C  744  1  0.78517300  0.78874300  0.52616700  1
  C  745  1  0.81571100  0.78932300  0.50239700  1
  C  746  1  0.83445100  0.75593400  0.49642000  1
  C  747  1  0.81574600  0.72265100  0.50282600  1
  C  748  1  0.78515700  0.72340600  0.52641200  1
  C  757  1  0.50630500  0.52122500  0.79236900  1
  C  758  1  0.53897700  0.53543500  0.77658800  1
  C  759  1  0.53962000  0.56636800  0.75338500  1
  C  760  1  0.50628600  0.58530200  0.74790700  1
  C  761  1  0.47297900  0.56631100  0.75333300  1
  C  762  1  0.47364300  0.53535600  0.77650100  1
  C  765  1  0.50629100  0.49116400  0.81902700  1
  C  766  1  0.53895500  0.47691800  0.83480000  1
  C  767  1  0.53957100  0.44598600  0.85800500  1
  C  768  1  0.50621800  0.42709300  0.86350200  1
  C  769  1  0.47292700  0.44611400  0.85807300  1
  C  770  1  0.47361900  0.47706300  0.83490000  1
  C  779  1  0.00611900  0.49115000  0.29239500  1
  C  780  1  0.97345700  0.47690500  0.27662200  1
  C  781  1  0.97282800  0.44594200  0.25346600  1
  C  782  1  0.00618400  0.42704400  0.24796600  1
  C  783  1  0.03948200  0.44605900  0.25340300  1
  C  784  1  0.03879200  0.47702700  0.27654900  1
  C  787  1  0.00610200  0.52124200  0.31901900  1
  C  788  1  0.97343000  0.53543500  0.33481100  1
  C  789  1  0.97276500  0.56639800  0.35796900  1
  C  790  1  0.00609100  0.58535900  0.36343700  1
  C  791  1  0.03941600  0.56638700  0.35799900  1
  C  792  1  0.03876200  0.53542100  0.33484400  1
  C  801  1  0.94060500  0.93717900  0.37953300  1
  C  802  1  0.90681800  0.92953100  0.36279500  1
  C  803  1  0.87734500  0.91355700  0.38231700  1
  C  804  1  0.88171500  0.90407400  0.41990700  1
  C  805  1  0.91503300  0.91363900  0.43677100  1
  C  806  1  0.94311800  0.93097400  0.41749500  1
  C  809  1  0.85793500  0.87982500  0.43988900  1
  C  810  1  0.85097000  0.84530700  0.42427000  1
  C  811  1  0.83394200  0.81737200  0.44399000  1
  C  812  1  0.82586100  0.82115600  0.48151700  1
  C  813  1  0.83075700  0.85614300  0.49680600  1
  C  814  1  0.84593600  0.88556800  0.47655600  1
  C  819  1  0.84295500  0.90724300  0.36176800  1
  C  820  1  0.84851400  0.92155400  0.49531400  1
  C  829  1  0.57168500  0.07539200  0.87951500  1
  C  830  1  0.60548200  0.08297500  0.86276500  1
  C  831  1  0.63498300  0.09893700  0.88226500  1
  C  832  1  0.63059400  0.10850300  0.91983300  1
  C  833  1  0.59732000  0.09890400  0.93674900  1
  C  834  1  0.56919900  0.08162800  0.91747200  1
  C  837  1  0.65453200  0.13260400  0.93980400  1
  C  838  1  0.66150800  0.16713900  0.92421100  1
  C  839  1  0.67847800  0.19508100  0.94397200  1
  C  840  1  0.68655100  0.19128400  0.98149700  1
  C  841  1  0.68158800  0.15630700  0.99678200  1
  C  842  1  0.66643300  0.12688900  0.97650600  1
  C  847  1  0.66937600  0.10518600  0.86169700  1
  C  848  1  0.66380500  0.09090400  0.99525500  1
  C  857  1  0.32585200  0.69029700  0.62888900  1
  C  858  1  0.33344800  0.65636400  0.61243800  1
  C  859  1  0.34938700  0.62705700  0.63223500  1
  C  860  1  0.35870600  0.63172600  0.66982200  1
  C  861  1  0.34919900  0.66519100  0.68640600  1
  C  862  1  0.33208400  0.69318600  0.66681600  1
  C  865  1  0.38290300  0.60814800  0.69003000  1
  C  866  1  0.41765600  0.60160000  0.67477800  1
  C  867  1  0.44553700  0.58486900  0.69480600  1
  C  868  1  0.44133300  0.57648300  0.73221900  1
  C  869  1  0.40612500  0.58096400  0.74711700  1
  C  870  1  0.37683400  0.59604300  0.72660400  1
  C  875  1  0.35590500  0.59253300  0.61198100  1
  C  876  1  0.34063600  0.59841100  0.74496600  1
  C  885  1  0.18638700  0.32206400  0.12880600  1
  C  886  1  0.17892300  0.35604400  0.11238600  1
  C  887  1  0.16301300  0.38536500  0.13218800  1
  C  888  1  0.15357500  0.38063200  0.16974000  1
  C  889  1  0.16306400  0.34717600  0.18633700  1
  C  890  1  0.18009100  0.31914800  0.16672000  1
  C  893  1  0.12954000  0.40437200  0.18995300  1
  C  894  1  0.09477500  0.41096100  0.17473000  1
  C  895  1  0.06688900  0.42761300  0.19482400  1
  C  896  1  0.07111200  0.43593600  0.23224200  1
  C  897  1  0.10631200  0.43137600  0.24713300  1
  C  898  1  0.13558900  0.41633500  0.22657300  1
  C  903  1  0.15659900  0.41992100  0.11195800  1
  C  904  1  0.17178600  0.41387100  0.24492700  1
  C  913  1  0.57180200  0.93717400  0.73187800  1
  C  914  1  0.60557500  0.92950700  0.74863100  1
  C  915  1  0.63505400  0.91353300  0.72911500  1
  C  916  1  0.63070000  0.90406600  0.69152000  1
  C  917  1  0.59739600  0.91365200  0.67464100  1
  C  918  1  0.56930800  0.93099600  0.69391000  1
  C  921  1  0.65448000  0.87981700  0.67154000  1
  C  922  1  0.66143100  0.84529300  0.68715200  1
  C  923  1  0.67846200  0.81735800  0.66743400  1
  C  924  1  0.68655400  0.82114600  0.62991300  1
  C  925  1  0.68167200  0.85613800  0.61462700  1
  C  926  1  0.66649300  0.88556200  0.63487600  1
  C  931  1  0.66943300  0.90720200  0.74967700  1
  C  932  1  0.66393300  0.92155100  0.61612500  1
  C  941  1  0.94073500  0.07539200  0.23188800  1
  C  942  1  0.90692500  0.08295000  0.24862500  1
  C  943  1  0.87743000  0.09891300  0.22911900  1
  C  944  1  0.88183200  0.10850000  0.19155900  1
  C  945  1  0.91512300  0.09892900  0.17465700  1
  C  946  1  0.94324300  0.08165800  0.19393600  1
  C  949  1  0.85789100  0.13259800  0.17158600  1
  C  950  1  0.85089900  0.16712600  0.18718700  1
  C  951  1  0.83392900  0.19506800  0.16742300  1
  C  952  1  0.82586900  0.19127600  0.12989500  1
  C  953  1  0.83085200  0.15630400  0.11460200  1
  C  954  1  0.84600700  0.12688700  0.13487800  1
  C  959  1  0.84302500  0.10514100  0.24967300  1
  C  960  1  0.84865900  0.09090800  0.11612100  1
  C  969  1  0.18655900  0.69030300  0.48250500  1
  C  970  1  0.17892800  0.65638100  0.49896100  1
  C  971  1  0.16298000  0.62707900  0.47916400  1
  C  972  1  0.15368500  0.63174600  0.44157100  1
  C  973  1  0.16322800  0.66519700  0.42498100  1
  C  974  1  0.18035200  0.69318600  0.44457300  1
  C  977  1  0.12948000  0.60818000  0.42135500  1
  C  978  1  0.09471000  0.60167900  0.43658800  1
  C  979  1  0.06682400  0.58496700  0.41654600  1
  C  980  1  0.07104500  0.57657000  0.37913900  1
  C  981  1  0.10627300  0.58098900  0.36426800  1
  C  982  1  0.13556400  0.59605300  0.38479500  1
  C  987  1  0.15642100  0.59256800  0.49942400  1
  C  988  1  0.17177900  0.59837600  0.36645700  1
  C  997  1  0.32601500  0.32207000  0.98260800  1
  C  998  1  0.33346100  0.35605500  0.99902300  1
  C  999  1  0.34936800  0.38537800  0.97922600  1
  C  1000  1  0.35882100  0.38064600  0.94168000  1
  C  1001  1  0.34935100  0.34718400  0.92507900  1
  C  1002  1  0.33232600  0.31915400  0.94469400  1
  C  1005  1  0.38285400  0.40439400  0.92146900  1
  C  1006  1  0.41760700  0.41100200  0.93671100  1
  C  1007  1  0.44549300  0.42767000  0.91663100  1
  C  1008  1  0.44128100  0.43600200  0.87921000  1
  C  1009  1  0.40609500  0.43140300  0.86429700  1
  C  1010  1  0.37681800  0.41634900  0.88484600  1
  C  1015  1  0.35576100  0.41994000  0.99945600  1
  C  1016  1  0.34063000  0.41386000  0.86647300  1
  C  1025  1  0.07197100  0.07541000  0.23198900  1
  C  1026  1  0.10571100  0.08317700  0.24876100  1
  C  1027  1  0.13517100  0.09919700  0.22925500  1
  C  1028  1  0.13083500  0.10859800  0.19164100  1
  C  1029  1  0.09756400  0.09892300  0.17474700  1
  C  1030  1  0.06949300  0.08154900  0.19401300  1
  C  1033  1  0.15458800  0.13285800  0.17164300  1
  C  1034  1  0.16145500  0.16742400  0.18720000  1
  C  1035  1  0.17844800  0.19535600  0.16744400  1
  C  1036  1  0.18657300  0.19151700  0.12993300  1
  C  1037  1  0.18179500  0.15648200  0.11471400  1
  C  1038  1  0.16665400  0.12706600  0.13500600  1
  C  1043  1  0.16951100  0.10564200  0.24984700  1
  C  1044  1  0.16419200  0.09103300  0.11632300  1
  C  1053  1  0.44055400  0.93691300  0.73196300  1
  C  1054  1  0.40679500  0.92921500  0.74873700  1
  C  1055  1  0.37731300  0.91320300  0.72925400  1
  C  1056  1  0.38168300  0.90368700  0.69166900  1
  C  1057  1  0.41492500  0.91336900  0.67473400  1
  C  1058  1  0.44302600  0.93068800  0.69400000  1
  C  1061  1  0.35777000  0.87956700  0.67169000  1
  C  1062  1  0.35085700  0.84500500  0.68725300  1
  C  1063  1  0.33390500  0.81706200  0.66747500  1
  C  1064  1  0.32582200  0.82087600  0.62995600  1
  C  1065  1  0.33070600  0.85587900  0.61470400  1
  C  1066  1  0.34582800  0.88530100  0.63500400  1
  C  1071  1  0.34296100  0.90685100  0.74985400  1
  C  1072  1  0.34837400  0.92131400  0.61629600  1
  C  1081  1  0.68661100  0.32185700  0.98245200  1
  C  1082  1  0.67908800  0.35582600  0.99886200  1
  C  1083  1  0.66317700  0.38513000  0.97904100  1
  C  1084  1  0.65380800  0.38042300  0.94147000  1
  C  1085  1  0.66324500  0.34692000  0.92492400  1
  C  1086  1  0.68033800  0.31892500  0.94453600  1
  C  1089  1  0.62963000  0.40401500  0.92124800  1
  C  1090  1  0.59490700  0.41065000  0.93653100  1
  C  1091  1  0.56703800  0.42741700  0.91651400  1
  C  1092  1  0.57121700  0.43574300  0.87908700  1
  C  1093  1  0.60640300  0.43118800  0.86415600  1
  C  1094  1  0.63568500  0.41606900  0.88465500  1
  C  1099  1  0.65673200  0.41969300  0.99925100  1
  C  1100  1  0.67185900  0.41360500  0.86625800  1
  C  1109  1  0.82590800  0.69057800  0.48250500  1
  C  1110  1  0.83336200  0.65659600  0.49892500  1
  C  1111  1  0.84926000  0.62726900  0.47912700  1
  C  1112  1  0.85871100  0.63199600  0.44157600  1
  C  1113  1  0.84924100  0.66545500  0.42497900  1
  C  1114  1  0.83221300  0.69348600  0.44459100  1
  C  1117  1  0.88273300  0.60823500  0.42136300  1
  C  1118  1  0.91748100  0.60160000  0.43660200  1
  C  1119  1  0.94535000  0.58489900  0.41652800  1
  C  1120  1  0.94113600  0.57655600  0.37911000  1
  C  1121  1  0.90595500  0.58119600  0.36419600  1
  C  1122  1  0.87668900  0.59628500  0.38473600  1
  C  1127  1  0.85564800  0.59270500  0.49935700  1
  C  1128  1  0.84051200  0.59881200  0.36635600  1
  C  1137  1  0.44044000  0.07540500  0.87942800  1
  C  1138  1  0.40670800  0.08319400  0.86264500  1
  C  1139  1  0.37724500  0.09921600  0.88214800  1
  C  1140  1  0.38157500  0.10860400  0.91976700  1
  C  1141  1  0.41483500  0.09891200  0.93666700  1
  C  1142  1  0.44290600  0.08153400  0.91740400  1
  C  1145  1  0.35782200  0.13286600  0.93976300  1
  C  1146  1  0.35096600  0.16743700  0.92421300  1
  C  1147  1  0.33397100  0.19536800  0.94396900  1
  C  1148  1  0.32583500  0.19152400  0.98147800  1
  C  1149  1  0.33060500  0.15648500  0.99668900  1
  C  1150  1  0.34574400  0.12707000  0.97639700  1
  C  1155  1  0.34291500  0.10567600  0.86154800  1
  C  1156  1  0.34819400  0.09103400  0.99507500  1
  C  1165  1  0.07183700  0.93687200  0.37943700  1
  C  1166  1  0.10561300  0.92922900  0.36267300  1
  C  1167  1  0.13509900  0.91322800  0.38215900  1
  C  1168  1  0.13072100  0.90368700  0.41973600  1
  C  1169  1  0.09746600  0.91333700  0.43666400  1
  C  1170  1  0.06935800  0.93064200  0.41739700  1
  C  1173  1  0.15464400  0.87957500  0.43971300  1
  C  1174  1  0.16158200  0.84502400  0.42414000  1
  C  1175  1  0.17853700  0.81708100  0.44391400  1
  C  1176  1  0.18660000  0.82088700  0.48143900  1
  C  1177  1  0.18169600  0.85588500  0.49670100  1
  C  1178  1  0.16656800  0.88530400  0.47640600  1
  C  1183  1  0.16946500  0.90691100  0.36157100  1
  C  1184  1  0.16399800  0.92130900  0.49512500  1
  C  1193  1  0.82581800  0.32185200  0.12894200  1
  C  1194  1  0.83336000  0.35581500  0.11253300  1
  C  1195  1  0.84927400  0.38511700  0.13235400  1
  C  1196  1  0.85862600  0.38041200  0.16993000  1
  C  1197  1  0.84917300  0.34691400  0.18647600  1
  C  1198  1  0.83208000  0.31892200  0.16686200  1
  C  1201  1  0.88279900  0.40400200  0.19015700  1
  C  1202  1  0.91753500  0.41061800  0.17489100  1
  C  1203  1  0.94539900  0.42737900  0.19492500  1
  C  1204  1  0.94120100  0.43571800  0.23234600  1
  C  1205  1  0.90600400  0.43117700  0.24725500  1
  C  1206  1  0.87673000  0.41606300  0.22674200  1
  C  1211  1  0.85573800  0.41967300  0.11214100  1
  C  1212  1  0.84054500  0.41361300  0.24512300  1
  C  1221  1  0.68653200  0.69057000  0.62892400  1
  C  1222  1  0.67908300  0.65658500  0.61250600  1
  C  1223  1  0.66318200  0.62725600  0.63230100  1
  C  1224  1  0.65372300  0.63198500  0.66985000  1
  C  1225  1  0.66319000  0.66544700  0.68645000  1
  C  1226  1  0.68022100  0.69347800  0.66683800  1
  C  1229  1  0.62969300  0.60822900  0.69005700  1
  C  1230  1  0.59495100  0.60159100  0.67479900  1
  C  1231  1  0.56707300  0.58489000  0.69486300  1
  C  1232  1  0.57126600  0.57657000  0.73228700  1
  C  1233  1  0.60644100  0.58119300  0.74721500  1
  C  1234  1  0.63571800  0.59627900  0.72668600  1
  C  1239  1  0.65680300  0.59269400  0.61207100  1
  C  1240  1  0.67188900  0.59879500  0.74507800  1
  N  8  1  0.00636000  0.11866700  0.93271700  1
  N  15  1  0.00612900  0.89375800  0.07969600  1
  N  30  1  0.50628300  0.89378200  0.43272100  1
  N  37  1  0.50608100  0.11865200  0.57968700  1
  N  52  1  0.14269300  0.75549300  0.18499000  1
  N  59  1  0.36973100  0.75548200  0.32738200  1
  N  74  1  0.36981500  0.25684800  0.68510000  1
  N  81  1  0.14259300  0.25683900  0.82732900  1
  N  96  1  0.86973500  0.25669300  0.82747300  1
  N  103  1  0.64268500  0.25670300  0.68493900  1
  N  118  1  0.64267200  0.75572400  0.32739500  1
  N  125  1  0.86975400  0.75574300  0.18502800  1
  N  140  1  0.50627700  0.62093100  0.43758600  1
  N  147  1  0.50616300  0.39146900  0.57484400  1
  N  162  1  0.00625700  0.39142500  0.93759300  1
  N  169  1  0.00607800  0.62097200  0.07485400  1
  N  632  1  0.00636000  0.11866700  0.23221500  1
  N  639  1  0.00612900  0.89375800  0.37919400  1
  N  654  1  0.50628300  0.89378200  0.73221900  1
  N  661  1  0.50608100  0.11865200  0.87918500  1
  N  676  1  0.14269300  0.75549300  0.48448800  1
  N  683  1  0.36973100  0.75548200  0.62688000  1
  N  698  1  0.36981500  0.25684800  0.98459800  1
  N  705  1  0.14259300  0.25683900  0.12682700  1
  N  720  1  0.86973500  0.25669300  0.12697100  1
  N  727  1  0.64268500  0.25670300  0.98443700  1
  N  742  1  0.64267200  0.75572400  0.62689300  1
  N  749  1  0.86975400  0.75574300  0.48452600  1
  N  764  1  0.50627700  0.62093100  0.73708400  1
  N  771  1  0.50616300  0.39146900  0.87434200  1
  N  786  1  0.00625700  0.39142500  0.23709100  1
  N  793  1  0.00607800  0.62097200  0.37435200  1
  O  197  1  0.81389200  0.93361300  0.20917600  1
  O  201  1  0.84869900  0.87937400  0.03562400  1
  O  225  1  0.69838900  0.07883500  0.70920400  1
  O  229  1  0.66365800  0.13304800  0.53554100  1
  O  253  1  0.32849500  0.56365600  0.45839900  1
  O  257  1  0.38388900  0.59817400  0.28593400  1
  O  281  1  0.18395800  0.44857000  0.95847900  1
  O  285  1  0.12863700  0.41436700  0.78587300  1
  O  309  1  0.69856100  0.93360200  0.30327800  1
  O  313  1  0.66366900  0.87932500  0.47681200  1
  O  337  1  0.81408300  0.07882700  0.80316500  1
  O  341  1  0.84871800  0.13299300  0.97684900  1
  O  365  1  0.18389500  0.56359900  0.05406100  1
  O  369  1  0.12843000  0.59823700  0.22645800  1
  O  393  1  0.32844600  0.44855100  0.55390900  1
  O  397  1  0.38371500  0.41440000  0.72655300  1
  O  421  1  0.19886400  0.07902600  0.80354900  1
  O  425  1  0.16364700  0.13354900  0.97693100  1
  O  449  1  0.31375200  0.93333800  0.30340500  1
  O  453  1  0.34877400  0.87896800  0.47697300  1
  O  477  1  0.68405400  0.44832200  0.55377800  1
  O  481  1  0.62876400  0.41413500  0.72633500  1
  O  505  1  0.82829800  0.56413800  0.05377500  1
  O  509  1  0.88361000  0.59824000  0.22644900  1
  O  533  1  0.31351800  0.07903200  0.70884500  1
  O  537  1  0.34879300  0.13358800  0.53547600  1
  O  561  1  0.19860900  0.93334600  0.20903500  1
  O  565  1  0.16368200  0.87903900  0.03543800  1
  O  589  1  0.82835300  0.44833300  0.95859900  1
  O  593  1  0.88371400  0.41410300  0.78607200  1
  O  617  1  0.68409200  0.56411900  0.45866000  1
  O  621  1  0.62884600  0.59822400  0.28597500  1
  O  821  1  0.81389200  0.93361300  0.50867400  1
  O  825  1  0.84869900  0.87937400  0.33512200  1
  O  849  1  0.69838900  0.07883500  0.00870220  1
  O  853  1  0.66365800  0.13304800  0.83503900  1
  O  877  1  0.32849500  0.56365600  0.75789700  1
  O  881  1  0.38388900  0.59817400  0.58543200  1
  O  905  1  0.18395800  0.44857000  0.25797700  1
  O  909  1  0.12863700  0.41436700  0.08537120  1
  O  933  1  0.69856100  0.93360200  0.60277600  1
  O  937  1  0.66366900  0.87932500  0.77631000  1
  O  961  1  0.81408300  0.07882700  0.10266300  1
  O  965  1  0.84871800  0.13299300  0.27634700  1
  O  989  1  0.18389500  0.56359900  0.35355900  1
  O  993  1  0.12843000  0.59823700  0.52595600  1
  O  1017  1  0.32844600  0.44855100  0.85340700  1
  O  1021  1  0.38371500  0.41440000  0.02605120  1
  O  1045  1  0.19886400  0.07902600  0.10304700  1
  O  1049  1  0.16364700  0.13354900  0.27642900  1
  O  1073  1  0.31375200  0.93333800  0.60290300  1
  O  1077  1  0.34877400  0.87896800  0.77647100  1
  O  1101  1  0.68405400  0.44832200  0.85327600  1
  O  1105  1  0.62876400  0.41413500  0.02583320  1
  O  1129  1  0.82829800  0.56413800  0.35327300  1
  O  1133  1  0.88361000  0.59824000  0.52594700  1
  O  1157  1  0.31351800  0.07903200  0.00834320  1
  O  1161  1  0.34879300  0.13358800  0.83497400  1
  O  1185  1  0.19860900  0.93334600  0.50853300  1
  O  1189  1  0.16368200  0.87903900  0.33493600  1
  O  1213  1  0.82835300  0.44833300  0.25809700  1
  O  1217  1  0.88371400  0.41410300  0.08557020  1
  O  1241  1  0.68409200  0.56411900  0.75815800  1
  O  1245  1  0.62884600  0.59822400  0.58547300  1
