# generated using pymatgen
data_H11C15N4O3
_symmetry_space_group_name_H-M   'P 1'
_cell_length_a   39.31200000
_cell_length_b   39.31210000
_cell_length_c   55.90810000
_cell_angle_alpha   90.00000000
_cell_angle_beta   90.00000000
_cell_angle_gamma   90.00000000
_symmetry_Int_Tables_number   1
_chemical_formula_structural   H11C15N4O3
_chemical_formula_sum   'H352 C480 N128 O96'
_cell_volume   86402.46172561
_cell_formula_units_Z   32
loop_
 _symmetry_equiv_pos_site_id
 _symmetry_equiv_pos_as_xyz
  1  'x, y, z'
loop_
 _atom_site_type_symbol
 _atom_site_label
 _atom_site_symmetry_multiplicity
 _atom_site_fract_x
 _atom_site_fract_y
 _atom_site_fract_z
 _atom_site_occupancy
  H  7  1  0.18171500  0.45359000  0.90080900  1
  H  16  1  0.21509500  0.41299200  0.83956500  1
  H  17  1  0.24464700  0.37413100  0.94939200  1
  H  18  1  0.12981000  0.46591000  0.79019300  1
  H  19  1  0.19112100  0.35674200  0.86972900  1
  H  20  1  0.12178200  0.42618100  0.87504300  1
  H  31  1  0.31449900  0.51326100  0.40086500  1
  H  40  1  0.28104400  0.55394600  0.33964500  1
  H  41  1  0.25151300  0.59265200  0.44946600  1
  H  42  1  0.36620900  0.50099300  0.29020100  1
  H  43  1  0.30503400  0.61013200  0.36981900  1
  H  44  1  0.37437900  0.54062500  0.37506900  1
  H  55  1  0.77709600  0.91575300  0.15045900  1
  H  64  1  0.81813400  0.94926200  0.08929900  1
  H  65  1  0.85797700  0.97643400  0.19900900  1
  H  66  1  0.75575300  0.86088500  0.04398500  1
  H  67  1  0.87374800  0.92360600  0.11883700  1
  H  68  1  0.80150800  0.85582800  0.12395100  1
  H  79  1  0.71920000  0.05133100  0.65055300  1
  H  88  1  0.67806700  0.01764400  0.58942400  1
  H  89  1  0.63815600  0.99078800  0.69902200  1
  H  90  1  0.74085700  0.10612300  0.54402700  1
  H  91  1  0.62262100  0.04354600  0.61880100  1
  H  92  1  0.69513800  0.11120700  0.62381500  1
  H  103  1  0.31760000  0.45076200  0.58939000  1
  H  112  1  0.27699900  0.41760100  0.65049100  1
  H  113  1  0.26570200  0.36449600  0.54026200  1
  H  114  1  0.35612500  0.48028700  0.69955300  1
  H  115  1  0.30548200  0.35748000  0.62506300  1
  H  116  1  0.37419300  0.42681500  0.61991700  1
  H  127  1  0.17864400  0.51580800  0.08946500  1
  H  136  1  0.21921500  0.54901100  0.15057600  1
  H  137  1  0.23023800  0.60223700  0.04030700  1
  H  138  1  0.14012600  0.48623400  0.19962600  1
  H  139  1  0.19062100  0.60909500  0.12515000  1
  H  140  1  0.12203400  0.53968100  0.11999700  1
  H  151  1  0.71693600  0.91541000  0.33903700  1
  H  160  1  0.68280400  0.95275900  0.40214600  1
  H  161  1  0.62953300  0.96798400  0.29122100  1
  H  162  1  0.70548900  0.85726000  0.45406800  1
  H  163  1  0.62438400  0.92661200  0.37575400  1
  H  164  1  0.69649700  0.85866400  0.36768400  1
  H  175  1  0.77926000  0.05117700  0.83906100  1
  H  184  1  0.81327000  0.01389400  0.90223400  1
  H  185  1  0.86658200  0.99847200  0.79123400  1
  H  186  1  0.79082700  0.10962300  0.95399900  1
  H  187  1  0.87178900  0.03981800  0.87578000  1
  H  188  1  0.79986500  0.10790300  0.86760400  1
  H  199  1  0.81606600  0.51163300  0.09618400  1
  H  208  1  0.78273500  0.55381100  0.15703400  1
  H  209  1  0.75515800  0.59174400  0.04712500  1
  H  210  1  0.87045600  0.49076200  0.20251100  1
  H  211  1  0.80835100  0.60878700  0.12706100  1
  H  212  1  0.87597400  0.53590600  0.12240900  1
  H  223  1  0.67985100  0.45486000  0.59608000  1
  H  232  1  0.71339700  0.41276300  0.65689900  1
  H  233  1  0.74097200  0.37494300  0.54701400  1
  H  234  1  0.62531500  0.47603600  0.70223800  1
  H  235  1  0.68784800  0.35772700  0.62696800  1
  H  236  1  0.62004200  0.43057200  0.62238600  1
  H  247  1  0.21818900  0.05110900  0.84454700  1
  H  256  1  0.17907400  0.01687700  0.90725100  1
  H  257  1  0.12208500  0.03039200  0.79257200  1
  H  258  1  0.24311900  0.10533400  0.95140200  1
  H  259  1  0.12383700  0.03957200  0.87906000  1
  H  260  1  0.19622200  0.10952000  0.87169100  1
  H  271  1  0.27795800  0.91552700  0.34460100  1
  H  280  1  0.31705100  0.94984200  0.40721500  1
  H  281  1  0.37401000  0.93614900  0.29255000  1
  H  282  1  0.25286000  0.86113100  0.45130700  1
  H  283  1  0.37237500  0.92698600  0.37903800  1
  H  284  1  0.29999200  0.85706400  0.37179200  1
  H  295  1  0.67886600  0.51479800  0.40747900  1
  H  304  1  0.71783100  0.54860900  0.34455800  1
  H  305  1  0.73156000  0.60193600  0.45526500  1
  H  306  1  0.62382700  0.52415900  0.29175400  1
  H  307  1  0.69165900  0.60679500  0.37028100  1
  H  308  1  0.62304600  0.53428600  0.37800100  1
  H  319  1  0.81712100  0.45209500  0.90745000  1
  H  328  1  0.77827100  0.41831900  0.84453600  1
  H  329  1  0.76468500  0.36473000  0.95519200  1
  H  330  1  0.87227000  0.44265500  0.79170300  1
  H  331  1  0.80461900  0.36009200  0.87020700  1
  H  332  1  0.87307600  0.43261200  0.87795000  1
  H  343  1  0.28104100  0.05187000  0.65748800  1
  H  352  1  0.31512500  0.01251500  0.59491400  1
  H  353  1  0.37081800  0.98978100  0.70153500  1
  H  354  1  0.29321800  0.10759500  0.54233500  1
  H  355  1  0.37359100  0.03597600  0.62154700  1
  H  356  1  0.30294800  0.10733500  0.62872100  1
  H  367  1  0.21505200  0.91505900  0.15740600  1
  H  376  1  0.18090600  0.95428100  0.09479100  1
  H  377  1  0.12511500  0.97742100  0.20141600  1
  H  378  1  0.20245900  0.85890800  0.04239700  1
  H  379  1  0.12241500  0.93108200  0.12159500  1
  H  380  1  0.19290900  0.85959700  0.12881100  1
  H  392  1  0.24365600  0.37236100  0.73030200  1
  H  397  1  0.23481100  0.55093900  0.79054000  1
  H  398  1  0.23236800  0.51308100  0.80791900  1
  H  399  1  0.17125800  0.55177400  0.78762600  1
  H  400  1  0.18526100  0.55272800  0.81781000  1
  H  401  1  0.16936000  0.51436500  0.80540900  1
  H  403  1  0.23768600  0.44689000  0.80486700  1
  H  405  1  0.26567400  0.39784900  0.69165600  1
  H  413  1  0.25131100  0.59473300  0.23070500  1
  H  418  1  0.26221700  0.41600100  0.29062300  1
  H  419  1  0.26356800  0.45393600  0.30796800  1
  H  420  1  0.32587200  0.41591000  0.28887000  1
  H  421  1  0.31073700  0.41481100  0.31878000  1
  H  422  1  0.32665600  0.45334600  0.30666600  1
  H  424  1  0.25845300  0.51988500  0.30492900  1
  H  426  1  0.23004200  0.56915300  0.19185400  1
  H  434  1  0.85792100  0.98290300  0.98196800  1
  H  439  1  0.67927800  0.97745200  0.04249200  1
  H  440  1  0.71757200  0.97484400  0.05937900  1
  H  441  1  0.67693800  0.91390100  0.04080800  1
  H  442  1  0.67742400  0.92894700  0.07075100  1
  H  443  1  0.71495900  0.91177000  0.05792600  1
  H  445  1  0.78366600  0.97443700  0.05597100  1
  H  447  1  0.83443900  0.00894800  0.94445300  1
  H  455  1  0.63854300  0.98523800  0.48142000  1
  H  460  1  0.81654900  0.98817900  0.54282600  1
  H  461  1  0.77835000  0.99248500  0.55965600  1
  H  462  1  0.82012800  0.05151900  0.53938000  1
  H  463  1  0.81938500  0.03819500  0.56972100  1
  H  464  1  0.78217500  0.05535900  0.55642600  1
  H  466  1  0.71197600  0.99199200  0.55611300  1
  H  468  1  0.66202900  0.95848800  0.44417900  1
  H  476  1  0.74990000  0.59310200  0.26502600  1
  H  481  1  0.75421200  0.41527900  0.20329300  1
  H  482  1  0.75680900  0.45372800  0.18658100  1
  H  483  1  0.81777500  0.41261800  0.20459500  1
  H  484  1  0.80234000  0.41339700  0.17475200  1
  H  485  1  0.81987100  0.45075200  0.18759700  1
  H  487  1  0.75720100  0.51986500  0.19042300  1
  H  489  1  0.72424200  0.56908400  0.30254600  1
  H  497  1  0.74506500  0.37409600  0.76541100  1
  H  502  1  0.74264000  0.55141300  0.70299300  1
  H  503  1  0.73862100  0.51306800  0.68629200  1
  H  504  1  0.67923700  0.55497400  0.70593200  1
  H  505  1  0.69307500  0.55405300  0.67570700  1
  H  506  1  0.67570900  0.51691400  0.68896800  1
  H  508  1  0.73909400  0.44664300  0.69022500  1
  H  510  1  0.77135200  0.39810400  0.80266400  1
  H  518  1  0.13785800  0.98591500  0.01429700  1
  H  523  1  0.31761500  0.98816800  0.95521400  1
  H  524  1  0.27958600  0.99033100  0.93799600  1
  H  525  1  0.32061700  0.05173800  0.95534400  1
  H  526  1  0.32041600  0.03519300  0.92579200  1
  H  527  1  0.28287800  0.05340000  0.93789300  1
  H  529  1  0.21310000  0.99174500  0.94085300  1
  H  531  1  0.16089900  0.96142600  0.05267100  1
  H  539  1  0.35789000  0.97994700  0.51469800  1
  H  544  1  0.17883700  0.97920200  0.45477700  1
  H  545  1  0.21699500  0.97609600  0.43777700  1
  H  546  1  0.17516200  0.91568900  0.45589300  1
  H  547  1  0.17582100  0.93127800  0.42608800  1
  H  548  1  0.21304600  0.91307500  0.43865700  1
  H  550  1  0.28337600  0.97522800  0.44079100  1
  H  552  1  0.33480800  0.00483500  0.55288900  1
  H  560  1  0.74370100  0.87247400  0.23104200  1
  H  565  1  0.73596800  0.05327700  0.28806700  1
  H  566  1  0.73382600  0.01594600  0.30601800  1
  H  567  1  0.67239200  0.05394000  0.28557000  1
  H  568  1  0.68673900  0.05568000  0.31565700  1
  H  569  1  0.67077200  0.01697900  0.30382500  1
  H  571  1  0.73823700  0.94977800  0.30410100  1
  H  573  1  0.76561300  0.89661900  0.19179300  1
  H  581  1  0.75152300  0.09471200  0.73155400  1
  H  586  1  0.76074700  0.91346600  0.78784500  1
  H  587  1  0.76188600  0.95082400  0.80580800  1
  H  588  1  0.82440900  0.91335200  0.78653900  1
  H  589  1  0.80891800  0.91144700  0.81633800  1
  H  590  1  0.82500700  0.95029700  0.80483900  1
  H  592  1  0.75791800  0.01680700  0.80408000  1
  H  594  1  0.73032100  0.07068800  0.69201400  1
  H  602  1  0.35941900  0.48092500  0.48115600  1
  H  607  1  0.17973300  0.46912200  0.53962800  1
  H  608  1  0.21747800  0.46788900  0.55718000  1
  H  609  1  0.18000900  0.40549600  0.53769700  1
  H  610  1  0.17862800  0.42039400  0.56766000  1
  H  611  1  0.21733600  0.40478600  0.55560800  1
  H  613  1  0.28330500  0.47267900  0.55463700  1
  H  615  1  0.33451600  0.50283500  0.44228500  1
  H  623  1  0.13703900  0.48668700  0.98082000  1
  H  628  1  0.31651100  0.49721800  0.03966200  1
  H  629  1  0.27885600  0.49928900  0.05727800  1
  H  630  1  0.31663300  0.56075800  0.03667700  1
  H  631  1  0.31803000  0.54687500  0.06688000  1
  H  632  1  0.27937500  0.56231300  0.05463400  1
  H  634  1  0.21282800  0.49395200  0.05468900  1
  H  636  1  0.16201600  0.46440400  0.94211000  1
  H  644  1  0.25075300  0.09365600  0.76435100  1
  H  649  1  0.25284700  0.91361400  0.70578500  1
  H  650  1  0.25577900  0.95156900  0.68855100  1
  H  651  1  0.31635900  0.91052300  0.70725300  1
  H  652  1  0.30115000  0.91078500  0.67734900  1
  H  653  1  0.31885200  0.94828800  0.68987700  1
  H  655  1  0.25692400  0.01750400  0.69121300  1
  H  657  1  0.22508200  0.07117400  0.80244000  1
  H  665  1  0.24415200  0.87347900  0.26474700  1
  H  670  1  0.24414600  0.05315600  0.20570900  1
  H  671  1  0.23986100  0.01535700  0.18844000  1
  H  672  1  0.18079400  0.05713000  0.20866900  1
  H  673  1  0.19455800  0.05681000  0.17842000  1
  H  674  1  0.17694200  0.01949200  0.19127600  1
  H  676  1  0.23942300  0.94915200  0.19113000  1
  H  678  1  0.27039800  0.89587400  0.30263900  1
  H  686  1  0.63596800  0.48693100  0.51506300  1
  H  691  1  0.81723100  0.49801400  0.45868700  1
  H  692  1  0.77997000  0.49806500  0.44060300  1
  H  693  1  0.81654400  0.56171200  0.45889100  1
  H  694  1  0.81889200  0.54517800  0.42938500  1
  H  695  1  0.77975100  0.56119100  0.44043900  1
  H  697  1  0.71388600  0.49404900  0.44253300  1
  H  699  1  0.66050000  0.46661200  0.55475700  1
  H  707  1  0.85980100  0.47908600  0.01535000  1
  H  712  1  0.67897800  0.46907200  0.95840300  1
  H  713  1  0.71638600  0.46847100  0.94048300  1
  H  714  1  0.67934900  0.40538400  0.95925800  1
  H  715  1  0.67733700  0.42132000  0.92957700  1
  H  716  1  0.71630200  0.40534800  0.94096000  1
  H  718  1  0.78229000  0.47282600  0.94251800  1
  H  720  1  0.83522300  0.49963200  0.05492400  1
  H  728  1  0.15726600  0.22315300  0.89485200  1
  H  733  1  0.33802400  0.27840000  0.93901400  1
  H  734  1  0.30307500  0.30621100  0.94418500  1
  H  735  1  0.34937100  0.30761500  0.90017900  1
  H  736  1  0.35040200  0.33676900  0.92442400  1
  H  737  1  0.31429300  0.33516600  0.90538200  1
  H  739  1  0.24140000  0.31107200  0.93243900  1
  H  741  1  0.17349900  0.16258300  0.89473200  1
  H  749  1  0.33965200  0.74370400  0.39632500  1
  H  754  1  0.15800500  0.68763500  0.43844100  1
  H  755  1  0.19350700  0.66103500  0.44474600  1
  H  756  1  0.14810300  0.65583300  0.40042100  1
  H  757  1  0.14731900  0.62814700  0.42550900  1
  H  758  1  0.18373500  0.62949800  0.40675000  1
  H  760  1  0.25480800  0.65571900  0.43260800  1
  H  762  1  0.32329500  0.80425300  0.39579100  1
  H  770  1  0.00903500  0.89019600  0.14467300  1
  H  775  1  0.95131200  0.07089300  0.18782400  1
  H  776  1  0.92461800  0.03532900  0.19374500  1
  H  777  1  0.92016100  0.08113300  0.14958400  1
  H  778  1  0.89205000  0.08168500  0.17443900  1
  H  779  1  0.89372900  0.04544000  0.15553000  1
  H  781  1  0.91991400  0.97437400  0.18087700  1
  H  783  1  0.06946900  0.90728500  0.14450100  1
  H  791  1  0.48724000  0.07618800  0.64334300  1
  H  796  1  0.54412900  0.89629600  0.68833800  1
  H  797  1  0.57199000  0.93129000  0.69320400  1
  H  798  1  0.57282500  0.88468600  0.64935100  1
  H  799  1  0.60230200  0.88383400  0.67340700  1
  H  800  1  0.60043200  0.91980800  0.65425200  1
  H  802  1  0.57633800  0.99261700  0.68066500  1
  H  804  1  0.42678300  0.05922300  0.64357900  1
  H  812  1  0.34280400  0.21824100  0.60168700  1
  H  817  1  0.16282600  0.27762200  0.55789900  1
  H  818  1  0.19931800  0.30211800  0.55032400  1
  H  819  1  0.15454800  0.31322400  0.59442400  1
  H  820  1  0.15470100  0.33857000  0.56813800  1
  H  821  1  0.19117900  0.33743000  0.58683800  1
  H  823  1  0.25994100  0.30688800  0.56371400  1
  H  825  1  0.32557500  0.15815600  0.60220200  1
  H  833  1  0.15364200  0.74825000  0.10295300  1
  H  838  1  0.33291800  0.68964200  0.05745100  1
  H  839  1  0.29673600  0.66432400  0.05048400  1
  H  840  1  0.34211400  0.65544400  0.09452300  1
  H  841  1  0.34208600  0.62919300  0.06867800  1
  H  842  1  0.30578400  0.63042400  0.08754500  1
  H  844  1  0.23585400  0.65986000  0.06374600  1
  H  846  1  0.17080000  0.80835900  0.10336000  1
  H  854  1  0.48502200  0.88922400  0.35422200  1
  H  859  1  0.54147600  0.06897200  0.30776400  1
  H  860  1  0.56616000  0.03258200  0.30023600  1
  H  861  1  0.57813600  0.07854100  0.34361000  1
  H  862  1  0.60265300  0.07801600  0.31694000  1
  H  863  1  0.60251000  0.04199400  0.33608700  1
  H  865  1  0.57229100  0.97265900  0.31512400  1
  H  867  1  0.42472800  0.90618600  0.35547400  1
  H  875  1  0.01107800  0.07703600  0.85465400  1
  H  880  1  0.95459300  0.89763900  0.80776500  1
  H  881  1  0.92975100  0.93402700  0.80050800  1
  H  882  1  0.91869900  0.88803900  0.84398800  1
  H  883  1  0.89362000  0.88858100  0.81757700  1
  H  884  1  0.89416700  0.92459000  0.83673400  1
  H  886  1  0.92393400  0.99393500  0.81505200  1
  H  888  1  0.07139100  0.06015900  0.85575400  1
  H  896  1  0.84252600  0.74309900  0.09985900  1
  H  901  1  0.66067300  0.68632000  0.05871600  1
  H  902  1  0.69570800  0.65894400  0.05274800  1
  H  903  1  0.65095900  0.65641800  0.09751300  1
  H  904  1  0.64938700  0.62761600  0.07307500  1
  H  905  1  0.68612100  0.62931000  0.09151000  1
  H  907  1  0.75730000  0.65404500  0.06479100  1
  H  909  1  0.82591000  0.80355100  0.09986300  1
  H  917  1  0.65304700  0.22339600  0.59777900  1
  H  922  1  0.83601900  0.28122900  0.55957400  1
  H  923  1  0.80048000  0.30725600  0.55226900  1
  H  924  1  0.84397300  0.31394900  0.59743400  1
  H  925  1  0.84546900  0.34110300  0.57207800  1
  H  926  1  0.80831200  0.33971200  0.59010400  1
  H  928  1  0.73923700  0.31274100  0.56476600  1
  H  930  1  0.66968800  0.16296300  0.59797100  1
  H  938  1  0.65730300  0.74752800  0.39183000  1
  H  943  1  0.83525600  0.68751100  0.43932400  1
  H  944  1  0.79864100  0.66254400  0.44575600  1
  H  945  1  0.84541100  0.65302200  0.40250700  1
  H  946  1  0.84429400  0.62692400  0.42841500  1
  H  947  1  0.80864800  0.62834800  0.40894600  1
  H  949  1  0.73914500  0.65794200  0.43033100  1
  H  951  1  0.67413200  0.80761300  0.39314300  1
  H  959  1  0.83844600  0.21937700  0.89070400  1
  H  964  1  0.66114600  0.27869500  0.93965300  1
  H  965  1  0.69740500  0.30444800  0.94554400  1
  H  966  1  0.65017000  0.31183300  0.90234500  1
  H  967  1  0.65107300  0.33877100  0.92783000  1
  H  968  1  0.68658600  0.33728000  0.90824400  1
  H  970  1  0.75714000  0.30883100  0.93017800  1
  H  972  1  0.82175400  0.15925800  0.89222500  1
  H  980  1  0.50691400  0.39015400  0.64867700  1
  H  985  1  0.45180100  0.57368300  0.68734200  1
  H  986  1  0.42557700  0.53831500  0.69471300  1
  H  987  1  0.41877500  0.58199900  0.64964800  1
  H  988  1  0.39187200  0.58360900  0.67513500  1
  H  989  1  0.39282400  0.54650300  0.65704400  1
  H  991  1  0.41936000  0.47684300  0.68294600  1
  H  993  1  0.56754100  0.40618500  0.64754100  1
  H  1001  1  0.98935900  0.57573800  0.14736700  1
  H  1006  1  0.04386300  0.39302600  0.18799600  1
  H  1007  1  0.07117200  0.42798000  0.19434000  1
  H  1008  1  0.07451200  0.38352500  0.14945700  1
  H  1009  1  0.10283300  0.38175200  0.17416500  1
  H  1010  1  0.10154700  0.41861100  0.15583700  1
  H  1012  1  0.07679500  0.48987900  0.18312000  1
  H  1014  1  0.92873400  0.55970800  0.14647900  1
  H  1022  1  0.98191100  0.39105500  0.84941700  1
  H  1027  1  0.04462500  0.57105800  0.80775900  1
  H  1028  1  0.06878300  0.53436400  0.80011300  1
  H  1029  1  0.08013200  0.57872500  0.84438600  1
  H  1030  1  0.10560100  0.57849100  0.81815900  1
  H  1031  1  0.10400500  0.54190200  0.83673600  1
  H  1033  1  0.07289700  0.47378800  0.81407900  1
  H  1035  1  0.92202600  0.40840800  0.84786400  1
  H  1043  1  0.51416300  0.57567500  0.34969500  1
  H  1048  1  0.45135800  0.39586300  0.30794100  1
  H  1049  1  0.42702700  0.43253100  0.30052700  1
  H  1050  1  0.41667400  0.38826200  0.34496400  1
  H  1051  1  0.39062600  0.38843200  0.31902000  1
  H  1052  1  0.39262300  0.42506200  0.33754000  1
  H  1054  1  0.42324500  0.49314800  0.31401200  1
  H  1056  1  0.57404800  0.55840300  0.34801200  1
  C  1  1  0.18575000  0.40727900  0.88194900  1
  C  2  1  0.18886900  0.42861300  0.90206800  1
  C  3  1  0.20118800  0.41572700  0.92400700  1
  C  4  1  0.21113900  0.38120000  0.92568300  1
  C  5  1  0.20754400  0.35938000  0.90566100  1
  C  6  1  0.19496600  0.37271700  0.88398400  1
  C  9  1  0.17096700  0.41951400  0.86056000  1
  C  10  1  0.13612300  0.42806100  0.85977700  1
  C  11  1  0.12027000  0.43706400  0.83805000  1
  C  12  1  0.13970200  0.43754700  0.81670100  1
  C  13  1  0.17479400  0.42966900  0.81738600  1
  C  14  1  0.19008900  0.42028500  0.83926500  1
  C  25  1  0.31043700  0.55958800  0.38201800  1
  C  26  1  0.30733600  0.53823600  0.40213000  1
  C  27  1  0.29501200  0.55110200  0.42407100  1
  C  28  1  0.28503500  0.58561800  0.42576500  1
  C  29  1  0.28862200  0.60745900  0.40575300  1
  C  30  1  0.30120300  0.59414500  0.38406800  1
  C  33  1  0.32518800  0.54736500  0.36061500  1
  C  34  1  0.36002200  0.53877800  0.35981000  1
  C  35  1  0.37584400  0.52978100  0.33806900  1
  C  36  1  0.35639200  0.52934600  0.31673000  1
  C  37  1  0.32130900  0.53725700  0.31743900  1
  C  38  1  0.30604400  0.54663300  0.33933000  1
  C  49  1  0.82329500  0.91888200  0.13137400  1
  C  50  1  0.80226300  0.92223700  0.15163200  1
  C  51  1  0.81563300  0.93408800  0.17355000  1
  C  52  1  0.85036300  0.94334800  0.17506900  1
  C  53  1  0.87188300  0.93959600  0.15489300  1
  C  54  1  0.85805000  0.92744700  0.13324100  1
  C  57  1  0.81031700  0.90497800  0.10990400  1
  C  58  1  0.80016500  0.87058100  0.10887900  1
  C  59  1  0.79046800  0.85556800  0.08693900  1
  C  60  1  0.78903600  0.87580400  0.06605800  1
  C  61  1  0.79855500  0.91045200  0.06696400  1
  C  62  1  0.80980800  0.92459000  0.08881100  1
  C  73  1  0.67304100  0.04826300  0.63140900  1
  C  74  1  0.69401400  0.04490600  0.65169800  1
  C  75  1  0.68056800  0.03308300  0.67360200  1
  C  76  1  0.64582800  0.02385400  0.67507900  1
  C  77  1  0.62437100  0.02761100  0.65487100  1
  C  78  1  0.63827000  0.03973400  0.63323600  1
  C  81  1  0.68612300  0.06199400  0.60991300  1
  C  82  1  0.69646400  0.09632900  0.60880100  1
  C  83  1  0.70627200  0.11113800  0.58682400  1
  C  84  1  0.70758000  0.09080800  0.56598600  1
  C  85  1  0.69785500  0.05622300  0.56698200  1
  C  86  1  0.68654100  0.04226400  0.58887200  1
  C  97  1  0.31151500  0.40666800  0.61047100  1
  C  98  1  0.31062500  0.42566500  0.58912900  1
  C  99  1  0.30144000  0.41016600  0.56727600  1
  C  100  1  0.29403200  0.37496100  0.56666000  1
  C  101  1  0.29473900  0.35562600  0.58805400  1
  C  102  1  0.30343600  0.37171700  0.60975800  1
  C  105  1  0.32349600  0.42166400  0.63185300  1
  C  106  1  0.35806600  0.43075300  0.63407400  1
  C  107  1  0.37120700  0.44324500  0.65583300  1
  C  108  1  0.34917600  0.44691600  0.67573200  1
  C  109  1  0.31464900  0.43704300  0.67387400  1
  C  110  1  0.30194800  0.42481300  0.65185700  1
  C  121  1  0.18467700  0.55990100  0.11055100  1
  C  122  1  0.18556800  0.54092000  0.08920200  1
  C  123  1  0.19467600  0.55644900  0.06734400  1
  C  124  1  0.20199600  0.59167200  0.06673100  1
  C  125  1  0.20128300  0.61099500  0.08813100  1
  C  126  1  0.19267200  0.59487200  0.10983800  1
  C  129  1  0.17272700  0.54488500  0.13193100  1
  C  130  1  0.13816600  0.53576100  0.13415400  1
  C  131  1  0.12503500  0.52327100  0.15591700  1
  C  132  1  0.14706800  0.51962100  0.17581500  1
  C  133  1  0.18158300  0.52952900  0.17395300  1
  C  134  1  0.19427500  0.54176400  0.15193800  1
  C  145  1  0.67334100  0.92110500  0.36067200  1
  C  146  1  0.69187500  0.92251900  0.33913500  1
  C  147  1  0.67592800  0.93208600  0.31752600  1
  C  148  1  0.64070000  0.93941500  0.31733900  1
  C  149  1  0.62179700  0.93827300  0.33891900  1
  C  150  1  0.63836200  0.92918200  0.36037000  1
  C  153  1  0.68857300  0.90800700  0.38167500  1
  C  154  1  0.69914500  0.87371800  0.38252200  1
  C  155  1  0.71123500  0.85917300  0.40401500  1
  C  156  1  0.71402800  0.87966200  0.42469000  1
  C  157  1  0.70342300  0.91403100  0.42410300  1
  C  158  1  0.69067200  0.92793800  0.40258400  1
  C  169  1  0.82284000  0.04538900  0.86070000  1
  C  170  1  0.80430600  0.04400500  0.83916300  1
  C  171  1  0.82023800  0.03441700  0.81755400  1
  C  172  1  0.85545600  0.02703500  0.81736600  1
  C  173  1  0.87435800  0.02814100  0.83894600  1
  C  174  1  0.85780600  0.03725300  0.86039800  1
  C  177  1  0.80765100  0.05859600  0.88168400  1
  C  178  1  0.79718900  0.09292300  0.88247800  1
  C  179  1  0.78514700  0.10759400  0.90394600  1
  C  180  1  0.78225900  0.08716500  0.92464600  1
  C  181  1  0.79275200  0.05276100  0.92411300  1
  C  182  1  0.80548400  0.03874200  0.90262400  1
  C  193  1  0.81303600  0.55814100  0.11490800  1
  C  194  1  0.80956400  0.53678100  0.09483300  1
  C  195  1  0.79760300  0.54980500  0.07284600  1
  C  196  1  0.78831600  0.58449900  0.07106900  1
  C  197  1  0.79215700  0.60632900  0.09106500  1
  C  198  1  0.80443100  0.59285800  0.11279500  1
  C  201  1  0.82694800  0.54544200  0.13645400  1
  C  202  1  0.86123000  0.53489600  0.13749700  1
  C  203  1  0.87612900  0.52514800  0.15946300  1
  C  204  1  0.85590600  0.52411100  0.18035700  1
  C  205  1  0.82138200  0.53403900  0.17942300  1
  C  206  1  0.80734600  0.54530000  0.15755100  1
  C  217  1  0.68300500  0.40836000  0.61481200  1
  C  218  1  0.68641600  0.42972700  0.59473500  1
  C  219  1  0.69841500  0.41673700  0.57275200  1
  C  220  1  0.70781100  0.38207300  0.57097600  1
  C  221  1  0.70403900  0.36023200  0.59097300  1
  C  222  1  0.69171700  0.37366800  0.61270200  1
  C  225  1  0.66912100  0.42105800  0.63636900  1
  C  226  1  0.63485200  0.43163800  0.63744100  1
  C  227  1  0.62004900  0.44151500  0.65940900  1
  C  228  1  0.64032300  0.44261700  0.68027300  1
  C  229  1  0.67482900  0.43263800  0.67930900  1
  C  230  1  0.68879200  0.42128200  0.65743800  1
  C  241  1  0.17325100  0.04667600  0.86498400  1
  C  242  1  0.19311400  0.04409800  0.84407300  1
  C  243  1  0.17891800  0.03164400  0.82256800  1
  C  244  1  0.14433200  0.02179500  0.82199700  1
  C  245  1  0.12388900  0.02507200  0.84266300  1
  C  246  1  0.13872100  0.03687800  0.86414700  1
  C  249  1  0.18713800  0.06066900  0.88617000  1
  C  250  1  0.19775100  0.09495800  0.88684500  1
  C  251  1  0.20800300  0.11021700  0.90858000  1
  C  252  1  0.20949300  0.09032200  0.92961700  1
  C  253  1  0.19952600  0.05579700  0.92907100  1
  C  254  1  0.18780300  0.04141900  0.90743200  1
  C  265  1  0.32293200  0.91991500  0.36499700  1
  C  266  1  0.30304000  0.92250700  0.34410000  1
  C  267  1  0.31721100  0.93494300  0.32258100  1
  C  268  1  0.35180300  0.94476200  0.32198700  1
  C  269  1  0.37227300  0.94148100  0.34263900  1
  C  270  1  0.35746800  0.92968500  0.36413500  1
  C  273  1  0.30904300  0.90597700  0.38619800  1
  C  274  1  0.29841500  0.87169300  0.38691200  1
  C  275  1  0.28806700  0.85653200  0.40865600  1
  C  276  1  0.28653100  0.87648800  0.42966000  1
  C  277  1  0.29652800  0.91100100  0.42907200  1
  C  278  1  0.30831500  0.92530200  0.40742600  1
  C  289  1  0.68520300  0.55810800  0.38563100  1
  C  290  1  0.68610600  0.53982100  0.40728400  1
  C  291  1  0.69555300  0.55593000  0.42885200  1
  C  292  1  0.70330100  0.59105900  0.42889500  1
  C  293  1  0.70276000  0.60968500  0.40719000  1
  C  294  1  0.69372400  0.59299000  0.38577600  1
  C  297  1  0.67268700  0.54255300  0.36456800  1
  C  298  1  0.63856300  0.53149300  0.36341100  1
  C  299  1  0.62474800  0.51884200  0.34184800  1
  C  300  1  0.64568800  0.51611000  0.32140600  1
  C  301  1  0.67987800  0.52719900  0.32231800  1
  C  302  1  0.69313400  0.54039300  0.34390500  1
  C  313  1  0.81093000  0.40878200  0.88558400  1
  C  314  1  0.80995600  0.42704900  0.90724400  1
  C  315  1  0.80053900  0.41088800  0.92880300  1
  C  316  1  0.79290200  0.37573400  0.92882400  1
  C  317  1  0.79351000  0.35713200  0.90711200  1
  C  318  1  0.80251000  0.37387400  0.88570900  1
  C  321  1  0.82342200  0.42437800  0.86452900  1
  C  322  1  0.85755200  0.43541500  0.86336300  1
  C  323  1  0.87136200  0.44804000  0.84179400  1
  C  324  1  0.85041900  0.45075900  0.82135100  1
  C  325  1  0.81621800  0.43969400  0.82227300  1
  C  326  1  0.80296800  0.42653000  0.84387200  1
  C  337  1  0.32475100  0.04435100  0.63623900  1
  C  338  1  0.30574400  0.04360100  0.65760100  1
  C  339  1  0.32051300  0.03229200  0.67921800  1
  C  340  1  0.35523500  0.02298600  0.67964200  1
  C  341  1  0.37491300  0.02466900  0.65850600  1
  C  342  1  0.35923100  0.03436200  0.63679000  1
  C  345  1  0.31028200  0.05769700  0.61504500  1
  C  346  1  0.30014500  0.09211600  0.61398100  1
  C  347  1  0.28800100  0.10644700  0.59243300  1
  C  348  1  0.28481900  0.08569500  0.57192200  1
  C  349  1  0.29502900  0.05122800  0.57272400  1
  C  350  1  0.30776300  0.03748100  0.59429100  1
  C  361  1  0.17130300  0.92266200  0.13621000  1
  C  362  1  0.19037900  0.92341200  0.15754400  1
  C  363  1  0.17570200  0.93479000  0.17917600  1
  C  364  1  0.14100900  0.94419500  0.17964100  1
  C  365  1  0.12127200  0.94252100  0.15853100  1
  C  366  1  0.13684900  0.93273300  0.13680100  1
  C  369  1  0.18565800  0.90917500  0.11502000  1
  C  370  1  0.19569200  0.87472000  0.11402100  1
  C  371  1  0.20773200  0.86024100  0.09248900  1
  C  372  1  0.21094900  0.88090400  0.07193600  1
  C  373  1  0.20084400  0.91540500  0.07267300  1
  C  374  1  0.18818500  0.92928800  0.09422000  1
  C  385  1  0.23409900  0.43448400  0.76934800  1
  C  387  1  0.24443200  0.39669900  0.73671800  1
  C  388  1  0.25808100  0.42368900  0.72320600  1
  C  390  1  0.24707900  0.46223400  0.75588900  1
  C  391  1  0.24816400  0.49550400  0.76431000  1
  C  395  1  0.22026800  0.52759000  0.79353200  1
  C  396  1  0.18408700  0.53725900  0.80161500  1
  C  402  1  0.22257700  0.43708400  0.79237900  1
  C  404  1  0.27199300  0.41850700  0.70094100  1
  C  406  1  0.26201700  0.53239800  0.26943300  1
  C  408  1  0.25099800  0.57031500  0.23699400  1
  C  409  1  0.23796500  0.54319400  0.22331800  1
  C  411  1  0.24967600  0.50452600  0.25580500  1
  C  412  1  0.24919600  0.47117300  0.26399600  1
  C  416  1  0.27637600  0.43952300  0.29383900  1
  C  417  1  0.31234700  0.43028500  0.30260500  1
  C  423  1  0.27350700  0.52983900  0.29246700  1
  C  425  1  0.22403900  0.54832400  0.20105300  1
  C  427  1  0.79505400  0.97216800  0.02027000  1
  C  429  1  0.83354600  0.98399400  0.98829300  1
  C  430  1  0.80708900  0.99918400  0.97506600  1
  C  432  1  0.76784100  0.98688100  0.00714900  1
  C  433  1  0.73452600  0.98851900  0.01537300  1
  C  437  1  0.70239800  0.96252500  0.04542800  1
  C  438  1  0.69224900  0.92686900  0.05430600  1
  C  444  1  0.79207800  0.95938800  0.04295900  1
  C  446  1  0.81272100  0.01368000  0.95299600  1
  C  448  1  0.70086400  0.99435000  0.52036300  1
  C  450  1  0.66274100  0.98350300  0.48799900  1
  C  451  1  0.68910200  0.96775500  0.47499700  1
  C  453  1  0.72797100  0.97901100  0.50749000  1
  C  454  1  0.76108800  0.97667800  0.51608600  1
  C  458  1  0.79372900  0.00370300  0.54536100  1
  C  459  1  0.80458600  0.03962900  0.55323300  1
  C  465  1  0.70378200  0.00710500  0.54306600  1
  C  467  1  0.68356700  0.95344400  0.45285400  1
  C  469  1  0.75989700  0.53080100  0.22618200  1
  C  471  1  0.74872800  0.56881400  0.25854200  1
  C  472  1  0.73385200  0.54214100  0.27172400  1
  C  474  1  0.74551500  0.50336900  0.23925000  1
  C  475  1  0.74371900  0.47017600  0.23080000  1
  C  479  1  0.76922000  0.43835100  0.20038100  1
  C  480  1  0.80470800  0.42809200  0.19123500  1
  C  486  1  0.77237900  0.52812000  0.20341100  1
  C  488  1  0.71952800  0.54747500  0.29387200  1
  C  490  1  0.73640800  0.43590900  0.72602500  1
  C  492  1  0.74675400  0.39823600  0.75872200  1
  C  493  1  0.76217600  0.42482100  0.77168600  1
  C  495  1  0.75137600  0.46324600  0.73886600  1
  C  496  1  0.75375700  0.49626700  0.73008700  1
  C  500  1  0.72716700  0.52856500  0.70043200  1
  C  501  1  0.69137100  0.53935300  0.69222700  1
  C  507  1  0.72390100  0.43853900  0.70325200  1
  C  509  1  0.77633800  0.41957800  0.79389900  1
  C  511  1  0.20153700  0.99524500  0.97647900  1
  C  513  1  0.16235600  0.98457700  0.00823600  1
  C  514  1  0.18851000  0.96977500  0.02195700  1
  C  516  1  0.22846000  0.98093700  0.99010100  1
  C  517  1  0.26195300  0.97908700  0.98219900  1
  C  521  1  0.29470400  0.00317900  0.95174200  1
  C  522  1  0.30537000  0.03825700  0.94206000  1
  C  528  1  0.20497700  0.00732000  0.95364700  1
  C  530  1  0.18236200  0.95576900  0.04409400  1
  C  532  1  0.29456900  0.97157300  0.47647300  1
  C  534  1  0.33348100  0.98159300  0.50849900  1
  C  535  1  0.30736100  0.99673800  0.52207100  1
  C  537  1  0.26767600  0.98619400  0.48995800  1
  C  538  1  0.23434000  0.98861900  0.48188900  1
  C  542  1  0.20162200  0.96384500  0.45165000  1
  C  543  1  0.19067700  0.92857900  0.44247400  1
  C  549  1  0.29121900  0.95956400  0.45361800  1
  C  551  1  0.31341600  0.01060400  0.54426800  1
  C  553  1  0.73431200  0.93621000  0.26882100  1
  C  555  1  0.74465000  0.89704600  0.23698900  1
  C  556  1  0.75873700  0.92335400  0.22304600  1
  C  558  1  0.74771800  0.96328600  0.25489700  1
  C  559  1  0.74903000  0.99686500  0.26267700  1
  C  563  1  0.72151200  0.02999700  0.29149600  1
  C  564  1  0.68540900  0.03980400  0.29966500  1
  C  570  1  0.72292900  0.93970500  0.29184100  1
  C  572  1  0.77263900  0.91720800  0.20089900  1
  C  574  1  0.76189900  0.03054500  0.76884000  1
  C  576  1  0.75095900  0.07003600  0.73731300  1
  C  577  1  0.73735700  0.04371700  0.72314700  1
  C  579  1  0.74899500  0.00346400  0.75468700  1
  C  580  1  0.74817800  0.96977000  0.76215200  1
  C  584  1  0.77487200  0.93686900  0.79153500  1
  C  585  1  0.81073200  0.92735800  0.80038700  1
  C  591  1  0.77324700  0.02693000  0.79185300  1
  C  593  1  0.72342000  0.04997600  0.70103100  1
  C  595  1  0.29640500  0.46950400  0.51924000  1
  C  597  1  0.33489800  0.48115200  0.48724100  1
  C  598  1  0.30804600  0.49456500  0.47348100  1
  C  600  1  0.26880100  0.48222500  0.50551200  1
  C  601  1  0.23530500  0.48260400  0.51342600  1
  C  605  1  0.20330500  0.45508600  0.54293000  1
  C  606  1  0.19421400  0.41899500  0.55153000  1
  C  612  1  0.29346700  0.45773700  0.54219100  1
  C  614  1  0.31356100  0.50880700  0.45135500  1
  C  616  1  0.19976400  0.49712900  0.01927900  1
  C  618  1  0.16147500  0.48604300  0.98706100  1
  C  619  1  0.18829600  0.47230000  0.97343100  1
  C  621  1  0.22733800  0.48402100  0.00570000  1
  C  622  1  0.26075200  0.48321700  0.01385400  1
  C  626  1  0.29304300  0.51150900  0.04278300  1
  C  627  1  0.30239300  0.54782300  0.05075800  1
  C  633  1  0.20265400  0.50888600  0.04224300  1
  C  635  1  0.18282700  0.45818400  0.95125900  1
  C  637  1  0.26004500  0.02971400  0.72674300  1
  C  639  1  0.24918900  0.06915800  0.75831600  1
  C  640  1  0.23359800  0.04329700  0.77188400  1
  C  642  1  0.24494700  0.00308200  0.74023100  1
  C  643  1  0.24267000  0.96962200  0.73239100  1
  C  647  1  0.26801700  0.93650200  0.70259400  1
  C  648  1  0.30350000  0.92580600  0.69368800  1
  C  654  1  0.27233400  0.02605800  0.70396900  1
  C  656  1  0.21928800  0.04972300  0.79389200  1
  C  658  1  0.23623900  0.93706200  0.22668300  1
  C  660  1  0.24622700  0.89785300  0.25854400  1
  C  661  1  0.26236000  0.92356700  0.27193600  1
  C  663  1  0.25189600  0.96355000  0.23999200  1
  C  664  1  0.25477700  0.99687100  0.23187300  1
  C  668  1  0.22851300  0.03050100  0.20281000  1
  C  669  1  0.19278000  0.04174000  0.19477100  1
  C  675  1  0.22396600  0.94072200  0.20389900  1
  C  677  1  0.27652900  0.91714700  0.29399100  1
  C  679  1  0.69994100  0.49804700  0.47772700  1
  C  681  1  0.66065000  0.48677100  0.50930500  1
  C  682  1  0.68723200  0.47388700  0.52355400  1
  C  684  1  0.72727600  0.48586500  0.49195200  1
  C  685  1  0.76100400  0.48570500  0.48445600  1
  C  689  1  0.79368300  0.51172000  0.45468500  1
  C  690  1  0.80282600  0.54736500  0.44523600  1
  C  696  1  0.70336700  0.50925000  0.45467800  1
  C  698  1  0.68121900  0.45990600  0.54567400  1
  C  700  1  0.79602900  0.46866700  0.97774400  1
  C  702  1  0.83515900  0.47945300  0.00950900  1
  C  703  1  0.80859500  0.49261100  0.02365100  1
  C  705  1  0.76870100  0.48107000  0.99188300  1
  C  706  1  0.73505800  0.48169900  0.98429000  1
  C  710  1  0.70249200  0.45517300  0.95464100  1
  C  711  1  0.69325600  0.41938200  0.94551800  1
  C  717  1  0.79266600  0.45754300  0.95467000  1
  C  719  1  0.81456500  0.50646200  0.04582000  1
  C  721  1  0.22134200  0.26949200  0.91485500  1
  C  723  1  0.18108200  0.22783600  0.90141800  1
  C  724  1  0.20429100  0.20146200  0.90632500  1
  C  726  1  0.24519000  0.24319700  0.91987600  1
  C  727  1  0.27766300  0.24905800  0.92884600  1
  C  731  1  0.31778800  0.29303400  0.93037800  1
  C  732  1  0.33406100  0.31994700  0.91396900  1
  C  738  1  0.22642700  0.30377900  0.91914800  1
  C  740  1  0.19566500  0.16786000  0.90256300  1
  C  742  1  0.27485700  0.69729400  0.41505400  1
  C  744  1  0.31559000  0.73899100  0.40241900  1
  C  745  1  0.29213700  0.76532600  0.40681800  1
  C  747  1  0.25075800  0.72354500  0.41957200  1
  C  748  1  0.21797100  0.71775600  0.42792000  1
  C  752  1  0.17874800  0.67299600  0.43042600  1
  C  753  1  0.16344400  0.64472500  0.41470000  1
  C  759  1  0.26972700  0.66301700  0.41929000  1
  C  761  1  0.30082100  0.79893700  0.40316300  1
  C  763  1  0.96177200  0.95417600  0.16375400  1
  C  765  1  0.00401700  0.91408900  0.15097000  1
  C  766  1  0.03009200  0.93766700  0.15579900  1
  C  768  1  0.98776600  0.97841300  0.16866500  1
  C  769  1  0.98162100  0.01099300  0.17728200  1
  C  773  1  0.93681800  0.05022000  0.17959500  1
  C  774  1  0.90881400  0.06566100  0.16369900  1
  C  780  1  0.92740100  0.95895100  0.16790100  1
  C  782  1  0.06384200  0.92940800  0.15226900  1
  C  784  1  0.53444700  0.01288100  0.66357800  1
  C  786  1  0.49222900  0.05254000  0.65009500  1
  C  787  1  0.46612500  0.02919400  0.65538400  1
  C  789  1  0.50841400  0.98888800  0.66895800  1
  C  790  1  0.51463400  0.95660800  0.67815000  1
  C  794  1  0.55863800  0.91647600  0.67953500  1
  C  795  1  0.58533700  0.90009600  0.66300600  1
  C  801  1  0.56883400  0.00813500  0.66774600  1
  C  803  1  0.43238200  0.03741100  0.65177700  1
  C  805  1  0.27935000  0.26561300  0.58196000  1
  C  807  1  0.31884900  0.22336900  0.59554700  1
  C  808  1  0.29463500  0.19752900  0.59175500  1
  C  810  1  0.25443600  0.23989800  0.57810800  1
  C  811  1  0.22181800  0.24621300  0.56957700  1
  C  815  1  0.18421400  0.29209300  0.56519200  1
  C  816  1  0.17021600  0.32235900  0.57963900  1
  C  822  1  0.27525700  0.29978500  0.57687500  1
  C  824  1  0.30255100  0.16383300  0.59586700  1
  C  826  1  0.21653100  0.70106900  0.08213200  1
  C  828  1  0.17740600  0.74318800  0.09643200  1
  C  829  1  0.20142900  0.76909400  0.09227900  1
  C  831  1  0.24126100  0.72685000  0.07793000  1
  C  832  1  0.27363400  0.72053100  0.06888000  1
  C  836  1  0.31183100  0.67510000  0.06509600  1
  C  837  1  0.32644000  0.64555900  0.07998100  1
  C  843  1  0.22058600  0.66690900  0.07694900  1
  C  845  1  0.19356500  0.80276300  0.09654700  1
  C  847  1  0.53145100  0.95283300  0.33362200  1
  C  849  1  0.48979700  0.91308500  0.34777100  1
  C  850  1  0.46358800  0.93678700  0.34365000  1
  C  852  1  0.50535900  0.97727900  0.32950100  1
  C  853  1  0.51126100  0.00983100  0.32064200  1
  C  857  1  0.55642800  0.04793100  0.31507600  1
  C  858  1  0.58698100  0.06261100  0.32887500  1
  C  864  1  0.56553700  0.95727500  0.32833300  1
  C  866  1  0.43000600  0.92851800  0.34788700  1
  C  868  1  0.96472000  0.01362500  0.83367900  1
  C  870  1  0.00632500  0.05323400  0.84808600  1
  C  871  1  0.03256200  0.02962000  0.84380100  1
  C  873  1  0.99083700  0.98926200  0.82942500  1
  C  874  1  0.98506200  0.95685200  0.82033200  1
  C  878  1  0.93979600  0.91867100  0.81524100  1
  C  879  1  0.90954100  0.90397800  0.82935400  1
  C  885  1  0.93064900  0.00922400  0.82832400  1
  C  887  1  0.06613800  0.03788700  0.84807400  1
  C  889  1  0.77800100  0.69608300  0.08141400  1
  C  891  1  0.81853800  0.73818700  0.09369600  1
  C  892  1  0.79506700  0.76436500  0.08889000  1
  C  894  1  0.75388400  0.72217900  0.07648300  1
  C  895  1  0.72114800  0.71606700  0.06805500  1
  C  899  1  0.68134600  0.67177000  0.06689900  1
  C  900  1  0.66591300  0.64444700  0.08337600  1
  C  906  1  0.77291100  0.66167900  0.07761900  1
  C  908  1  0.80356800  0.79806400  0.09234900  1
  C  910  1  0.71842100  0.27059300  0.58113800  1
  C  912  1  0.67733000  0.22837500  0.59224700  1
  C  913  1  0.70110100  0.20226400  0.58803500  1
  C  915  1  0.74284900  0.24457200  0.57678600  1
  C  916  1  0.77596100  0.25063800  0.56916100  1
  C  920  1  0.81478400  0.29577600  0.56700900  1
  C  921  1  0.82910000  0.32456400  0.58273300  1
  C  927  1  0.72355000  0.30501300  0.57751600  1
  C  929  1  0.69253400  0.16853600  0.59127200  1
  C  931  1  0.71973100  0.69960600  0.41251400  1
  C  933  1  0.68092700  0.74224400  0.39851300  1
  C  934  1  0.70479700  0.76800700  0.40346000  1
  C  936  1  0.74434700  0.72525700  0.41743900  1
  C  937  1  0.77647000  0.71877100  0.42679700  1
  C  941  1  0.81431300  0.67310000  0.43136700  1
  C  942  1  0.82916900  0.64335400  0.41681100  1
  C  948  1  0.72348900  0.66531400  0.41744600  1
  C  950  1  0.69696200  0.80181900  0.39977200  1
  C  952  1  0.77657700  0.26717200  0.91234900  1
  C  954  1  0.81502800  0.22461100  0.89775900  1
  C  955  1  0.79134300  0.19880300  0.90302100  1
  C  957  1  0.75214600  0.24147300  0.91759700  1
  C  958  1  0.72026300  0.24798200  0.92741300  1
  C  962  1  0.68179900  0.29317700  0.93138900  1
  C  963  1  0.66636400  0.32221100  0.91642500  1
  C  969  1  0.77283500  0.30146900  0.91731400  1
  C  971  1  0.79914000  0.16500500  0.89922400  1
  C  973  1  0.46096100  0.45614700  0.66581400  1
  C  975  1  0.50237000  0.41450600  0.65424100  1
  C  976  1  0.52886900  0.43794900  0.65815000  1
  C  978  1  0.48737000  0.48023600  0.66987400  1
  C  979  1  0.48183200  0.51342900  0.67751000  1
  C  983  1  0.43702100  0.55258000  0.67994300  1
  C  984  1  0.40819100  0.56715600  0.66437600  1
  C  990  1  0.42670100  0.46170700  0.66976000  1
  C  992  1  0.56240000  0.42890600  0.65459900  1
  C  994  1  0.03523300  0.51041000  0.16581500  1
  C  996  1  0.99387100  0.55160800  0.15340300  1
  C  997  1  0.96734500  0.52836400  0.15777400  1
  C  999  1  0.00878900  0.48652700  0.17033300  1
  C  1000  1  0.01441600  0.45360800  0.17856900  1
  C  1004  1  0.05860400  0.41373000  0.18002000  1
  C  1005  1  0.08622400  0.39836800  0.16375700  1
  C  1011  1  0.06949200  0.50489000  0.16985000  1
  C  1013  1  0.93382600  0.53732000  0.15405800  1
  C  1015  1  0.03072100  0.45436400  0.83127300  1
  C  1017  1  0.98753200  0.41506800  0.84361600  1
  C  1018  1  0.96213800  0.43970700  0.83969900  1
  C  1020  1  0.00545600  0.47968900  0.82725600  1
  C  1021  1  0.01252400  0.51242200  0.81917600  1
  C  1025  1  0.05884200  0.54946900  0.81500900  1
  C  1026  1  0.08918000  0.56306300  0.82957000  1
  C  1032  1  0.06512000  0.45808500  0.82682300  1
  C  1034  1  0.92824300  0.43211100  0.84320300  1
  C  1036  1  0.46539200  0.51249100  0.33129000  1
  C  1038  1  0.50855400  0.55169500  0.34381600  1
  C  1039  1  0.53396400  0.52710700  0.33979300  1
  C  1041  1  0.49067200  0.48721100  0.32718900  1
  C  1042  1  0.48370700  0.45458000  0.31893400  1
  C  1046  1  0.43729900  0.41745900  0.31532600  1
  C  1047  1  0.40729300  0.40389100  0.33023500  1
  C  1053  1  0.43100300  0.50880500  0.32678800  1
  C  1055  1  0.56785200  0.53470500  0.34332600  1
  N  21  1  0.19172800  0.42873000  0.79694700  1
  N  22  1  0.08675800  0.44039600  0.83871600  1
  N  23  1  0.21064100  0.32584100  0.90637100  1
  N  24  1  0.20251100  0.43443800  0.94370400  1
  N  45  1  0.30435000  0.53823300  0.29701400  1
  N  46  1  0.40935100  0.52642000  0.33872000  1
  N  47  1  0.28551600  0.64099800  0.40648100  1
  N  48  1  0.29368100  0.53235500  0.44374800  1
  N  69  1  0.79931800  0.92803200  0.04676400  1
  N  70  1  0.78430500  0.82243600  0.08514800  1
  N  71  1  0.90546600  0.94258500  0.15536900  1
  N  72  1  0.79704400  0.93601100  0.19328000  1
  N  93  1  0.69696200  0.03856900  0.54681900  1
  N  94  1  0.71252800  0.14423300  0.58500100  1
  N  95  1  0.59079100  0.02460700  0.65529900  1
  N  96  1  0.69913700  0.03108100  0.69333400  1
  N  117  1  0.29586100  0.43815000  0.69353300  1
  N  118  1  0.40475100  0.44604100  0.65681900  1
  N  119  1  0.29192100  0.32207400  0.58889700  1
  N  120  1  0.30235000  0.42704400  0.54680600  1
  N  141  1  0.20038500  0.52845000  0.19360500  1
  N  142  1  0.09149500  0.52044000  0.15688600  1
  N  143  1  0.20405400  0.64455200  0.08899400  1
  N  144  1  0.19377200  0.53957700  0.04687000  1
  N  165  1  0.70467800  0.93167700  0.44428400  1
  N  166  1  0.71722800  0.82598900  0.40590500  1
  N  167  1  0.58822000  0.94077300  0.34010300  1
  N  168  1  0.69230500  0.93101600  0.29685500  1
  N  189  1  0.79139700  0.03513100  0.94430000  1
  N  190  1  0.77920700  0.14079500  0.90580600  1
  N  191  1  0.90793300  0.02561600  0.84013600  1
  N  192  1  0.80387400  0.03557600  0.79688300  1
  N  213  1  0.80382500  0.53492700  0.19961100  1
  N  214  1  0.90914400  0.51850700  0.16130400  1
  N  215  1  0.78929500  0.63989900  0.09027300  1
  N  216  1  0.79573900  0.53096100  0.05324800  1
  N  237  1  0.69243200  0.43180800  0.69948000  1
  N  238  1  0.58705200  0.44820300  0.66124800  1
  N  239  1  0.70696200  0.32666800  0.59014700  1
  N  240  1  0.70022600  0.43558300  0.55315400  1
  N  261  1  0.19841100  0.03871600  0.94945800  1
  N  262  1  0.21435600  0.14333000  0.91021900  1
  N  263  1  0.09072800  0.01896500  0.84078100  1
  N  264  1  0.19667400  0.02954500  0.80247400  1
  N  285  1  0.29757300  0.92812100  0.44944500  1
  N  286  1  0.28168700  0.82343600  0.41030700  1
  N  287  1  0.40543100  0.94757300  0.34073900  1
  N  288  1  0.29945500  0.93704900  0.30248600  1
  N  309  1  0.69784000  0.52617100  0.30228500  1
  N  310  1  0.59163800  0.51284200  0.33966100  1
  N  311  1  0.70590600  0.64319900  0.40590700  1
  N  312  1  0.69433700  0.53973700  0.44957300  1
  N  333  1  0.79828200  0.44068800  0.80222500  1
  N  334  1  0.90447400  0.45401500  0.83960100  1
  N  335  1  0.79041500  0.32361800  0.90580400  1
  N  336  1  0.80165800  0.42705700  0.94953700  1
  N  357  1  0.29324400  0.03334000  0.55268500  1
  N  358  1  0.28206400  0.13958500  0.59030300  1
  N  359  1  0.40814200  0.01879700  0.65997600  1
  N  360  1  0.30356100  0.03330500  0.69967500  1
  N  381  1  0.20267600  0.93323400  0.05261100  1
  N  382  1  0.21362100  0.82708300  0.09039400  1
  N  383  1  0.08805900  0.94843300  0.16001800  1
  N  384  1  0.19268200  0.93370700  0.19961700  1
  N  386  1  0.23332400  0.40309400  0.75917400  1
  N  389  1  0.25864400  0.45505800  0.73348400  1
  N  407  1  0.26216700  0.56391000  0.25943300  1
  N  410  1  0.23802100  0.51171000  0.23342600  1
  N  428  1  0.82656400  0.97143300  0.01028100  1
  N  431  1  0.77562300  0.99976300  0.98519900  1
  N  449  1  0.66958400  0.99587300  0.51006200  1
  N  452  1  0.72034200  0.96640400  0.48543400  1
  N  470  1  0.76084600  0.56216500  0.23638300  1
  N  473  1  0.73306800  0.51082500  0.26137200  1
  N  491  1  0.73478500  0.40475300  0.73650300  1
  N  494  1  0.76361900  0.45593300  0.76106900  1
  N  512  1  0.16982600  0.99640000  0.98612700  1
  N  515  1  0.22018500  0.96878800  0.01216800  1
  N  533  1  0.32613700  0.96995300  0.48632100  1
  N  536  1  0.27582900  0.99818300  0.51208500  1
  N  554  1  0.73338900  0.90443300  0.25925600  1
  N  557  1  0.75946500  0.95511500  0.23270300  1
  N  575  1  0.76229300  0.06248600  0.75953400  1
  N  578  1  0.73714600  0.01179400  0.73255200  1
  N  596  1  0.32808800  0.46952700  0.50950600  1
  N  599  1  0.27638900  0.49434400  0.48332000  1
  N  617  1  0.16819900  0.49757400  0.00936200  1
  N  620  1  0.21983900  0.47206000  0.98344800  1
  N  638  1  0.26142100  0.06143800  0.73636200  1
  N  641  1  0.23236500  0.01160800  0.76212900  1
  N  659  1  0.23417100  0.90551700  0.23653100  1
  N  662  1  0.26426500  0.95508700  0.26196400  1
  N  680  1  0.66799200  0.49797600  0.48702100  1
  N  683  1  0.71915700  0.47415400  0.51416200  1
  N  701  1  0.82789700  0.46840000  0.98717300  1
  N  704  1  0.77674700  0.49267800  0.01412900  1
  N  722  1  0.19044600  0.26025000  0.90598000  1
  N  725  1  0.23514400  0.21057900  0.91532300  1
  N  743  1  0.30609700  0.70656600  0.40681600  1
  N  746  1  0.26094800  0.75616600  0.41520300  1
  N  764  1  0.97144300  0.92319600  0.15525700  1
  N  767  1  0.02053200  0.96860200  0.16441400  1
  N  785  1  0.52479600  0.04353800  0.65450300  1
  N  788  1  0.47564800  0.99857300  0.66455700  1
  N  806  1  0.31031500  0.25583200  0.59040100  1
  N  809  1  0.26371100  0.20720500  0.58317800  1
  N  827  1  0.18583400  0.71076000  0.09109500  1
  N  830  1  0.23209600  0.75951400  0.08320300  1
  N  848  1  0.52212800  0.92195700  0.34248000  1
  N  851  1  0.47281000  0.96763800  0.33470800  1
  N  869  1  0.97400700  0.04440200  0.84272200  1
  N  872  1  0.02337800  0.99887000  0.83467000  1
  N  890  1  0.80914700  0.70563700  0.08967000  1
  N  893  1  0.76396000  0.75493000  0.08051700  1
  N  911  1  0.68686900  0.26095500  0.58853200  1
  N  914  1  0.73260800  0.21179800  0.58049200  1
  N  932  1  0.68924500  0.70964100  0.40338000  1
  N  935  1  0.73525800  0.75810200  0.41269100  1
  N  953  1  0.80679400  0.25719500  0.90275500  1
  N  956  1  0.76113600  0.20864600  0.91268900  1
  N  974  1  0.47000900  0.42446400  0.65832300  1
  N  977  1  0.51992500  0.46957800  0.66580500  1
  N  995  1  0.02622200  0.54178500  0.15768800  1
  N  998  1  0.97624300  0.49703200  0.16603900  1
  N  1016  1  0.02026000  0.42333000  0.83916500  1
  N  1019  1  0.97248100  0.47071200  0.83167500  1
  N  1037  1  0.47583400  0.54346600  0.33930700  1
  N  1040  1  0.52364100  0.49616200  0.33163700  1
  O  8  1  0.22048100  0.36836000  0.94734600  1
  O  15  1  0.12417500  0.44260400  0.79518000  1
  O  32  1  0.27568200  0.59842100  0.44743600  1
  O  39  1  0.37188600  0.52428600  0.29519900  1
  O  56  1  0.86361600  0.95228400  0.19669800  1
  O  63  1  0.78073300  0.86139600  0.04464100  1
  O  80  1  0.63250600  0.01493000  0.69668800  1
  O  87  1  0.71588800  0.10506700  0.54451900  1
  O  104  1  0.28914600  0.35930400  0.54517300  1
  O  111  1  0.36181600  0.45610600  0.69748700  1
  O  128  1  0.20679000  0.60735500  0.04524300  1
  O  135  1  0.13444000  0.51041800  0.19757100  1
  O  152  1  0.62458800  0.94444900  0.29603800  1
  O  159  1  0.72563000  0.86576600  0.44551900  1
  O  176  1  0.87155500  0.02199700  0.79606000  1
  O  183  1  0.77067300  0.10114600  0.94545100  1
  O  200  1  0.77931600  0.59741400  0.04935200  1
  O  207  1  0.87021700  0.51574200  0.20179500  1
  O  224  1  0.71683700  0.36918600  0.54925500  1
  O  231  1  0.62608600  0.45105700  0.70172600  1
  O  248  1  0.13028300  0.01020300  0.80121300  1
  O  255  1  0.21813000  0.10500000  0.95088200  1
  O  272  1  0.36583700  0.95634400  0.30119400  1
  O  279  1  0.27784400  0.86188200  0.45094200  1
  O  296  1  0.70827200  0.60738500  0.45013000  1
  O  303  1  0.63234300  0.50418300  0.30048800  1
  O  320  1  0.78798800  0.35936200  0.95004800  1
  O  327  1  0.86377100  0.46264900  0.80042400  1
  O  344  1  0.37026600  0.01475900  0.70085900  1
  O  351  1  0.27310000  0.09938700  0.55105400  1
  O  368  1  0.12605500  0.95244900  0.20088100  1
  O  375  1  0.22260800  0.86710700  0.05108600  1
  O  393  1  0.26643200  0.51568300  0.75365600  1
  O  394  1  0.21824000  0.50794000  0.77178800  1
  O  414  1  0.23222400  0.45032900  0.25290600  1
  O  415  1  0.27898600  0.45913600  0.27210200  1
  O  435  1  0.71427500  0.00636300  0.00441700  1
  O  436  1  0.72133100  0.95922100  0.02344700  1
  O  456  1  0.78057000  0.95727000  0.50579400  1
  O  457  1  0.77480900  0.00614200  0.52332500  1
  O  477  1  0.72600200  0.44979800  0.24174100  1
  O  478  1  0.77288300  0.45706000  0.22242700  1
  O  498  1  0.77294700  0.51592500  0.74041900  1
  O  499  1  0.72438100  0.50982000  0.72252300  1
  O  519  1  0.28162600  0.96114900  0.99360700  1
  O  520  1  0.27549300  0.00779300  0.97348300  1
  O  540  1  0.21449200  0.00653000  0.49315000  1
  O  541  1  0.22058400  0.95973400  0.47355000  1
  O  561  1  0.76728900  0.01656200  0.25157700  1
  O  562  1  0.71923500  0.00972200  0.27005000  1
  O  582  1  0.73115500  0.94953700  0.75055700  1
  O  583  1  0.77779500  0.95715000  0.77012600  1
  O  603  1  0.21462700  0.49967000  0.50225600  1
  O  604  1  0.22315400  0.45272800  0.52128800  1
  O  624  1  0.28089600  0.46502400  0.00310300  1
  O  625  1  0.27310500  0.51326400  0.02115500  1
  O  645  1  0.22456800  0.94992800  0.74363500  1
  O  646  1  0.27170300  0.95576600  0.72440100  1
  O  666  1  0.27426500  0.01582600  0.24257100  1
  O  667  1  0.22558600  0.01115000  0.22462900  1
  O  687  1  0.78123900  0.46875100  0.49611800  1
  O  688  1  0.77322700  0.51514900  0.47597200  1
  O  708  1  0.71459100  0.49839100  0.99592400  1
  O  709  1  0.72275100  0.45209200  0.97605200  1
  O  729  1  0.29300400  0.22478900  0.93736900  1
  O  730  1  0.29653300  0.27098800  0.91615200  1
  O  750  1  0.20152300  0.74213500  0.43519600  1
  O  751  1  0.19972500  0.69469700  0.41573400  1
  O  771  1  0.00574100  0.02738300  0.18503400  1
  O  772  1  0.95878300  0.02938100  0.16499300  1
  O  792  1  0.49062900  0.94130800  0.68707600  1
  O  793  1  0.53638500  0.93762400  0.66538500  1
  O  813  1  0.20448900  0.22193500  0.56319900  1
  O  814  1  0.20440500  0.27088800  0.58077300  1
  O  834  1  0.29010000  0.74487500  0.06158900  1
  O  835  1  0.29146300  0.69651300  0.08041400  1
  O  855  1  0.48657100  0.02630800  0.31391000  1
  O  856  1  0.53596100  0.02789000  0.33122700  1
  O  876  1  0.00962500  0.94010900  0.81371900  1
  O  877  1  0.96061200  0.93869800  0.83118400  1
  O  897  1  0.70529800  0.74021400  0.05982300  1
  O  898  1  0.70286400  0.69383700  0.08091900  1
  O  918  1  0.79300200  0.22637600  0.56237500  1
  O  919  1  0.79346200  0.27411900  0.58149300  1
  O  939  1  0.79326100  0.74287500  0.43414500  1
  O  940  1  0.79465800  0.69461000  0.41565200  1
  O  960  1  0.70435200  0.22385000  0.93561200  1
  O  961  1  0.70168400  0.27149100  0.91594400  1
  O  981  1  0.50641200  0.53020300  0.68404600  1
  O  982  1  0.45837600  0.53115400  0.66531700  1
  O  1002  1  0.98992900  0.43780100  0.18632500  1
  O  1003  1  0.03684900  0.43536200  0.16585400  1
  O  1023  1  0.98851700  0.52983400  0.81238800  1
  O  1024  1  0.03737000  0.52937600  0.83047000  1
  O  1044  1  0.50757800  0.43688600  0.31229300  1
  O  1045  1  0.45911700  0.43758300  0.33053200  1
