# generated using pymatgen
data_H36C57(NO)4
_symmetry_space_group_name_H-M   'P 1'
_cell_length_a   37.53850000
_cell_length_b   55.54920000
_cell_length_c   55.54910000
_cell_angle_alpha   90.00000000
_cell_angle_beta   89.99470000
_cell_angle_gamma   90.00000000
_symmetry_Int_Tables_number   1
_chemical_formula_structural   H36C57(NO)4
_chemical_formula_sum   'H288 C456 N32 O32'
_cell_volume   115832.85172946
_cell_formula_units_Z   8
loop_
 _symmetry_equiv_pos_site_id
 _symmetry_equiv_pos_as_xyz
  1  'x, y, z'
loop_
 _atom_site_type_symbol
 _atom_site_label
 _atom_site_symmetry_multiplicity
 _atom_site_fract_x
 _atom_site_fract_y
 _atom_site_fract_z
 _atom_site_occupancy
  H  25  1  0.00799900  0.15526400  0.04209600  1
  H  26  1  0.01189700  0.12714900  0.07467700  1
  H  27  1  0.02117200  0.10466700  0.11372700  1
  H  28  1  0.02673000  0.09045000  0.15391400  1
  H  29  1  0.00883600  0.16110800  0.17998100  1
  H  30  1  0.00356800  0.21300200  0.09187700  1
  H  31  1  0.08480900  0.17944200  0.13163900  1
  H  32  1  0.10082400  0.24360800  0.17150400  1
  H  33  1  0.03807100  0.24934500  0.17416900  1
  H  34  1  0.93121200  0.17573700  0.13352200  1
  H  35  1  0.97299100  0.24789600  0.17487400  1
  H  36  1  0.91064900  0.23918600  0.17363200  1
  H  70  1  0.00801600  0.84809900  0.85382600  1
  H  71  1  0.01187500  0.87618100  0.82121500  1
  H  72  1  0.02117800  0.89862200  0.78212300  1
  H  73  1  0.02681500  0.91277500  0.74192100  1
  H  74  1  0.00893400  0.84208500  0.71594600  1
  H  75  1  0.00363700  0.79030700  0.80410500  1
  H  76  1  0.08486400  0.82386100  0.76431900  1
  H  77  1  0.10095500  0.75958100  0.72463900  1
  H  78  1  0.03821000  0.75382100  0.72196600  1
  H  79  1  0.93123100  0.82746200  0.76241900  1
  H  80  1  0.97316700  0.75530800  0.72112800  1
  H  81  1  0.91081500  0.76395800  0.72236000  1
  H  115  1  0.00841500  0.90735100  0.10115600  1
  H  116  1  0.01231500  0.87468300  0.07314200  1
  H  117  1  0.02156900  0.83556300  0.05078300  1
  H  118  1  0.02710800  0.79533200  0.03668700  1
  H  119  1  0.00912500  0.76947900  0.10741500  1
  H  120  1  0.00391000  0.85774800  0.15904500  1
  H  121  1  0.08519600  0.81782700  0.12554200  1
  H  122  1  0.10126500  0.77841300  0.18998200  1
  H  123  1  0.03852000  0.77580500  0.19577600  1
  H  124  1  0.93155300  0.81584700  0.12192400  1
  H  125  1  0.97349700  0.77500700  0.19432900  1
  H  126  1  0.91115800  0.77610000  0.18562700  1
  H  160  1  0.00798100  0.09576000  0.79429500  1
  H  161  1  0.01181000  0.12834800  0.82240300  1
  H  162  1  0.02119400  0.16739300  0.84486900  1
  H  163  1  0.02693300  0.20757600  0.85906900  1
  H  164  1  0.00914700  0.23364500  0.78840100  1
  H  165  1  0.00374200  0.14552500  0.73653600  1
  H  166  1  0.08495700  0.18527200  0.77016000  1
  H  167  1  0.10112600  0.22495200  0.70589200  1
  H  168  1  0.03839300  0.22765400  0.70011500  1
  H  169  1  0.93130300  0.18723200  0.77369300  1
  H  170  1  0.97336400  0.22848200  0.70154700  1
  H  171  1  0.91100100  0.22728000  0.71016700  1
  H  205  1  0.51130200  0.65527400  0.54356100  1
  H  206  1  0.51390500  0.62698200  0.57607100  1
  H  207  1  0.52153700  0.60479900  0.61520700  1
  H  208  1  0.52464800  0.59045400  0.65548700  1
  H  209  1  0.49150100  0.65873500  0.68096900  1
  H  210  1  0.49299500  0.71188700  0.59318500  1
  H  211  1  0.57042300  0.68157600  0.63917400  1
  H  212  1  0.57238900  0.74394300  0.68309200  1
  H  213  1  0.50877400  0.74707200  0.68029100  1
  H  214  1  0.42060600  0.67245500  0.62450400  1
  H  215  1  0.44404000  0.74554000  0.66989300  1
  H  216  1  0.38501800  0.73730500  0.65681500  1
  H  250  1  0.51095000  0.34794600  0.35267800  1
  H  251  1  0.51342000  0.37621500  0.32014100  1
  H  252  1  0.52094300  0.39839800  0.28096400  1
  H  253  1  0.52410500  0.41268100  0.24066200  1
  H  254  1  0.49160700  0.34422100  0.21525100  1
  H  255  1  0.49320800  0.29122500  0.30308800  1
  H  256  1  0.57053200  0.32168600  0.25709500  1
  H  257  1  0.57294800  0.25912400  0.21346900  1
  H  258  1  0.50934900  0.25580400  0.21628300  1
  H  259  1  0.42063200  0.33059400  0.27146000  1
  H  260  1  0.44449800  0.25734000  0.22643300  1
  H  261  1  0.38536200  0.26560400  0.23926200  1
  H  295  1  0.51146200  0.40595200  0.60147400  1
  H  296  1  0.51403000  0.37337700  0.57325500  1
  H  297  1  0.52163800  0.33416700  0.55118300  1
  H  298  1  0.52468000  0.29384400  0.53694300  1
  H  299  1  0.49122100  0.26858200  0.60524100  1
  H  300  1  0.49288100  0.35647900  0.65817600  1
  H  301  1  0.57024400  0.31038300  0.62808400  1
  H  302  1  0.57196800  0.26663400  0.69057300  1
  H  303  1  0.50834500  0.26949300  0.69361600  1
  H  304  1  0.42049400  0.32516100  0.61872900  1
  H  305  1  0.44361700  0.27995200  0.69197600  1
  H  306  1  0.38467200  0.29312100  0.68366100  1
  H  340  1  0.51133400  0.59700300  0.29398900  1
  H  341  1  0.51397100  0.62947800  0.32232100  1
  H  342  1  0.52139300  0.66859000  0.34459400  1
  H  343  1  0.52431000  0.70885100  0.35901700  1
  H  344  1  0.49122400  0.73438900  0.29073700  1
  H  345  1  0.49285700  0.64669000  0.23746000  1
  H  346  1  0.57026300  0.69274500  0.26750100  1
  H  347  1  0.57150700  0.73687700  0.20527500  1
  H  348  1  0.50787900  0.73399000  0.20241600  1
  H  349  1  0.42056800  0.67784600  0.27722800  1
  H  350  1  0.44321400  0.72339200  0.20412300  1
  H  351  1  0.38433600  0.71017100  0.21255200  1
  H  367  1  0.96599800  0.07554600  0.18007800  1
  H  374  1  0.05803300  0.98560400  0.17353500  1
  H  375  1  0.04873900  0.94608500  0.15928400  1
  H  376  1  0.93930800  0.95980400  0.15175400  1
  H  377  1  0.06445700  0.05784300  0.21121800  1
  H  380  1  0.92828500  0.00485200  0.18604800  1
  H  381  1  0.91667500  0.00039900  0.15553500  1
  H  382  1  0.92682700  0.04376900  0.16569300  1
  H  383  1  0.95515600  0.03337500  0.14248700  1
  H  384  1  0.05809500  0.01738200  0.19868000  1
  H  386  1  0.97123500  0.92695000  0.13039400  1
  H  388  1  0.02423200  0.09252800  0.22324600  1
  H  395  1  0.96618200  0.92760700  0.71560800  1
  H  402  1  0.05792100  0.01768000  0.72200300  1
  H  403  1  0.04849400  0.05720100  0.73619600  1
  H  404  1  0.93905800  0.04339200  0.74354500  1
  H  405  1  0.06472000  0.94533200  0.68457600  1
  H  408  1  0.92830900  0.99823800  0.70926800  1
  H  409  1  0.91650200  0.00279000  0.73973300  1
  H  410  1  0.92683800  0.95939700  0.72976500  1
  H  411  1  0.95501500  0.96991000  0.75299900  1
  H  412  1  0.05817400  0.98583100  0.69693700  1
  H  414  1  0.97086000  0.07626900  0.76495600  1
  H  416  1  0.02474700  0.91057000  0.67260500  1
  H  423  1  0.96629400  0.76915300  0.02198600  1
  H  430  1  0.05793100  0.77555400  0.93186200  1
  H  431  1  0.04851900  0.78985200  0.89237700  1
  H  432  1  0.93914300  0.79742700  0.90627800  1
  H  433  1  0.06464400  0.73794300  0.00410800  1
  H  436  1  0.92826300  0.76309300  0.95134000  1
  H  437  1  0.91663500  0.79360500  0.94690000  1
  H  438  1  0.92695300  0.78345000  0.99025400  1
  H  439  1  0.95523600  0.80665700  0.97980900  1
  H  440  1  0.05808600  0.75040700  0.96364000  1
  H  442  1  0.97095600  0.81879900  0.87339600  1
  H  444  1  0.02478000  0.72604700  0.03896100  1
  H  451  1  0.96636300  0.23392800  0.87393400  1
  H  458  1  0.05800600  0.22743800  0.96404600  1
  H  459  1  0.04849900  0.21327800  0.00357000  1
  H  460  1  0.93906600  0.20602800  0.98970900  1
  H  461  1  0.06495500  0.26485200  0.89169200  1
  H  464  1  0.92843900  0.24029500  0.94453900  1
  H  465  1  0.91657100  0.20984300  0.94909200  1
  H  466  1  0.92697400  0.21978900  0.90570100  1
  H  467  1  0.95509400  0.19653400  0.91623400  1
  H  468  1  0.05835500  0.25248600  0.93218600  1
  H  470  1  0.97081700  0.18458600  0.02260700  1
  H  472  1  0.02502000  0.27689000  0.85694000  1
  H  479  1  0.46105500  0.57421200  0.67886600  1
  H  486  1  0.55342400  0.48411700  0.67555200  1
  H  487  1  0.54503000  0.44461000  0.66084100  1
  H  488  1  0.43651200  0.45874300  0.64927100  1
  H  489  1  0.55696400  0.55649300  0.71345100  1
  H  492  1  0.42312800  0.50369300  0.68346600  1
  H  493  1  0.41363700  0.49923000  0.65262400  1
  H  494  1  0.42321400  0.54257200  0.66294800  1
  H  495  1  0.45330800  0.53209300  0.64082100  1
  H  496  1  0.55173800  0.51608700  0.70051200  1
  H  498  1  0.47017300  0.42616800  0.62867200  1
  H  500  1  0.51773800  0.59139900  0.72394200  1
  H  507  1  0.46080700  0.42887200  0.21695800  1
  H  514  1  0.55327000  0.51891500  0.22020500  1
  H  515  1  0.54484100  0.55846000  0.23479400  1
  H  516  1  0.43619200  0.54446400  0.24598600  1
  H  517  1  0.55705000  0.44635200  0.18266300  1
  H  520  1  0.42305900  0.49938800  0.21180600  1
  H  521  1  0.41321900  0.50402000  0.24257400  1
  H  522  1  0.42285400  0.46062100  0.23253900  1
  H  523  1  0.45274100  0.47119900  0.25474500  1
  H  524  1  0.55177000  0.48682600  0.19537600  1
  H  526  1  0.46985900  0.57698300  0.26672000  1
  H  528  1  0.51772500  0.41148600  0.17214600  1
  H  535  1  0.46106000  0.27033000  0.52081500  1
  H  542  1  0.55338900  0.27370700  0.43072500  1
  H  543  1  0.54499000  0.28847400  0.39124300  1
  H  544  1  0.43640800  0.29983900  0.40534000  1
  H  545  1  0.55707400  0.23585800  0.50311100  1
  H  548  1  0.42313900  0.26554300  0.45027300  1
  H  549  1  0.41348200  0.29636300  0.44580000  1
  H  550  1  0.42309600  0.28607100  0.48914300  1
  H  551  1  0.45308700  0.30826400  0.47866500  1
  H  552  1  0.55176200  0.24871500  0.46268400  1
  H  554  1  0.46997400  0.32053400  0.37281700  1
  H  556  1  0.51809000  0.22543500  0.53812200  1
  H  563  1  0.46077800  0.73232600  0.37538000  1
  H  570  1  0.55329300  0.72908900  0.46540100  1
  H  571  1  0.54489400  0.71450000  0.50495200  1
  H  572  1  0.43627200  0.70320800  0.49095800  1
  H  573  1  0.55687900  0.76677700  0.39289000  1
  H  576  1  0.42304800  0.73734100  0.44587800  1
  H  577  1  0.41331200  0.70655600  0.45050400  1
  H  578  1  0.42292300  0.71660300  0.40710500  1
  H  579  1  0.45289500  0.69445200  0.41768700  1
  H  580  1  0.55169500  0.75396600  0.43333900  1
  H  582  1  0.46992000  0.68255000  0.52350600  1
  H  584  1  0.51744200  0.77732400  0.35809400  1
  H  591  1  0.65745300  0.24976800  0.23181000  1
  H  598  1  0.76734600  0.25402000  0.15142600  1
  H  599  1  0.82220200  0.23479200  0.14387600  1
  H  600  1  0.81520100  0.19828700  0.20995100  1
  H  601  1  0.67906800  0.30223300  0.17938500  1
  H  604  1  0.76504400  0.22875400  0.23919500  1
  H  605  1  0.75835200  0.19810400  0.23176700  1
  H  606  1  0.70175200  0.21971300  0.24209300  1
  H  607  1  0.70120600  0.20624800  0.21324300  1
  H  608  1  0.73186800  0.28166800  0.16823100  1
  H  610  1  0.87141000  0.20600500  0.18935500  1
  H  612  1  0.61707300  0.29123600  0.19669700  1
  H  619  1  0.65733600  0.75346400  0.66436400  1
  H  626  1  0.76745000  0.74915400  0.74459100  1
  H  627  1  0.82233700  0.76835700  0.75208700  1
  H  628  1  0.81525700  0.80485300  0.68600900  1
  H  629  1  0.67893000  0.70106700  0.71685500  1
  H  632  1  0.76502300  0.77442000  0.65682500  1
  H  633  1  0.75833100  0.80506900  0.66425900  1
  H  634  1  0.70173600  0.78344300  0.65396300  1
  H  635  1  0.70120600  0.79692800  0.68280400  1
  H  636  1  0.73185400  0.72155200  0.72787400  1
  H  638  1  0.87153200  0.79704900  0.70660000  1
  H  640  1  0.61688200  0.71227900  0.69968500  1
  H  647  1  0.65756000  0.71772600  0.19566000  1
  H  654  1  0.76747900  0.79807100  0.20010500  1
  H  655  1  0.82244700  0.80559500  0.18101400  1
  H  656  1  0.81596800  0.73928200  0.14490400  1
  H  657  1  0.67831500  0.77062200  0.24780300  1
  H  660  1  0.76563600  0.71016400  0.17549200  1
  H  661  1  0.75932700  0.71729300  0.14473400  1
  H  662  1  0.70249000  0.70708700  0.16611500  1
  H  663  1  0.70200800  0.73580200  0.15236200  1
  H  664  1  0.73154500  0.78150400  0.22760700  1
  H  666  1  0.87202800  0.76007500  0.15254300  1
  H  668  1  0.61650600  0.75334400  0.23649100  1
  H  675  1  0.65726400  0.28531300  0.70006600  1
  H  682  1  0.76744200  0.20513400  0.69546300  1
  H  683  1  0.82238800  0.19762100  0.71457800  1
  H  684  1  0.81546400  0.26370200  0.75108500  1
  H  685  1  0.67857800  0.23279900  0.64763500  1
  H  688  1  0.76510000  0.29289400  0.72070700  1
  H  689  1  0.75858400  0.28548400  0.75138200  1
  H  690  1  0.70186400  0.29575800  0.72989600  1
  H  691  1  0.70141300  0.26692600  0.74340300  1
  H  692  1  0.73166200  0.22182700  0.66795800  1
  H  694  1  0.87169500  0.24307100  0.74322100  1
  H  696  1  0.61658100  0.24995300  0.65898200  1
  H  703  1  0.33344200  0.73531100  0.24634500  1
  H  710  1  0.24164300  0.74141500  0.15503100  1
  H  711  1  0.19087500  0.76426200  0.14558500  1
  H  712  1  0.20690200  0.80696800  0.20711400  1
  H  713  1  0.29451400  0.68208600  0.19966400  1
  H  716  1  0.24815400  0.77787700  0.23980500  1
  H  717  1  0.26651000  0.80448900  0.22740900  1
  H  718  1  0.31286300  0.77611100  0.24374900  1
  H  719  1  0.31903000  0.78396700  0.21323800  1
  H  720  1  0.26279100  0.71125100  0.17758300  1
  H  722  1  0.15058100  0.80477000  0.18841500  1
  H  724  1  0.30969500  0.67703600  0.24411600  1
  H  731  1  0.33371400  0.26784700  0.64986900  1
  H  738  1  0.24157800  0.26165100  0.74102900  1
  H  739  1  0.19067600  0.23888400  0.75031500  1
  H  740  1  0.20683400  0.19626600  0.68874000  1
  H  741  1  0.29467100  0.32100200  0.69659400  1
  H  744  1  0.24837200  0.22535700  0.65620000  1
  H  745  1  0.26659000  0.19869100  0.66857200  1
  H  746  1  0.31310300  0.22704200  0.65238500  1
  H  747  1  0.31911000  0.21910700  0.68288800  1
  H  748  1  0.26286400  0.29182800  0.71857300  1
  H  750  1  0.15039800  0.19853400  0.70736500  1
  H  752  1  0.30992200  0.32619900  0.65230600  1
  H  759  1  0.33394800  0.29932600  0.21409800  1
  H  766  1  0.24208800  0.20805000  0.20756900  1
  H  767  1  0.19090200  0.19895900  0.18500800  1
  H  768  1  0.20651500  0.26092200  0.14286300  1
  H  769  1  0.29564300  0.25210300  0.26705300  1
  H  772  1  0.24835200  0.29321600  0.17194600  1
  H  773  1  0.26631100  0.28104100  0.14510700  1
  H  774  1  0.31309500  0.29704500  0.17335700  1
  H  775  1  0.31905100  0.26660500  0.16516700  1
  H  776  1  0.26374500  0.23023800  0.23782700  1
  H  778  1  0.15017000  0.24228300  0.14522100  1
  H  780  1  0.31037500  0.29655500  0.27239400  1
  H  787  1  0.33382300  0.70358200  0.68211300  1
  H  794  1  0.24184900  0.79482200  0.68825700  1
  H  795  1  0.19077900  0.80405400  0.71087600  1
  H  796  1  0.20664200  0.74239300  0.75341800  1
  H  797  1  0.29515000  0.75042900  0.62895100  1
  H  800  1  0.24836800  0.70991400  0.72441900  1
  H  801  1  0.26644400  0.72225200  0.75114600  1
  H  802  1  0.31310300  0.70609500  0.72289100  1
  H  803  1  0.31909100  0.73658400  0.73089000  1
  H  804  1  0.26331400  0.77242400  0.65809500  1
  H  806  1  0.15023000  0.76100900  0.75099500  1
  H  808  1  0.31001000  0.70599600  0.62387000  1
  C  1  1  0.97663200  0.19623700  0.14293200  1
  C  2  1  0.98820400  0.21697400  0.15492100  1
  C  3  1  0.02499200  0.21805000  0.15415500  1
  C  4  1  0.03800200  0.19788100  0.14192100  1
  C  5  1  0.07531700  0.19443700  0.14016900  1
  C  6  1  0.09926600  0.21149000  0.15038400  1
  C  7  1  0.08472200  0.23159500  0.16276200  1
  C  8  1  0.04783400  0.23504900  0.16465600  1
  C  9  1  0.96429000  0.23281400  0.16614400  1
  C  10  1  0.92784500  0.22739500  0.16552500  1
  C  11  1  0.91505600  0.20639900  0.15382900  1
  C  12  1  0.93973400  0.19103600  0.14198600  1
  C  13  1  0.00729400  0.17831100  0.10713300  1
  C  14  1  0.00991100  0.15368700  0.10205500  1
  C  15  1  0.01230800  0.14101300  0.12352900  1
  C  16  1  0.00994200  0.15730100  0.14259100  1
  C  17  1  0.01781700  0.11636900  0.12774200  1
  C  18  1  0.02040900  0.10809000  0.15163200  1
  C  19  1  0.01585700  0.12373200  0.17164100  1
  C  20  1  0.01106500  0.14870600  0.16647300  1
  C  21  1  0.00512100  0.19503600  0.08799600  1
  C  22  1  0.00446000  0.18689600  0.06373200  1
  C  23  1  0.00698200  0.16177300  0.05930800  1
  C  24  1  0.00977800  0.14513100  0.07827500  1
  C  37  1  0.00780900  0.18248700  0.13358400  1
  C  38  1  0.01804200  0.11574200  0.19626300  1
  C  39  1  0.00396000  0.20327800  0.04394400  1
  C  40  1  0.13701800  0.20802800  0.15068200  1
  C  41  1  0.87776600  0.20202100  0.15388300  1
  C  46  1  0.97669100  0.80697900  0.75305800  1
  C  47  1  0.98830600  0.78623300  0.74109700  1
  C  48  1  0.02509400  0.78521400  0.74182200  1
  C  49  1  0.03807300  0.80539300  0.75405000  1
  C  50  1  0.07538500  0.80885300  0.75580800  1
  C  51  1  0.09934900  0.79178000  0.74563700  1
  C  52  1  0.08483600  0.77163200  0.73331700  1
  C  53  1  0.04795500  0.76817900  0.73139300  1
  C  54  1  0.96443200  0.77037900  0.72986000  1
  C  55  1  0.92797800  0.77577200  0.73046000  1
  C  56  1  0.91514100  0.79677000  0.74213100  1
  C  57  1  0.93978500  0.81216500  0.75396300  1
  C  58  1  0.00733100  0.82498300  0.78881500  1
  C  59  1  0.00991500  0.84961500  0.79386500  1
  C  60  1  0.01229300  0.86226500  0.77237400  1
  C  61  1  0.00994600  0.84595000  0.75333100  1
  C  62  1  0.01778300  0.88690500  0.76812500  1
  C  63  1  0.02043000  0.89514800  0.74422500  1
  C  64  1  0.01595200  0.87947100  0.72423600  1
  C  65  1  0.01110500  0.85450800  0.72943900  1
  C  66  1  0.00517600  0.80827900  0.80797000  1
  C  67  1  0.00451000  0.81644100  0.83222600  1
  C  68  1  0.00701400  0.84157000  0.83662200  1
  C  69  1  0.00978900  0.85819300  0.81763700  1
  C  82  1  0.00785000  0.82077400  0.76237000  1
  C  83  1  0.01825800  0.88741600  0.69960400  1
  C  84  1  0.00401000  0.80006800  0.85202500  1
  C  85  1  0.13710000  0.79523600  0.74534300  1
  C  86  1  0.87783800  0.80108000  0.74207800  1
  C  91  1  0.97701900  0.80664800  0.14247500  1
  C  92  1  0.98862800  0.79481900  0.16329600  1
  C  93  1  0.02541400  0.79558500  0.16433600  1
  C  94  1  0.03839800  0.80768600  0.14407900  1
  C  95  1  0.07571200  0.80940400  0.14059900  1
  C  96  1  0.09967000  0.79928100  0.15770200  1
  C  97  1  0.08515200  0.78706100  0.17790900  1
  C  98  1  0.04827000  0.78518900  0.18139200  1
  C  99  1  0.96476200  0.78363600  0.17919600  1
  C  100  1  0.92831400  0.78417000  0.17378700  1
  C  101  1  0.91547600  0.79571000  0.15271900  1
  C  102  1  0.94011300  0.80750100  0.13727900  1
  C  103  1  0.00766700  0.84238400  0.12440300  1
  C  104  1  0.01030000  0.84738600  0.09976500  1
  C  105  1  0.01269400  0.82587400  0.08716000  1
  C  106  1  0.01032800  0.80686000  0.10350700  1
  C  107  1  0.01822700  0.82158400  0.06253100  1
  C  108  1  0.02078400  0.79767000  0.05432100  1
  C  109  1  0.01618400  0.77771100  0.07001900  1
  C  110  1  0.01139200  0.78295300  0.09497900  1
  C  111  1  0.00547600  0.86157400  0.14106700  1
  C  112  1  0.00484700  0.88581400  0.13285300  1
  C  113  1  0.00739600  0.89016100  0.10771900  1
  C  114  1  0.01019500  0.87114200  0.09113600  1
  C  127  1  0.00817900  0.81594600  0.12866600  1
  C  128  1  0.01835100  0.75306600  0.06209900  1
  C  129  1  0.00431200  0.90564500  0.14918200  1
  C  130  1  0.13741500  0.79895000  0.15423100  1
  C  131  1  0.87818400  0.79553900  0.14835100  1
  C  136  1  0.97680600  0.19659900  0.75325300  1
  C  137  1  0.98845000  0.20854700  0.73250800  1
  C  138  1  0.02523600  0.20778400  0.73148800  1
  C  139  1  0.03818500  0.19554200  0.75167000  1
  C  140  1  0.07549400  0.19377300  0.75514200  1
  C  141  1  0.09947700  0.20393800  0.73807800  1
  C  142  1  0.08499400  0.21623900  0.71790900  1
  C  143  1  0.04811700  0.21817600  0.71444400  1
  C  144  1  0.96460500  0.21977300  0.71662700  1
  C  145  1  0.92814300  0.21917900  0.72199300  1
  C  146  1  0.91527100  0.20751700  0.74298800  1
  C  147  1  0.93988600  0.19567700  0.75839800  1
  C  148  1  0.00736700  0.16079100  0.77122700  1
  C  149  1  0.00990700  0.15571900  0.79585600  1
  C  150  1  0.01228000  0.17719500  0.80852900  1
  C  151  1  0.01003800  0.19625500  0.79222800  1
  C  152  1  0.01787000  0.18140900  0.83316500  1
  C  153  1  0.02057700  0.20529700  0.84143300  1
  C  154  1  0.01611900  0.22530700  0.82578200  1
  C  155  1  0.01127100  0.22013800  0.80081200  1
  C  156  1  0.00521400  0.14164900  0.75450700  1
  C  157  1  0.00452200  0.11738700  0.76265300  1
  C  158  1  0.00695500  0.11297000  0.78778000  1
  C  159  1  0.00973900  0.13194100  0.80441800  1
  C  172  1  0.00793800  0.18724100  0.76704200  1
  C  173  1  0.01847500  0.24992600  0.83375500  1
  C  174  1  0.00404200  0.09759300  0.74627700  1
  C  175  1  0.13722100  0.20425500  0.74155900  1
  C  176  1  0.87796000  0.20759100  0.74727900  1
  C  181  1  0.45987500  0.69317000  0.64132300  1
  C  182  1  0.46643600  0.71405400  0.65459900  1
  C  183  1  0.50280700  0.71619100  0.65819500  1
  C  184  1  0.52019900  0.69732800  0.64629000  1
  C  185  1  0.55774000  0.69552300  0.64760900  1
  C  186  1  0.57728000  0.71230100  0.66162600  1
  C  187  1  0.55884000  0.73124400  0.67336800  1
  C  188  1  0.52167800  0.73340800  0.67159700  1
  C  189  1  0.43879000  0.72982000  0.66101300  1
  C  190  1  0.40387400  0.72456700  0.65349900  1
  C  191  1  0.39573800  0.70335000  0.64033100  1
  C  192  1  0.42459100  0.68760700  0.63459100  1
  C  193  1  0.49885300  0.67730500  0.60847400  1
  C  194  1  0.50488200  0.65295300  0.60336400  1
  C  195  1  0.50507400  0.64000400  0.62471900  1
  C  196  1  0.49717500  0.65564800  0.64365400  1
  C  197  1  0.51398700  0.61582900  0.62902100  1
  C  198  1  0.51512700  0.60741000  0.65290200  1
  C  199  1  0.50581400  0.62234800  0.67268200  1
  C  200  1  0.49687100  0.64677800  0.66746000  1
  C  201  1  0.49758300  0.69414400  0.58937400  1
  C  202  1  0.50120300  0.68628800  0.56512800  1
  C  203  1  0.50739900  0.66147000  0.56070700  1
  C  204  1  0.50944500  0.64477300  0.57965200  1
  C  217  1  0.49383200  0.68087800  0.63485300  1
  C  218  1  0.50852100  0.61445000  0.69727000  1
  C  219  1  0.50041700  0.70264100  0.54534000  1
  C  220  1  0.61490000  0.71131600  0.66354000  1
  C  221  1  0.36093600  0.69885500  0.63059100  1
  C  226  1  0.46006900  0.30978300  0.25493700  1
  C  227  1  0.46676600  0.28884900  0.24177100  1
  C  228  1  0.50315800  0.28676800  0.23823500  1
  C  229  1  0.52041800  0.30575400  0.25002600  1
  C  230  1  0.55795300  0.30762800  0.24877400  1
  C  231  1  0.57760500  0.29085900  0.23481600  1
  C  232  1  0.55930900  0.27180200  0.22316200  1
  C  233  1  0.52215500  0.26954000  0.22492500  1
  C  234  1  0.43917100  0.27308800  0.23524400  1
  C  235  1  0.40420600  0.27832600  0.24266600  1
  C  236  1  0.39593500  0.29959000  0.25572000  1
  C  237  1  0.42472100  0.31538200  0.26147900  1
  C  238  1  0.49886100  0.32580900  0.28777600  1
  C  239  1  0.50468700  0.35018500  0.29286100  1
  C  240  1  0.50487100  0.36310400  0.27148300  1
  C  241  1  0.49724400  0.34739000  0.25256000  1
  C  242  1  0.51358500  0.38730600  0.26715300  1
  C  243  1  0.51479400  0.39567500  0.24325400  1
  C  244  1  0.50567000  0.38067000  0.22348200  1
  C  245  1  0.49690900  0.35621600  0.22873800  1
  C  246  1  0.49768700  0.30898200  0.30689000  1
  C  247  1  0.50116300  0.31687200  0.33113200  1
  C  248  1  0.50713600  0.34171900  0.33553500  1
  C  249  1  0.50910700  0.35840500  0.31657500  1
  C  262  1  0.49394600  0.32217200  0.26140100  1
  C  263  1  0.50842200  0.38851200  0.19887300  1
  C  264  1  0.50048400  0.30051200  0.35092000  1
  C  265  1  0.61520600  0.29202800  0.23283800  1
  C  266  1  0.36108300  0.30409800  0.26537500  1
  C  271  1  0.45966400  0.30838800  0.63956400  1
  C  272  1  0.46613800  0.29512800  0.66047100  1
  C  273  1  0.50249200  0.29148400  0.66265100  1
  C  274  1  0.51995700  0.30329500  0.64376000  1
  C  275  1  0.55750500  0.30198300  0.64203000  1
  C  276  1  0.57697900  0.28801000  0.65888000  1
  C  277  1  0.55846700  0.27632600  0.67782700  1
  C  278  1  0.52129700  0.27811900  0.67993200  1
  C  279  1  0.43843500  0.28879500  0.67622500  1
  C  280  1  0.40355900  0.29636100  0.67092500  1
  C  281  1  0.39551100  0.30946800  0.64965700  1
  C  282  1  0.42440400  0.31509700  0.63390500  1
  C  283  1  0.49879200  0.34110700  0.62363700  1
  C  284  1  0.50488200  0.34615300  0.59928000  1
  C  285  1  0.50502300  0.32476600  0.58638100  1
  C  286  1  0.49702300  0.30588200  0.60206300  1
  C  287  1  0.51397100  0.32039200  0.56222400  1
  C  288  1  0.51510900  0.29648300  0.55387800  1
  C  289  1  0.50571300  0.27675500  0.56886000  1
  C  290  1  0.49668200  0.28205100  0.59325900  1
  C  291  1  0.49756900  0.36024500  0.64043700  1
  C  292  1  0.50124800  0.38446800  0.63252800  1
  C  293  1  0.50750800  0.38882700  0.60770600  1
  C  294  1  0.50954600  0.36984200  0.59105300  1
  C  307  1  0.49366400  0.31474800  0.62726800  1
  C  308  1  0.50839300  0.25213900  0.56105400  1
  C  309  1  0.50048400  0.40428500  0.64884700  1
  C  310  1  0.61460400  0.28609100  0.65796200  1
  C  311  1  0.36076300  0.31925200  0.64508300  1
  C  316  1  0.45960600  0.69471600  0.25635400  1
  C  317  1  0.46593500  0.70809000  0.23550000  1
  C  318  1  0.50227400  0.71175500  0.23322900  1
  C  319  1  0.51987400  0.69983100  0.25199000  1
  C  320  1  0.55743100  0.70119000  0.25362500  1
  C  321  1  0.57677900  0.71529300  0.23680900  1
  C  322  1  0.55811500  0.72708600  0.21799900  1
  C  323  1  0.52093700  0.72526800  0.21599300  1
  C  324  1  0.43812900  0.71450000  0.21986300  1
  C  325  1  0.40330900  0.70684800  0.22520300  1
  C  326  1  0.39537300  0.69367400  0.24645300  1
  C  327  1  0.42438600  0.68795300  0.26206800  1
  C  328  1  0.49880800  0.66194000  0.27205300  1
  C  329  1  0.50488700  0.65680200  0.29639100  1
  C  330  1  0.50505800  0.67813800  0.30937400  1
  C  331  1  0.49718000  0.69708900  0.29374900  1
  C  332  1  0.51387500  0.68241400  0.33356800  1
  C  333  1  0.51493300  0.70628600  0.34202200  1
  C  334  1  0.50554200  0.72607400  0.32711900  1
  C  335  1  0.49667400  0.72087500  0.30267100  1
  C  336  1  0.49750300  0.64285800  0.25519000  1
  C  337  1  0.50115800  0.61860500  0.26301400  1
  C  338  1  0.50741300  0.61415500  0.28781800  1
  C  339  1  0.50948200  0.63308100  0.30453800  1
  C  352  1  0.49368500  0.68831500  0.26851900  1
  C  353  1  0.50818500  0.75066100  0.33503800  1
  C  354  1  0.50034800  0.59883700  0.24663700  1
  C  355  1  0.61441700  0.71722800  0.23760700  1
  C  356  1  0.36064900  0.68385900  0.25108000  1
  C  361  1  0.01658400  0.07072800  0.19577000  1
  C  362  1  0.04260300  0.05323800  0.20121000  1
  C  363  1  0.03888200  0.02929900  0.19348900  1
  C  364  1  0.00872900  0.02168900  0.18015000  1
  C  365  1  0.98173900  0.03914500  0.17536300  1
  C  366  1  0.98578300  0.06327300  0.18323900  1
  C  368  1  0.00379000  0.99700200  0.17256600  1
  C  369  1  0.03239000  0.98046300  0.17024700  1
  C  370  1  0.02699000  0.95686800  0.16184200  1
  C  371  1  0.99274600  0.94870200  0.15524200  1
  C  372  1  0.96419700  0.96520500  0.15700200  1
  C  373  1  0.96924800  0.98895100  0.16561300  1
  C  378  1  0.93834900  0.00566400  0.16760500  1
  C  379  1  0.94933000  0.03190200  0.16170600  1
  C  389  1  0.01682600  0.93243500  0.70000100  1
  C  390  1  0.04281700  0.94994100  0.69453400  1
  C  391  1  0.03897500  0.97390900  0.70213900  1
  C  392  1  0.00873600  0.98152900  0.71538700  1
  C  393  1  0.98178700  0.96405100  0.72020200  1
  C  394  1  0.98594800  0.93989500  0.71244500  1
  C  396  1  0.00369900  0.00623700  0.72287800  1
  C  397  1  0.03224700  0.02281900  0.72518400  1
  C  398  1  0.02676600  0.04642200  0.73354600  1
  C  399  1  0.99248800  0.05453400  0.74014300  1
  C  400  1  0.96397600  0.03801500  0.73832800  1
  C  401  1  0.96910700  0.01426400  0.72974800  1
  C  406  1  0.93826600  0.99750900  0.72773900  1
  C  407  1  0.94928400  0.97130500  0.73376200  1
  C  417  1  0.01684100  0.75342600  0.01708000  1
  C  418  1  0.04276400  0.74793900  0.99953500  1
  C  419  1  0.03892900  0.75561700  0.97559100  1
  C  420  1  0.00875300  0.76896000  0.96803000  1
  C  421  1  0.98184600  0.77378100  0.98553700  1
  C  422  1  0.98600900  0.76595400  0.00967100  1
  C  424  1  0.00372800  0.77654100  0.94334900  1
  C  425  1  0.03227300  0.77885600  0.92676600  1
  C  426  1  0.02680200  0.78729000  0.90318900  1
  C  427  1  0.99253900  0.79392000  0.89508500  1
  C  428  1  0.96404500  0.79215600  0.91163100  1
  C  429  1  0.96916500  0.78351900  0.93536300  1
  C  434  1  0.93833000  0.78153500  0.95212800  1
  C  435  1  0.94940700  0.78743800  0.97834700  1
  C  445  1  0.01703700  0.24948200  0.87877800  1
  C  446  1  0.04303000  0.25491100  0.89629100  1
  C  447  1  0.03915400  0.24730300  0.92025600  1
  C  448  1  0.00887800  0.23409000  0.92786700  1
  C  449  1  0.98193400  0.22930300  0.91037800  1
  C  450  1  0.98612900  0.23706400  0.88622500  1
  C  452  1  0.00379700  0.22661200  0.95257300  1
  C  453  1  0.03231900  0.22428600  0.96917100  1
  C  454  1  0.02679000  0.21594400  0.99277800  1
  C  455  1  0.99248800  0.20938800  0.00087600  1
  C  456  1  0.96400000  0.21121800  0.98434100  1
  C  457  1  0.96918100  0.21978200  0.96058900  1
  C  462  1  0.93836200  0.22181400  0.94381800  1
  C  463  1  0.94939900  0.21577600  0.91762100  1
  C  473  1  0.51024200  0.56941500  0.69647500  1
  C  474  1  0.53589300  0.55191100  0.70269500  1
  C  475  1  0.53289300  0.52799700  0.69472700  1
  C  476  1  0.50382700  0.52039000  0.68033300  1
  C  477  1  0.47726800  0.53787000  0.67461100  1
  C  478  1  0.48062400  0.56197600  0.68269200  1
  C  480  1  0.49942900  0.49569400  0.67256500  1
  C  481  1  0.52806300  0.47905900  0.67127800  1
  C  482  1  0.52320700  0.45548700  0.66261000  1
  C  483  1  0.48951900  0.44748100  0.65466100  1
  C  484  1  0.46097000  0.46404800  0.65546000  1
  C  485  1  0.46543700  0.48772800  0.66438000  1
  C  490  1  0.43447100  0.50446800  0.66536600  1
  C  491  1  0.44596400  0.53067100  0.65980500  1
  C  501  1  0.51016700  0.43354900  0.19953900  1
  C  502  1  0.53590300  0.45099900  0.19332900  1
  C  503  1  0.53285600  0.47495900  0.20115100  1
  C  504  1  0.50365900  0.48266400  0.21537600  1
  C  505  1  0.47703000  0.46522600  0.22109400  1
  C  506  1  0.48043800  0.44107400  0.21316200  1
  C  508  1  0.49922600  0.50739900  0.22300200  1
  C  509  1  0.52787200  0.52402600  0.22431300  1
  C  510  1  0.52299400  0.54762800  0.23290000  1
  C  511  1  0.48927100  0.55565200  0.24077600  1
  C  512  1  0.46068200  0.53912400  0.23987800  1
  C  513  1  0.46517300  0.51542500  0.23101900  1
  C  518  1  0.43419200  0.49870200  0.22996600  1
  C  519  1  0.44559100  0.47252400  0.23572000  1
  C  529  1  0.51029800  0.25278000  0.51602500  1
  C  530  1  0.53594900  0.24656200  0.49851800  1
  C  531  1  0.53290100  0.25448300  0.47459400  1
  C  532  1  0.50378200  0.26882500  0.46697500  1
  C  533  1  0.47720600  0.27452600  0.48445500  1
  C  534  1  0.48062400  0.26650300  0.50857600  1
  C  536  1  0.49937000  0.27658600  0.44228000  1
  C  537  1  0.52801800  0.27794300  0.42565900  1
  C  538  1  0.52315600  0.28664500  0.40210200  1
  C  539  1  0.48945000  0.29456100  0.39409300  1
  C  540  1  0.46088400  0.29367700  0.41064600  1
  C  541  1  0.46535400  0.28472300  0.43431300  1
  C  546  1  0.43438400  0.28366900  0.45104400  1
  C  547  1  0.44583800  0.28926500  0.47724600  1
  C  557  1  0.51006100  0.74983700  0.38007200  1
  C  558  1  0.53579100  0.75605300  0.39752100  1
  C  559  1  0.53280300  0.74817300  0.42146600  1
  C  560  1  0.50366700  0.73388300  0.42915600  1
  C  561  1  0.47705400  0.72814400  0.41171800  1
  C  562  1  0.48040800  0.73612800  0.38757900  1
  C  564  1  0.49925800  0.72623800  0.45388800  1
  C  565  1  0.52790600  0.72495600  0.47051500  1
  C  566  1  0.52304500  0.71637100  0.49411900  1
  C  567  1  0.48933800  0.70847000  0.50214700  1
  C  568  1  0.46074800  0.70933400  0.48561700  1
  C  569  1  0.46522400  0.71818500  0.46191400  1
  C  574  1  0.43424200  0.71919700  0.44519000  1
  C  575  1  0.44566800  0.71346200  0.41901100  1
  C  585  1  0.66419300  0.27851900  0.20741600  1
  C  586  1  0.68591200  0.28690100  0.18849500  1
  C  587  1  0.71680800  0.27433400  0.18164500  1
  C  588  1  0.72654500  0.25229000  0.19276600  1
  C  589  1  0.70485500  0.24402300  0.21214700  1
  C  590  1  0.67402300  0.25691500  0.21904500  1
  C  592  1  0.75796900  0.23876700  0.18610300  1
  C  593  1  0.77641700  0.24219600  0.16407500  1
  C  594  1  0.80856200  0.23016400  0.15910800  1
  C  595  1  0.82352300  0.21387900  0.17581600  1
  C  596  1  0.80440900  0.20953700  0.19729600  1
  C  597  1  0.77173300  0.22115700  0.20228100  1
  C  602  1  0.75377600  0.21659400  0.22573200  1
  C  603  1  0.71308900  0.22065500  0.22396500  1
  C  613  1  0.66406200  0.72476000  0.68880000  1
  C  614  1  0.68582100  0.71635500  0.70769000  1
  C  615  1  0.71679000  0.72888100  0.71446400  1
  C  616  1  0.72657200  0.75089200  0.70328900  1
  C  617  1  0.70485800  0.75915300  0.68392200  1
  C  618  1  0.67395400  0.74630500  0.67709100  1
  C  620  1  0.75801100  0.76441100  0.70992500  1
  C  621  1  0.77648300  0.76099400  0.73194500  1
  C  622  1  0.80862600  0.77303600  0.73690100  1
  C  623  1  0.82361300  0.78924700  0.72012800  1
  C  624  1  0.80446800  0.79361200  0.69867400  1
  C  625  1  0.77175700  0.78201900  0.69373500  1
  C  630  1  0.75376500  0.78657900  0.67029700  1
  C  631  1  0.71308400  0.78251400  0.67208700  1
  C  641  1  0.66380400  0.74239500  0.22422100  1
  C  642  1  0.68543500  0.76135100  0.23262900  1
  C  643  1  0.71660300  0.76803300  0.22027600  1
  C  644  1  0.72671800  0.75670800  0.19841300  1
  C  645  1  0.70514600  0.73726600  0.19014800  1
  C  646  1  0.67403600  0.73053300  0.20283100  1
  C  648  1  0.75832600  0.76328600  0.18503800  1
  C  649  1  0.77669100  0.78535700  0.18840300  1
  C  650  1  0.80890300  0.79030500  0.17644500  1
  C  651  1  0.82403200  0.77353600  0.16029200  1
  C  652  1  0.80504800  0.75198600  0.15604400  1
  C  653  1  0.77231100  0.74701200  0.16759600  1
  C  658  1  0.75448700  0.72349800  0.16313600  1
  C  659  1  0.71374500  0.72524200  0.16694400  1
  C  669  1  0.66383300  0.26085700  0.67135900  1
  C  670  1  0.68556300  0.24197800  0.66289500  1
  C  671  1  0.71663000  0.23523300  0.67532500  1
  C  672  1  0.72654000  0.24642500  0.69730000  1
  C  673  1  0.70485500  0.26578600  0.70561800  1
  C  674  1  0.67385500  0.27259100  0.69286200  1
  C  676  1  0.75806200  0.23980200  0.71073800  1
  C  677  1  0.77652300  0.21778000  0.70728400  1
  C  678  1  0.80870300  0.21281500  0.71927400  1
  C  679  1  0.82374900  0.22958000  0.73546600  1
  C  680  1  0.80463300  0.25104300  0.73985700  1
  C  681  1  0.77188500  0.25599100  0.72831700  1
  C  686  1  0.75391400  0.27943000  0.73290800  1
  C  687  1  0.71321200  0.27763300  0.72895000  1
  C  697  1  0.31804700  0.70608600  0.22456000  1
  C  698  1  0.29772900  0.69982500  0.20414900  1
  C  699  1  0.27924700  0.71734100  0.19086400  1
  C  700  1  0.27976600  0.74197000  0.19761300  1
  C  701  1  0.30126900  0.74841600  0.21779400  1
  C  702  1  0.32003700  0.73062500  0.23100800  1
  C  704  1  0.25461500  0.75920500  0.18787200  1
  C  705  1  0.23549900  0.75543000  0.16616700  1
  C  706  1  0.20565900  0.76951500  0.16007500  1
  C  707  1  0.19391000  0.78846700  0.17510000  1
  C  708  1  0.21497200  0.79361600  0.19562600  1
  C  709  1  0.24520300  0.77973800  0.20187300  1
  C  714  1  0.26398500  0.78502200  0.22492000  1
  C  715  1  0.30188000  0.77400300  0.22562800  1
  C  725  1  0.31829700  0.29702700  0.67170100  1
  C  726  1  0.29797400  0.30326800  0.69212200  1
  C  727  1  0.27938300  0.28573800  0.70532400  1
  C  728  1  0.27988100  0.26112500  0.69851200  1
  C  729  1  0.30148800  0.25469500  0.67838100  1
  C  730  1  0.32033300  0.27249700  0.66522900  1
  C  732  1  0.25464600  0.24390300  0.70817900  1
  C  733  1  0.23548800  0.24763700  0.72988200  1
  C  734  1  0.20557700  0.23358200  0.73589800  1
  C  735  1  0.19376400  0.21475000  0.72074500  1
  C  736  1  0.21490800  0.20958600  0.70026300  1
  C  737  1  0.24523600  0.22340900  0.69412400  1
  C  742  1  0.26411300  0.21815600  0.67110200  1
  C  743  1  0.30204500  0.22912500  0.67048900  1
  C  753  1  0.31887300  0.27726100  0.24319000  1
  C  754  1  0.29872300  0.25673800  0.24934300  1
  C  755  1  0.28012100  0.24358800  0.23178500  1
  C  756  1  0.28034200  0.25058700  0.20722300  1
  C  757  1  0.30177300  0.27083600  0.20086700  1
  C  758  1  0.32067400  0.28390900  0.21869800  1
  C  760  1  0.25492300  0.24106000  0.19004700  1
  C  761  1  0.23577000  0.21935000  0.19372400  1
  C  762  1  0.20567000  0.21347600  0.17980200  1
  C  763  1  0.19367900  0.22873300  0.16110800  1
  C  764  1  0.21474900  0.24927500  0.15602800  1
  C  765  1  0.24523600  0.25530500  0.16974300  1
  C  770  1  0.26403400  0.27837300  0.16456500  1
  C  771  1  0.30207700  0.27892100  0.17535700  1
  C  781  1  0.31861200  0.72548200  0.65294000  1
  C  782  1  0.29839500  0.74594600  0.64668900  1
  C  783  1  0.27977700  0.75915100  0.66420200  1
  C  784  1  0.28013100  0.75229800  0.68880400  1
  C  785  1  0.30166400  0.73213300  0.69525100  1
  C  786  1  0.32053800  0.71897800  0.67746400  1
  C  788  1  0.25479600  0.76193800  0.70597600  1
  C  789  1  0.23566100  0.78364500  0.70222700  1
  C  790  1  0.20564500  0.78962700  0.71619700  1
  C  791  1  0.19369400  0.77443100  0.73495600  1
  C  792  1  0.21480800  0.75394300  0.74014800  1
  C  793  1  0.24523800  0.74783900  0.72641100  1
  C  798  1  0.26407700  0.72480500  0.73168000  1
  C  799  1  0.30207100  0.72420000  0.72080700  1
  N  385  1  0.98781300  0.92692000  0.14391900  1
  N  387  1  0.01964900  0.09309800  0.20592800  1
  N  413  1  0.98749600  0.07631500  0.75146300  1
  N  415  1  0.02002500  0.91004100  0.68990700  1
  N  441  1  0.98754600  0.80528100  0.87332400  1
  N  443  1  0.02006200  0.74334900  0.03948000  1
  N  469  1  0.98745600  0.19807900  0.02265700  1
  N  471  1  0.02026400  0.25959300  0.85639300  1
  N  497  1  0.48534500  0.42584600  0.64293600  1
  N  499  1  0.51259700  0.59185100  0.70669600  1
  N  525  1  0.48508900  0.57729600  0.25248300  1
  N  527  1  0.51253500  0.41108500  0.18938800  1
  N  553  1  0.48525400  0.30632300  0.37248200  1
  N  555  1  0.51276700  0.24265700  0.53850200  1
  N  581  1  0.48516600  0.69677900  0.52380000  1
  N  583  1  0.51233800  0.76007100  0.35763900  1
  N  609  1  0.85820200  0.20603900  0.17419000  1
  N  611  1  0.63142900  0.28870500  0.21114100  1
  N  637  1  0.85830000  0.79706900  0.72175500  1
  N  639  1  0.63122400  0.71463200  0.68520700  1
  N  665  1  0.85873500  0.77520500  0.15249900  1
  N  667  1  0.63079300  0.73884500  0.23410300  1
  N  693  1  0.85844700  0.22792200  0.74325800  1
  N  695  1  0.63092300  0.26443100  0.66134100  1
  N  721  1  0.16051800  0.79890700  0.17326300  1
  N  723  1  0.32889700  0.68811100  0.23979400  1
  N  749  1  0.16033500  0.20435600  0.72252900  1
  N  751  1  0.32909400  0.31505600  0.65650000  1
  N  777  1  0.16011900  0.22706400  0.15088700  1
  N  779  1  0.32960000  0.29242400  0.26126700  1
  N  805  1  0.16019000  0.77619500  0.74525000  1
  N  807  1  0.32927800  0.71022900  0.63492200  1
  O  42  1  0.02165500  0.22437400  0.04645800  1
  O  43  1  0.02106500  0.13329400  0.21313400  1
  O  44  1  0.14931300  0.18523400  0.15287700  1
  O  45  1  0.86179600  0.19830700  0.13236500  1
  O  87  1  0.02163800  0.77894800  0.84949600  1
  O  88  1  0.02151700  0.86983000  0.68278600  1
  O  89  1  0.14942900  0.81801800  0.74309000  1
  O  90  1  0.86179600  0.80503600  0.76353000  1
  O  132  1  0.02192700  0.90317700  0.17031300  1
  O  133  1  0.02171600  0.73627600  0.07969900  1
  O  134  1  0.14970800  0.79648200  0.13146300  1
  O  135  1  0.86209700  0.81699700  0.14451600  1
  O  177  1  0.02172400  0.10010800  0.72517500  1
  O  178  1  0.02176300  0.26676200  0.81619000  1
  O  179  1  0.14950400  0.20660300  0.76434200  1
  O  180  1  0.86189400  0.18615000  0.75124400  1
  O  222  1  0.51612600  0.72438900  0.54823800  1
  O  223  1  0.51058500  0.63210900  0.71409100  1
  O  224  1  0.63384300  0.71195100  0.64281700  1
  O  225  1  0.35929800  0.68289200  0.61213300  1
  O  267  1  0.51621700  0.27877600  0.34798200  1
  O  268  1  0.51052900  0.37081700  0.18209200  1
  O  269  1  0.63407200  0.29093700  0.25357200  1
  O  270  1  0.35947600  0.31985000  0.28401300  1
  O  312  1  0.51605200  0.40137800  0.67063900  1
  O  313  1  0.51087300  0.23542200  0.57878900  1
  O  314  1  0.63354700  0.30681300  0.65854200  1
  O  315  1  0.35929800  0.33783000  0.62925500  1
  O  357  1  0.51603600  0.60175700  0.22488400  1
  O  358  1  0.51013500  0.76750900  0.31739900  1
  O  359  1  0.63335000  0.69649500  0.23712000  1
  O  360  1  0.35919400  0.66542500  0.26707300  1
