# generated using pymatgen
data_H11C17N2
_symmetry_space_group_name_H-M   'P 1'
_cell_length_a   45.07800000
_cell_length_b   60.80270000
_cell_length_c   60.80270000
_cell_angle_alpha   90.00000000
_cell_angle_beta   90.00000000
_cell_angle_gamma   90.00000000
_symmetry_Int_Tables_number   1
_chemical_formula_structural   H11C17N2
_chemical_formula_sum   'H704 C1088 N128'
_cell_volume   166651.93825758
_cell_formula_units_Z   64
loop_
 _symmetry_equiv_pos_site_id
 _symmetry_equiv_pos_as_xyz
  1  'x, y, z'
loop_
 _atom_site_type_symbol
 _atom_site_label
 _atom_site_symmetry_multiplicity
 _atom_site_fract_x
 _atom_site_fract_y
 _atom_site_fract_z
 _atom_site_occupancy
  H  9  1  0.01044700  0.17362400  0.25529000  1
  H  17  1  0.11802300  0.07239100  0.33172400  1
  H  19  1  0.06263300  0.13582700  0.34992200  1
  H  20  1  0.03202500  0.16051800  0.33053600  1
  H  21  1  0.09390500  0.08321900  0.25607200  1
  H  22  1  0.06683500  0.11016600  0.23609600  1
  H  35  1  0.01035500  0.83031300  0.76263900  1
  H  43  1  0.11802100  0.93152300  0.68622900  1
  H  45  1  0.06258800  0.86810900  0.66801600  1
  H  46  1  0.03196900  0.84342100  0.68739400  1
  H  47  1  0.09390200  0.92067400  0.76187900  1
  H  48  1  0.06678500  0.89375000  0.78184700  1
  H  61  1  0.01053600  0.75561300  0.18059200  1
  H  69  1  0.11796800  0.67906500  0.07932400  1
  H  71  1  0.06252900  0.66091900  0.14278700  1
  H  72  1  0.03201300  0.68034000  0.16750900  1
  H  73  1  0.09391800  0.75474100  0.09015100  1
  H  74  1  0.06690400  0.77474000  0.11710400  1
  H  87  1  0.01051500  0.24825700  0.83723100  1
  H  95  1  0.11791100  0.32474500  0.93855200  1
  H  97  1  0.06257600  0.34291900  0.87507400  1
  H  98  1  0.03203700  0.32352000  0.85034700  1
  H  99  1  0.09383300  0.24907800  0.92771000  1
  H  100  1  0.06683300  0.22909200  0.90073400  1
  H  113  1  0.83990000  0.83025600  0.25534900  1
  H  121  1  0.73216600  0.93150600  0.33164300  1
  H  123  1  0.78753900  0.86808600  0.34991900  1
  H  124  1  0.81817900  0.84338800  0.33057200  1
  H  125  1  0.75637100  0.92063000  0.25601500  1
  H  126  1  0.78347300  0.89367400  0.23607300  1
  H  139  1  0.83988200  0.17359300  0.76258400  1
  H  147  1  0.73211100  0.07236100  0.68628500  1
  H  149  1  0.78752100  0.13576500  0.66801100  1
  H  150  1  0.81816800  0.16045800  0.68735900  1
  H  151  1  0.75630000  0.08324900  0.76191800  1
  H  152  1  0.78343500  0.11018400  0.78185700  1
  H  165  1  0.83986800  0.24843800  0.18067000  1
  H  173  1  0.73218600  0.32474000  0.07935200  1
  H  175  1  0.78760400  0.34302100  0.14277900  1
  H  176  1  0.81815300  0.32366600  0.16752500  1
  H  177  1  0.75638900  0.24910200  0.09026400  1
  H  178  1  0.78345500  0.22916400  0.11723600  1
  H  191  1  0.83984000  0.75553200  0.83718300  1
  H  199  1  0.73229700  0.67913900  0.93849400  1
  H  201  1  0.78761200  0.66091600  0.87502300  1
  H  202  1  0.81818400  0.68028900  0.85029900  1
  H  203  1  0.75645100  0.75479000  0.92763100  1
  H  204  1  0.78348200  0.77475300  0.90065400  1
  H  217  1  0.84629500  0.86311400  0.78989600  1
  H  225  1  0.71491400  0.92340800  0.69465300  1
  H  227  1  0.77928700  0.86202900  0.69232600  1
  H  228  1  0.81631800  0.84822700  0.71611600  1
  H  229  1  0.73665000  0.93237900  0.77075300  1
  H  230  1  0.76848600  0.91484200  0.79608500  1
  H  243  1  0.84640800  0.14090700  0.22810300  1
  H  251  1  0.71507400  0.08046500  0.32328200  1
  H  253  1  0.77929800  0.14192300  0.32563300  1
  H  254  1  0.81633400  0.15576300  0.30186300  1
  H  255  1  0.73690300  0.07151700  0.24718100  1
  H  256  1  0.76869900  0.08911100  0.22186000  1
  H  269  1  0.84636400  0.22102500  0.87008900  1
  H  277  1  0.71502700  0.31636400  0.93041400  1
  H  279  1  0.77946000  0.31863500  0.86900700  1
  H  280  1  0.81644700  0.29481700  0.85519900  1
  H  281  1  0.73680700  0.24025700  0.93942800  1
  H  282  1  0.76859600  0.21490500  0.92188300  1
  H  295  1  0.84648600  0.78282000  0.14779600  1
  H  303  1  0.71494100  0.68770100  0.08741300  1
  H  305  1  0.77933100  0.68529300  0.14879400  1
  H  306  1  0.81640900  0.70904200  0.16260200  1
  H  307  1  0.73682300  0.76379800  0.07847400  1
  H  308  1  0.76868500  0.78909800  0.09604000  1
  H  321  1  0.00394600  0.14075100  0.78992400  1
  H  329  1  0.13529900  0.08047600  0.69465800  1
  H  331  1  0.07094300  0.14186300  0.69234700  1
  H  332  1  0.03391900  0.15566700  0.71614400  1
  H  333  1  0.11358500  0.07149600  0.77075800  1
  H  334  1  0.08175500  0.08903100  0.79609600  1
  H  347  1  0.00395900  0.86308800  0.22796500  1
  H  355  1  0.13524700  0.92344900  0.32322600  1
  H  357  1  0.07096600  0.86201700  0.32554000  1
  H  358  1  0.03395200  0.84818400  0.30174600  1
  H  359  1  0.11351100  0.93240100  0.24711100  1
  H  360  1  0.08172200  0.91482600  0.22177500  1
  H  373  1  0.00391600  0.78293500  0.87013400  1
  H  381  1  0.13530000  0.68757900  0.93037300  1
  H  383  1  0.07079500  0.68531300  0.86900600  1
  H  384  1  0.03381600  0.70913900  0.85520200  1
  H  385  1  0.11355400  0.76369600  0.93938700  1
  H  386  1  0.08174100  0.78904500  0.92186500  1
  H  399  1  0.00394400  0.22088500  0.14775400  1
  H  407  1  0.13515100  0.31634800  0.08755300  1
  H  409  1  0.07084000  0.31851900  0.14899600  1
  H  410  1  0.03385100  0.29468300  0.16278600  1
  H  411  1  0.11351500  0.24023100  0.07849100  1
  H  412  1  0.08173800  0.21484600  0.09601600  1
  H  425  1  0.50084300  0.67267100  0.75211300  1
  H  433  1  0.63507900  0.58270900  0.81833700  1
  H  435  1  0.58408500  0.64786100  0.83817300  1
  H  436  1  0.54568700  0.66904900  0.82261500  1
  H  437  1  0.58191100  0.58124200  0.75067000  1
  H  438  1  0.54984700  0.60629900  0.73226300  1
  H  451  1  0.50071600  0.33124500  0.26575500  1
  H  459  1  0.63506800  0.42120200  0.19964100  1
  H  461  1  0.58418900  0.35600100  0.17979300  1
  H  462  1  0.54576500  0.33480900  0.19531900  1
  H  463  1  0.58176700  0.42267700  0.26725500  1
  H  464  1  0.54964500  0.39764200  0.28562000  1
  H  477  1  0.50081600  0.25879100  0.67967000  1
  H  485  1  0.63505000  0.19261300  0.58966300  1
  H  487  1  0.58415000  0.17277400  0.65485100  1
  H  488  1  0.54574500  0.18831400  0.67605400  1
  H  489  1  0.58182200  0.26026000  0.58821100  1
  H  490  1  0.54978000  0.27865400  0.61327700  1
  H  503  1  0.50081800  0.74509700  0.33814800  1
  H  511  1  0.63498100  0.81128300  0.42821600  1
  H  513  1  0.58410300  0.83113700  0.36301700  1
  H  514  1  0.54573000  0.81559000  0.34179100  1
  H  515  1  0.58177400  0.74362800  0.42963000  1
  H  516  1  0.54974900  0.72523400  0.40454600  1
  H  529  1  0.34941400  0.33108200  0.75220800  1
  H  537  1  0.21514300  0.42116700  0.81825100  1
  H  539  1  0.26602800  0.35600100  0.83817500  1
  H  540  1  0.30442600  0.33477500  0.82266400  1
  H  541  1  0.26839300  0.42253900  0.75061400  1
  H  542  1  0.30045700  0.39744900  0.73225500  1
  H  555  1  0.34949600  0.67270400  0.26570200  1
  H  563  1  0.21511000  0.58276500  0.19959100  1
  H  565  1  0.26606100  0.64792800  0.17972400  1
  H  566  1  0.30448100  0.66911600  0.19525300  1
  H  567  1  0.26838800  0.58129800  0.26722000  1
  H  568  1  0.30051200  0.60633100  0.28558600  1
  H  581  1  0.34945900  0.74525900  0.67981000  1
  H  589  1  0.21514100  0.81129100  0.58974500  1
  H  591  1  0.26602300  0.83121000  0.65491500  1
  H  592  1  0.30442600  0.81570200  0.67613800  1
  H  593  1  0.26843200  0.74366700  0.58835000  1
  H  594  1  0.30048800  0.72530800  0.61343600  1
  H  607  1  0.34943400  0.25872400  0.33806400  1
  H  615  1  0.21522900  0.19260200  0.42815000  1
  H  617  1  0.26612100  0.17270800  0.36297100  1
  H  618  1  0.30449400  0.18824200  0.34173800  1
  H  619  1  0.26845000  0.26025200  0.42953800  1
  H  620  1  0.30047900  0.27863100  0.40444600  1
  H  633  1  0.35604700  0.36380000  0.29119400  1
  H  641  1  0.20833700  0.42076100  0.20672300  1
  H  643  1  0.27091700  0.35812700  0.20190400  1
  H  644  1  0.31211200  0.34509600  0.22229300  1
  H  645  1  0.25278000  0.43894400  0.27523900  1
  H  646  1  0.28711300  0.42173100  0.29894200  1
  H  659  1  0.35615800  0.64024900  0.72682600  1
  H  667  1  0.20844000  0.58309900  0.81116100  1
  H  669  1  0.27088200  0.64580200  0.81604700  1
  H  670  1  0.31210100  0.65887700  0.79569300  1
  H  671  1  0.25303200  0.56497600  0.74267900  1
  H  672  1  0.28734000  0.58224400  0.71899900  1
  H  685  1  0.35605400  0.71969800  0.37069700  1
  H  693  1  0.20841500  0.80417100  0.42779000  1
  H  695  1  0.27091700  0.80900000  0.36511700  1
  H  696  1  0.31213700  0.78862600  0.35207300  1
  H  697  1  0.25287900  0.73565300  0.44593600  1
  H  698  1  0.28716900  0.71194500  0.42869000  1
  H  711  1  0.35620000  0.28412100  0.64717300  1
  H  719  1  0.20835000  0.19983300  0.59008200  1
  H  721  1  0.27087900  0.19490900  0.65274200  1
  H  722  1  0.31212300  0.21524200  0.66579300  1
  H  723  1  0.25294600  0.26831000  0.57195000  1
  H  724  1  0.28730900  0.29196700  0.58919200  1
  H  737  1  0.49423400  0.64009100  0.29125000  1
  H  745  1  0.64194000  0.58318300  0.20675200  1
  H  747  1  0.57937300  0.64582800  0.20196300  1
  H  748  1  0.53818000  0.65885100  0.22236000  1
  H  749  1  0.59752900  0.56498800  0.27527400  1
  H  750  1  0.56319300  0.58218800  0.29898200  1
  H  763  1  0.49422800  0.36381600  0.72661600  1
  H  771  1  0.64188700  0.42069500  0.81117800  1
  H  773  1  0.57929400  0.35805800  0.81594200  1
  H  774  1  0.53811200  0.34503400  0.79552400  1
  H  775  1  0.59748400  0.43891300  0.74265600  1
  H  776  1  0.56319700  0.42170500  0.71892200  1
  H  789  1  0.49417400  0.28425700  0.37074000  1
  H  797  1  0.64190900  0.19976900  0.42766800  1
  H  799  1  0.57929100  0.19494700  0.36505800  1
  H  800  1  0.53807600  0.21533200  0.35204200  1
  H  801  1  0.59748600  0.26829100  0.44586000  1
  H  802  1  0.56316400  0.29199800  0.42865500  1
  H  815  1  0.49422300  0.71956800  0.64709400  1
  H  823  1  0.64186300  0.80415800  0.59018400  1
  H  825  1  0.57932200  0.80889600  0.65285700  1
  H  826  1  0.53813800  0.78848800  0.66587800  1
  H  827  1  0.59749300  0.73562500  0.57197900  1
  H  828  1  0.56319300  0.71189300  0.58918400  1
  H  838  1  0.18249700  0.02773400  0.28318000  1
  H  840  1  0.09637500  0.98186200  0.29577800  1
  H  841  1  0.09104200  0.02058300  0.29512300  1
  H  843  1  0.21470600  0.99779300  0.27837200  1
  H  844  1  0.19772800  0.97351900  0.26869900  1
  H  845  1  0.20520800  0.97688200  0.29720400  1
  H  847  1  0.15190200  0.05732400  0.30070500  1
  H  849  1  0.16054500  0.95382700  0.30490900  1
  H  855  1  0.18250600  0.97616400  0.73470700  1
  H  857  1  0.09634800  0.02202500  0.72218200  1
  H  858  1  0.09101400  0.98329800  0.72286900  1
  H  860  1  0.21471200  0.00611200  0.73947400  1
  H  861  1  0.19774100  0.03039300  0.74913900  1
  H  862  1  0.20518600  0.02700500  0.72063100  1
  H  864  1  0.15196000  0.94648900  0.71738400  1
  H  866  1  0.16052900  0.05004600  0.71296000  1
  H  872  1  0.18251600  0.72747100  0.03470500  1
  H  874  1  0.09633900  0.71521300  0.98880900  1
  H  875  1  0.09099300  0.71585600  0.02752900  1
  H  877  1  0.21476000  0.73221200  0.00477800  1
  H  878  1  0.19786100  0.74193100  0.98049100  1
  H  879  1  0.20515700  0.71340100  0.98387700  1
  H  881  1  0.15185600  0.71008500  0.06429800  1
  H  883  1  0.16045800  0.70582900  0.96081900  1
  H  889  1  0.18242700  0.27645100  0.98321600  1
  H  891  1  0.09617000  0.28861900  0.02905900  1
  H  892  1  0.09085800  0.28789000  0.99032700  1
  H  894  1  0.21466200  0.27180200  0.01315700  1
  H  895  1  0.19777800  0.26212800  0.03746700  1
  H  896  1  0.20501500  0.29065800  0.03400600  1
  H  898  1  0.15177800  0.29370100  0.95356900  1
  H  900  1  0.16041900  0.29801300  0.05713200  1
  H  906  1  0.66774000  0.97620500  0.28334300  1
  H  908  1  0.75403500  0.02200100  0.29554300  1
  H  909  1  0.75931000  0.98327200  0.29481400  1
  H  911  1  0.63553600  0.00616000  0.27867800  1
  H  912  1  0.65244500  0.03046900  0.26902700  1
  H  913  1  0.64517700  0.02699600  0.29755100  1
  H  915  1  0.69834300  0.94657300  0.30061000  1
  H  917  1  0.68971500  0.05013500  0.30483300  1
  H  923  1  0.66771400  0.02770200  0.73478600  1
  H  925  1  0.75385500  0.98186100  0.72214900  1
  H  926  1  0.75917100  0.02059200  0.72286900  1
  H  928  1  0.63550900  0.99774800  0.73955100  1
  H  929  1  0.65249100  0.97345300  0.74917000  1
  H  930  1  0.64501100  0.97688100  0.72067200  1
  H  932  1  0.69822700  0.05734000  0.71740100  1
  H  934  1  0.68966200  0.95382300  0.71298000  1
  H  940  1  0.66776000  0.27626900  0.03470700  1
  H  942  1  0.75400000  0.28874200  0.98892000  1
  H  943  1  0.75927000  0.28802500  0.02765000  1
  H  945  1  0.63558500  0.27152400  0.00473000  1
  H  946  1  0.65256900  0.26190100  0.98043800  1
  H  947  1  0.64514800  0.29040600  0.98388000  1
  H  949  1  0.69835600  0.29369400  0.06434500  1
  H  951  1  0.68974700  0.29794100  0.96080700  1
  H  957  1  0.66782900  0.72765000  0.98310400  1
  H  959  1  0.75397700  0.71530000  0.02901600  1
  H  960  1  0.75933300  0.71592400  0.99030000  1
  H  962  1  0.63559200  0.73246200  0.01302900  1
  H  963  1  0.65252200  0.74216400  0.03731100  1
  H  964  1  0.64512200  0.71364600  0.03394500  1
  H  966  1  0.69846500  0.71023600  0.95349500  1
  H  968  1  0.68973500  0.70608400  0.05704400  1
  H  974  1  0.67925600  0.52827400  0.77182100  1
  H  976  1  0.59315600  0.48530100  0.79235800  1
  H  977  1  0.58954000  0.52419900  0.79062400  1
  H  979  1  0.70937900  0.49736400  0.76620600  1
  H  980  1  0.69001300  0.47339200  0.75842300  1
  H  981  1  0.70128200  0.47720200  0.78617700  1
  H  983  1  0.65325900  0.56021800  0.78681700  1
  H  985  1  0.65633600  0.45557200  0.79759300  1
  H  991  1  0.67922300  0.47559600  0.24615700  1
  H  993  1  0.59316700  0.51860000  0.22558200  1
  H  994  1  0.58951400  0.47970100  0.22733000  1
  H  996  1  0.70936100  0.50649200  0.25178000  1
  H  997  1  0.69000600  0.53048000  0.25953600  1
  H  998  1  0.70130400  0.52664600  0.23179100  1
  H  1000  1  0.65322300  0.44363000  0.23125400  1
  H  1002  1  0.65641800  0.54831400  0.22040100  1
  H  1008  1  0.67920000  0.23911400  0.53526100  1
  H  1010  1  0.59311800  0.21861700  0.49225400  1
  H  1011  1  0.58947600  0.22034900  0.53115200  1
  H  1013  1  0.70934600  0.24472400  0.50436600  1
  H  1014  1  0.69001300  0.25249700  0.48037500  1
  H  1015  1  0.70125100  0.22474000  0.48421700  1
  H  1017  1  0.65318800  0.22415000  0.56720000  1
  H  1019  1  0.65631300  0.21335100  0.46255800  1
  H  1025  1  0.67915800  0.76478200  0.48259000  1
  H  1027  1  0.59307400  0.78527200  0.52560000  1
  H  1028  1  0.58942300  0.78350800  0.48669700  1
  H  1030  1  0.70931000  0.75918000  0.51348000  1
  H  1031  1  0.68999100  0.75144300  0.53748900  1
  H  1032  1  0.70124000  0.77919400  0.53360600  1
  H  1034  1  0.65313400  0.77971700  0.45064600  1
  H  1036  1  0.65639500  0.79045000  0.55533700  1
  H  1042  1  0.17108900  0.47559100  0.77169600  1
  H  1044  1  0.25720100  0.51852500  0.79228400  1
  H  1045  1  0.26079000  0.47962300  0.79053400  1
  H  1047  1  0.14100200  0.50650500  0.76604000  1
  H  1048  1  0.16037500  0.53049900  0.75833300  1
  H  1049  1  0.14904600  0.52662300  0.78606700  1
  H  1051  1  0.19702700  0.44364500  0.78670200  1
  H  1053  1  0.19385100  0.54833100  0.79732800  1
  H  1059  1  0.17102600  0.52833000  0.24615500  1
  H  1061  1  0.25706300  0.48535000  0.22548800  1
  H  1062  1  0.26068100  0.52425500  0.22721700  1
  H  1064  1  0.14091900  0.49742400  0.25183400  1
  H  1065  1  0.16030100  0.47343900  0.25956600  1
  H  1066  1  0.14893800  0.47727300  0.23183500  1
  H  1068  1  0.19696800  0.56026600  0.23112500  1
  H  1070  1  0.19380500  0.45559500  0.22042800  1
  H  1076  1  0.17110700  0.76467500  0.53533000  1
  H  1078  1  0.25716100  0.78537800  0.49238600  1
  H  1079  1  0.26075900  0.78364400  0.53128700  1
  H  1081  1  0.14103200  0.75897100  0.50440800  1
  H  1082  1  0.16043600  0.75127200  0.48042400  1
  H  1083  1  0.14903400  0.77899200  0.48427600  1
  H  1085  1  0.19704500  0.77973800  0.56728100  1
  H  1087  1  0.19385500  0.79038600  0.46259900  1
  H  1093  1  0.17111000  0.23922800  0.48251500  1
  H  1095  1  0.25715200  0.21865600  0.52553600  1
  H  1096  1  0.26079200  0.22034400  0.48663900  1
  H  1098  1  0.14099100  0.24493800  0.51341000  1
  H  1099  1  0.16035800  0.25269600  0.53739000  1
  H  1100  1  0.14900900  0.22495900  0.53358000  1
  H  1102  1  0.19710500  0.22419400  0.45057700  1
  H  1104  1  0.19385300  0.21358300  0.55527100  1
  H  1110  1  0.16682900  0.10156200  0.38539600  1
  H  1112  1  0.15666400  0.17426700  0.35377000  1
  H  1113  1  0.11662400  0.14908500  0.35165400  1
  H  1115  1  0.21679900  0.10652700  0.39485600  1
  H  1116  1  0.21993600  0.13295200  0.40649000  1
  H  1117  1  0.23627000  0.12713600  0.38049300  1
  H  1119  1  0.10803700  0.10570800  0.38585900  1
  H  1121  1  0.20994700  0.18057400  0.36107800  1
  H  1127  1  0.16670500  0.90232200  0.63245700  1
  H  1129  1  0.15661500  0.82965700  0.66419200  1
  H  1130  1  0.11657200  0.85484000  0.66632500  1
  H  1132  1  0.21666000  0.89735000  0.62295900  1
  H  1133  1  0.21978000  0.87091300  0.61134900  1
  H  1134  1  0.23615700  0.87675500  0.63732500  1
  H  1136  1  0.10796800  0.89823300  0.63207900  1
  H  1138  1  0.20985500  0.82330400  0.65680600  1
  H  1144  1  0.16672600  0.62549300  0.10858800  1
  H  1146  1  0.15661000  0.65713300  0.18128300  1
  H  1147  1  0.11653900  0.65922100  0.15612500  1
  H  1149  1  0.21671700  0.61607400  0.11351900  1
  H  1150  1  0.21987000  0.60443800  0.13994200  1
  H  1151  1  0.23619700  0.63043600  0.13412400  1
  H  1153  1  0.10796000  0.62496700  0.11281900  1
  H  1155  1  0.20988900  0.64983800  0.18758400  1
  H  1161  1  0.16672600  0.37840700  0.90930000  1
  H  1163  1  0.15657300  0.34677200  0.83660200  1
  H  1164  1  0.11653600  0.34463900  0.86179500  1
  H  1166  1  0.21668800  0.38788200  0.90433300  1
  H  1167  1  0.21979600  0.39952500  0.87791000  1
  H  1168  1  0.23616600  0.37353900  0.88371400  1
  H  1170  1  0.10797800  0.37886500  0.90517200  1
  H  1172  1  0.20984100  0.35409900  0.83029200  1
  H  1178  1  0.68335500  0.90230300  0.38538100  1
  H  1180  1  0.69352700  0.82960900  0.35374200  1
  H  1181  1  0.73353300  0.85482000  0.35157100  1
  H  1183  1  0.63341100  0.89731800  0.39489000  1
  H  1184  1  0.63036100  0.87090200  0.40655600  1
  H  1185  1  0.61392900  0.87667500  0.38058300  1
  H  1187  1  0.74208900  0.89821500  0.38580500  1
  H  1189  1  0.64026800  0.82326100  0.36114500  1
  H  1195  1  0.68336900  0.10158700  0.63248700  1
  H  1197  1  0.69354700  0.17425700  0.66417400  1
  H  1198  1  0.73353300  0.14903100  0.66635800  1
  H  1200  1  0.63344000  0.10659500  0.62294600  1
  H  1201  1  0.63041400  0.13301800  0.61129300  1
  H  1202  1  0.61395100  0.12723400  0.63725300  1
  H  1204  1  0.74209100  0.10563100  0.63211800  1
  H  1206  1  0.64031700  0.18066600  0.65672100  1
  H  1212  1  0.68340900  0.37847800  0.10861300  1
  H  1214  1  0.69357300  0.34669200  0.18124500  1
  H  1215  1  0.73357900  0.34456800  0.15603100  1
  H  1217  1  0.63345300  0.38796800  0.11361600  1
  H  1218  1  0.63041800  0.39959900  0.14004800  1
  H  1219  1  0.61397300  0.37363800  0.13424300  1
  H  1221  1  0.74216500  0.37889800  0.11274200  1
  H  1223  1  0.64032300  0.35413900  0.18764500  1
  H  1229  1  0.68344600  0.62546900  0.90933900  1
  H  1231  1  0.69356200  0.65708200  0.83662500  1
  H  1232  1  0.73363300  0.65918400  0.86178400  1
  H  1234  1  0.63346000  0.61603700  0.90440200  1
  H  1235  1  0.63027200  0.60440700  0.87798100  1
  H  1236  1  0.61398500  0.63041600  0.88380600  1
  H  1238  1  0.74223300  0.62499200  0.90517000  1
  H  1240  1  0.64027400  0.64979500  0.83034100  1
  H  1246  1  0.67578000  0.88910500  0.64564600  1
  H  1248  1  0.68590600  0.81472700  0.67287500  1
  H  1249  1  0.72345900  0.84109900  0.68055200  1
  H  1251  1  0.62805800  0.88322400  0.63141300  1
  H  1252  1  0.62930500  0.85778100  0.61758600  1
  H  1253  1  0.60793900  0.86076300  0.64200800  1
  H  1255  1  0.73634100  0.88249500  0.64839700  1
  H  1257  1  0.63486600  0.80677600  0.65946200  1
  H  1263  1  0.67596800  0.11483000  0.37236800  1
  H  1265  1  0.68581600  0.18915100  0.34491100  1
  H  1266  1  0.72343700  0.16281200  0.33725500  1
  H  1268  1  0.62825500  0.12067800  0.38663100  1
  H  1269  1  0.62946200  0.14615500  0.40039700  1
  H  1270  1  0.60806100  0.14308600  0.37600100  1
  H  1272  1  0.73638300  0.12140700  0.36954300  1
  H  1274  1  0.63482400  0.19710300  0.35841000  1
  H  1280  1  0.67614800  0.36539800  0.89601600  1
  H  1282  1  0.68573600  0.33788300  0.82171500  1
  H  1283  1  0.72341300  0.33022700  0.84799300  1
  H  1285  1  0.62843300  0.37968000  0.89025000  1
  H  1286  1  0.62961500  0.39343800  0.86476700  1
  H  1287  1  0.60815200  0.36907900  0.86787200  1
  H  1289  1  0.73658500  0.36253300  0.88923800  1
  H  1291  1  0.63478600  0.35141000  0.81382400  1
  H  1297  1  0.67588400  0.63861600  0.12179800  1
  H  1299  1  0.68591100  0.66593700  0.19614100  1
  H  1300  1  0.72346400  0.67363300  0.16975900  1
  H  1302  1  0.62819300  0.62434200  0.12767200  1
  H  1303  1  0.62948200  0.61052700  0.15312000  1
  H  1304  1  0.60804600  0.63491400  0.15013100  1
  H  1306  1  0.73632400  0.64140700  0.12832500  1
  H  1308  1  0.63492400  0.65245900  0.20410100  1
  H  1314  1  0.17429100  0.11485500  0.64553200  1
  H  1316  1  0.16438900  0.18918400  0.67292200  1
  H  1317  1  0.12685000  0.16281100  0.68066400  1
  H  1319  1  0.22194600  0.12072000  0.63119100  1
  H  1320  1  0.22061600  0.14617000  0.61738000  1
  H  1321  1  0.24213400  0.14317400  0.64172800  1
  H  1323  1  0.11386700  0.12140300  0.64841200  1
  H  1325  1  0.21535400  0.19713800  0.65934700  1
  H  1331  1  0.17427300  0.88908000  0.37235300  1
  H  1333  1  0.16443000  0.81475800  0.34493900  1
  H  1334  1  0.12686500  0.84111700  0.33721500  1
  H  1336  1  0.22194200  0.88323400  0.38668500  1
  H  1337  1  0.22064700  0.85777600  0.40048400  1
  H  1338  1  0.24214700  0.86079500  0.37613300  1
  H  1340  1  0.11386500  0.88252000  0.36947500  1
  H  1342  1  0.21538400  0.80678300  0.35853000  1
  H  1348  1  0.17412800  0.63848100  0.89606500  1
  H  1350  1  0.16442700  0.66597500  0.82175800  1
  H  1351  1  0.12681300  0.67367200  0.84807700  1
  H  1353  1  0.22183200  0.62416900  0.89024800  1
  H  1354  1  0.22056100  0.61038600  0.86478200  1
  H  1355  1  0.24206900  0.63473000  0.86782800  1
  H  1357  1  0.11362300  0.64139200  0.88927800  1
  H  1359  1  0.21538600  0.65237200  0.81382200  1
  H  1365  1  0.17424100  0.36529600  0.12181300  1
  H  1367  1  0.16431700  0.33808200  0.19621200  1
  H  1368  1  0.12668800  0.33040300  0.16990000  1
  H  1370  1  0.22199300  0.37951400  0.12761900  1
  H  1371  1  0.22084000  0.39334400  0.15306300  1
  H  1372  1  0.24216500  0.36890800  0.15005000  1
  H  1374  1  0.11367100  0.36253300  0.12854400  1
  H  1376  1  0.21536100  0.35148900  0.20409500  1
  H  1382  1  0.09537200  0.17237200  0.19228100  1
  H  1384  1  0.99804500  0.17231000  0.15821600  1
  H  1385  1  0.00303000  0.16246600  0.19603700  1
  H  1387  1  0.11992900  0.18214500  0.15963700  1
  H  1388  1  0.09856400  0.20100400  0.14435700  1
  H  1389  1  0.10172900  0.17324100  0.13555600  1
  H  1391  1  0.06534100  0.17293000  0.22834200  1
  H  1393  1  0.03668100  0.17024700  0.12050300  1
  H  1399  1  0.09536300  0.83157600  0.82564200  1
  H  1401  1  0.99800500  0.83151500  0.85965900  1
  H  1402  1  0.00300500  0.84139800  0.82184800  1
  H  1404  1  0.11990400  0.82178700  0.85828600  1
  H  1405  1  0.09855300  0.80290200  0.87354700  1
  H  1406  1  0.10167100  0.83066500  0.88236400  1
  H  1408  1  0.06537500  0.83104300  0.78956500  1
  H  1410  1  0.03663000  0.83360700  0.89738600  1
  H  1416  1  0.09544500  0.81869900  0.17915000  1
  H  1418  1  0.99797700  0.85253600  0.17941800  1
  H  1419  1  0.00306800  0.81473800  0.16952200  1
  H  1421  1  0.11991600  0.85138800  0.18889000  1
  H  1422  1  0.09858400  0.86659900  0.20782500  1
  H  1423  1  0.10157100  0.87543600  0.18006100  1
  H  1425  1  0.06550400  0.78257000  0.17981400  1
  H  1427  1  0.03644900  0.89034200  0.17726300  1
  H  1433  1  0.09540000  0.18518900  0.83861900  1
  H  1435  1  0.99799400  0.15125200  0.83848700  1
  H  1436  1  0.00303600  0.18906600  0.84834700  1
  H  1438  1  0.11991500  0.15252200  0.82887600  1
  H  1439  1  0.09857200  0.13727000  0.80998000  1
  H  1440  1  0.10163800  0.12846000  0.83774900  1
  H  1442  1  0.06542600  0.22128600  0.83798600  1
  H  1444  1  0.03655300  0.11347700  0.84061400  1
  H  1450  1  0.75501100  0.83154700  0.19223300  1
  H  1452  1  0.85243800  0.83140900  0.15832700  1
  H  1453  1  0.84737300  0.84127200  0.19613800  1
  H  1455  1  0.73051600  0.82180200  0.15955700  1
  H  1456  1  0.75186500  0.80290800  0.14430700  1
  H  1457  1  0.74880900  0.83067800  0.13550400  1
  H  1459  1  0.78495900  0.83093700  0.22834500  1
  H  1461  1  0.81390200  0.83356500  0.12055000  1
  H  1467  1  0.75492000  0.17239500  0.82562300  1
  H  1469  1  0.85227800  0.17241700  0.85963800  1
  H  1470  1  0.84726500  0.16253100  0.82183000  1
  H  1472  1  0.73038500  0.18220200  0.85826400  1
  H  1473  1  0.75175200  0.20107800  0.87352300  1
  H  1474  1  0.74860900  0.17332000  0.88234400  1
  H  1476  1  0.78490200  0.17291000  0.78955200  1
  H  1478  1  0.81367600  0.17034400  0.89736500  1
  H  1484  1  0.75494000  0.18526100  0.17924700  1
  H  1486  1  0.85243100  0.15145700  0.17955800  1
  H  1487  1  0.84732700  0.18926000  0.16967800  1
  H  1489  1  0.73047800  0.15255700  0.18895500  1
  H  1490  1  0.75179700  0.13733600  0.20789200  1
  H  1491  1  0.74885100  0.12852200  0.18011900  1
  H  1493  1  0.78483500  0.22140600  0.17991000  1
  H  1495  1  0.81398400  0.11363900  0.17737200  1
  H  1501  1  0.75491100  0.81859200  0.83851400  1
  H  1503  1  0.85226000  0.85262500  0.83849200  1
  H  1504  1  0.84727100  0.81479900  0.84832100  1
  H  1506  1  0.73035600  0.85125100  0.82878900  1
  H  1507  1  0.75169200  0.86653200  0.80991300  1
  H  1508  1  0.74858900  0.87532300  0.83768300  1
  H  1510  1  0.78491000  0.78252800  0.83791200  1
  H  1512  1  0.81366300  0.89035200  0.84060200  1
  H  1518  1  0.58193800  0.66443100  0.68429200  1
  H  1520  1  0.48207800  0.67197300  0.65558600  1
  H  1521  1  0.48932500  0.66135500  0.69298400  1
  H  1523  1  0.60449400  0.67280500  0.65053300  1
  H  1524  1  0.58438500  0.69345600  0.63671000  1
  H  1525  1  0.58294300  0.66579300  0.62736800  1
  H  1527  1  0.55735400  0.66623000  0.72141000  1
  H  1529  1  0.51641400  0.66840900  0.61566500  1
  H  1535  1  0.58187600  0.33956500  0.33359400  1
  H  1537  1  0.48200700  0.33185000  0.36224200  1
  H  1538  1  0.48925900  0.34253100  0.32486200  1
  H  1540  1  0.60442100  0.33115300  0.36734500  1
  H  1541  1  0.58433800  0.31047000  0.38114100  1
  H  1542  1  0.58283600  0.33812300  0.39050700  1
  H  1544  1  0.55741800  0.33789300  0.29647400  1
  H  1546  1  0.51633400  0.33544600  0.40217600  1
  H  1552  1  0.58187400  0.32666600  0.67132400  1
  H  1554  1  0.48200700  0.35530500  0.67905200  1
  H  1555  1  0.48926500  0.31791700  0.66840100  1
  H  1557  1  0.60441900  0.36043500  0.67967900  1
  H  1558  1  0.58435400  0.37422300  0.70037500  1
  H  1559  1  0.58282100  0.38359300  0.67272300  1
  H  1561  1  0.55734700  0.28954500  0.67316400  1
  H  1563  1  0.51628300  0.39525500  0.67546300  1
  H  1569  1  0.58188700  0.67721300  0.34653200  1
  H  1571  1  0.48201300  0.64858800  0.33879900  1
  H  1572  1  0.48927800  0.68597900  0.34943500  1
  H  1574  1  0.60442600  0.64344500  0.33818100  1
  H  1575  1  0.58435400  0.62964000  0.31749900  1
  H  1576  1  0.58282700  0.62029100  0.34515700  1
  H  1578  1  0.55737800  0.71434000  0.34468900  1
  H  1580  1  0.51630500  0.60862600  0.34241600  1
  H  1586  1  0.26845700  0.33941700  0.68422900  1
  H  1588  1  0.36839000  0.33169600  0.65571600  1
  H  1589  1  0.36104500  0.34232400  0.69310200  1
  H  1591  1  0.24598700  0.33107600  0.65043300  1
  H  1592  1  0.26608800  0.31039900  0.63664100  1
  H  1593  1  0.26763800  0.33806100  0.62730900  1
  H  1595  1  0.29289700  0.33758000  0.72139200  1
  H  1597  1  0.33418700  0.33534500  0.61572600  1
  H  1603  1  0.26836600  0.66443600  0.33355700  1
  H  1605  1  0.36823900  0.67209000  0.36220600  1
  H  1606  1  0.36097400  0.66142300  0.32482400  1
  H  1608  1  0.24582500  0.67285300  0.36730900  1
  H  1609  1  0.26593000  0.69352000  0.38111000  1
  H  1610  1  0.26740100  0.66586500  0.39047100  1
  H  1612  1  0.29283700  0.66611800  0.29643900  1
  H  1614  1  0.33393400  0.66849500  0.40213800  1
  H  1620  1  0.26845700  0.67723900  0.67140100  1
  H  1622  1  0.36841200  0.64880200  0.67926400  1
  H  1623  1  0.36104500  0.68617500  0.66860300  1
  H  1625  1  0.24601600  0.64342500  0.67973000  1
  H  1626  1  0.26608500  0.62966300  0.70044400  1
  H  1627  1  0.26771800  0.62031400  0.67278900  1
  H  1629  1  0.29286300  0.71442000  0.67325300  1
  H  1631  1  0.33428500  0.60878700  0.67561600  1
  H  1637  1  0.26837500  0.32662000  0.34638600  1
  H  1639  1  0.36824600  0.35528800  0.33877600  1
  H  1640  1  0.36098800  0.31788500  0.34937300  1
  H  1642  1  0.24583200  0.36039700  0.33805900  1
  H  1643  1  0.26592100  0.37422700  0.31740200  1
  H  1644  1  0.26741400  0.38354700  0.34507000  1
  H  1646  1  0.29291200  0.28949900  0.34455000  1
  H  1648  1  0.33394600  0.39522700  0.34238400  1
  H  1654  1  0.94243500  0.16559000  0.31777400  1
  H  1656  1  0.91673500  0.18628800  0.24333300  1
  H  1657  1  0.96387400  0.19568700  0.25772200  1
  H  1659  1  0.89677400  0.15056800  0.32585100  1
  H  1660  1  0.88097300  0.13696400  0.30322300  1
  H  1661  1  0.86754100  0.16327200  0.31158000  1
  H  1663  1  0.98187300  0.20147500  0.30766900  1
  H  1665  1  0.86868300  0.17234800  0.24696400  1
  H  1671  1  0.94247500  0.83852800  0.70026300  1
  H  1673  1  0.91666400  0.81758000  0.77461500  1
  H  1674  1  0.96376000  0.80811900  0.76019100  1
  H  1676  1  0.89693400  0.85378800  0.69227300  1
  H  1677  1  0.88115900  0.86727900  0.71497600  1
  H  1678  1  0.86761800  0.84106300  0.70642700  1
  H  1680  1  0.98177400  0.80247200  0.71026400  1
  H  1682  1  0.86881400  0.83185600  0.77114500  1
  H  1688  1  0.94238400  0.69307900  0.17264000  1
  H  1690  1  0.91678600  0.76760900  0.19307700  1
  H  1691  1  0.96392200  0.75322800  0.20249600  1
  H  1693  1  0.89667000  0.68495600  0.15773500  1
  H  1694  1  0.88086900  0.70752400  0.14403600  1
  H  1695  1  0.86748900  0.69931600  0.17040500  1
  H  1697  1  0.98184000  0.70321200  0.20839400  1
  H  1699  1  0.86861900  0.76388000  0.17931300  1
  H  1705  1  0.94248400  0.31071100  0.84534100  1
  H  1707  1  0.91677500  0.23626600  0.82467900  1
  H  1708  1  0.96388000  0.25067000  0.81521900  1
  H  1710  1  0.89687600  0.31877000  0.86044500  1
  H  1711  1  0.88107900  0.29614100  0.87404300  1
  H  1712  1  0.86762300  0.30451900  0.84774800  1
  H  1714  1  0.98184500  0.30063100  0.80942900  1
  H  1716  1  0.86883800  0.23981700  0.83880600  1
  H  1722  1  0.90768600  0.83873200  0.31758400  1
  H  1724  1  0.93359300  0.81738100  0.24337200  1
  H  1725  1  0.88653400  0.80791000  0.25785200  1
  H  1727  1  0.95312100  0.85420400  0.32546900  1
  H  1728  1  0.96888300  0.86755000  0.30267600  1
  H  1729  1  0.98250100  0.84142800  0.31143700  1
  H  1731  1  0.86851200  0.80248600  0.30773800  1
  H  1733  1  0.98124800  0.83200600  0.24664000  1
  H  1739  1  0.90768900  0.16518200  0.70030800  1
  H  1741  1  0.93357000  0.18642400  0.77455400  1
  H  1742  1  0.88650300  0.19589100  0.76009100  1
  H  1744  1  0.95315000  0.14976900  0.69239000  1
  H  1745  1  0.96892300  0.13638300  0.71515700  1
  H  1746  1  0.98251200  0.16253400  0.70645500  1
  H  1748  1  0.86848100  0.20137100  0.71019200  1
  H  1750  1  0.98126600  0.17187600  0.77124000  1
  H  1756  1  0.90745400  0.31048600  0.17180500  1
  H  1758  1  0.93349500  0.23648100  0.19377400  1
  H  1759  1  0.88652300  0.25106600  0.20331200  1
  H  1761  1  0.95266400  0.31814700  0.15587700  1
  H  1762  1  0.96836100  0.29517400  0.14279700  1
  H  1763  1  0.98219100  0.30434800  0.16871600  1
  H  1765  1  0.86847700  0.30087000  0.20840800  1
  H  1767  1  0.98068400  0.23931800  0.17839000  1
  H  1773  1  0.90764700  0.69326300  0.84568400  1
  H  1775  1  0.93350600  0.76750800  0.82441500  1
  H  1776  1  0.88647900  0.75301400  0.81489600  1
  H  1778  1  0.95305900  0.68539500  0.86120000  1
  H  1779  1  0.96879600  0.70819200  0.87455800  1
  H  1780  1  0.98244600  0.69943600  0.84844100  1
  H  1782  1  0.86847400  0.70314300  0.80941100  1
  H  1784  1  0.98107700  0.76431000  0.83916300  1
  H  1790  1  0.44417400  0.66840400  0.81491300  1
  H  1792  1  0.41424000  0.69347700  0.74268900  1
  H  1793  1  0.46178800  0.70273000  0.75644000  1
  H  1795  1  0.39849100  0.65333900  0.82360300  1
  H  1796  1  0.38411000  0.63941400  0.80062400  1
  H  1797  1  0.36801800  0.66466100  0.80955400  1
  H  1799  1  0.48444500  0.70533200  0.80462900  1
  H  1801  1  0.36795800  0.67648300  0.74561100  1
  H  1807  1  0.44438100  0.33585500  0.20320000  1
  H  1809  1  0.41418600  0.31023300  0.27516900  1
  H  1810  1  0.46165100  0.30087100  0.26133700  1
  H  1812  1  0.39894200  0.35138600  0.19469700  1
  H  1813  1  0.38460200  0.36505400  0.21784200  1
  H  1814  1  0.36831900  0.34001400  0.20851900  1
  H  1816  1  0.48441400  0.29854900  0.21327200  1
  H  1818  1  0.36841500  0.32791300  0.27265900  1
  H  1824  1  0.44417900  0.19600600  0.67531200  1
  H  1826  1  0.41422000  0.26819700  0.70045700  1
  H  1827  1  0.46175300  0.25442800  0.70972800  1
  H  1829  1  0.39852000  0.18733700  0.66020100  1
  H  1830  1  0.38416100  0.21033600  0.64629300  1
  H  1831  1  0.36803100  0.20137100  0.67151800  1
  H  1833  1  0.48440200  0.20621600  0.71226300  1
  H  1835  1  0.36798200  0.26533000  0.68336600  1
  H  1841  1  0.44417400  0.80784100  0.34258200  1
  H  1843  1  0.41422400  0.73566600  0.31738700  1
  H  1844  1  0.46172200  0.74947000  0.30807500  1
  H  1846  1  0.39856500  0.81646200  0.35778800  1
  H  1847  1  0.38422300  0.79343700  0.37165900  1
  H  1848  1  0.36806000  0.80245400  0.34646600  1
  H  1850  1  0.48435600  0.79766500  0.30557700  1
  H  1852  1  0.36817300  0.73839300  0.33469600  1
  H  1858  1  0.40568600  0.33611000  0.81459000  1
  H  1860  1  0.43601300  0.31001600  0.74282500  1
  H  1861  1  0.38862400  0.30059200  0.75674900  1
  H  1863  1  0.45094700  0.35199100  0.82291200  1
  H  1864  1  0.46526000  0.36544100  0.79963000  1
  H  1865  1  0.48165800  0.34055600  0.80925700  1
  H  1867  1  0.36585000  0.29852800  0.80474000  1
  H  1869  1  0.48142100  0.32821200  0.74499000  1
  H  1875  1  0.40577900  0.66787600  0.20327500  1
  H  1877  1  0.43605500  0.69380800  0.27511300  1
  H  1878  1  0.38863500  0.70319900  0.26122400  1
  H  1880  1  0.45110700  0.65212500  0.19488600  1
  H  1881  1  0.46543300  0.63860000  0.21812000  1
  H  1882  1  0.48178500  0.66354300  0.20860100  1
  H  1884  1  0.36586100  0.70536000  0.21321600  1
  H  1886  1  0.48157200  0.67578400  0.27283300  1
  H  1892  1  0.40565200  0.80757200  0.67464400  1
  H  1894  1  0.43600600  0.73590000  0.70097400  1
  H  1895  1  0.38864400  0.74986900  0.71040200  1
  H  1897  1  0.45084700  0.81580600  0.65862400  1
  H  1898  1  0.46513800  0.79245600  0.64528000  1
  H  1899  1  0.48159600  0.80222200  0.67008800  1
  H  1901  1  0.36587000  0.79783300  0.71234200  1
  H  1903  1  0.48123000  0.73788300  0.68253500  1
  H  1909  1  0.40589600  0.19615900  0.34284000  1
  H  1911  1  0.43600400  0.26812500  0.31715900  1
  H  1912  1  0.38857300  0.25424500  0.30779100  1
  H  1914  1  0.45133100  0.18770500  0.35840000  1
  H  1915  1  0.46564200  0.21087200  0.37204900  1
  H  1916  1  0.48194000  0.20153500  0.34701900  1
  H  1918  1  0.36588800  0.20615500  0.30551900  1
  H  1920  1  0.48168500  0.26574800  0.33499000  1
  C  1  1  0.05556200  0.13046500  0.28710900  1
  C  2  1  0.04003100  0.14740100  0.29860200  1
  C  3  1  0.02180500  0.16244500  0.28693100  1
  C  4  1  0.02131200  0.16153700  0.26382900  1
  C  5  1  0.03736400  0.14547400  0.25207300  1
  C  6  1  0.05349700  0.12913500  0.26373500  1
  C  7  1  0.04301200  0.14872600  0.32169100  1
  C  8  1  0.06814800  0.11171300  0.25283900  1
  C  10  1  0.07363100  0.11516300  0.29894200  1
  C  11  1  0.07700700  0.11732700  0.32217100  1
  C  12  1  0.09549800  0.10252100  0.33386500  1
  C  13  1  0.10775500  0.08444100  0.32267800  1
  C  14  1  0.10392900  0.08138200  0.29981600  1
  C  15  1  0.08738600  0.09721700  0.28773400  1
  C  16  1  0.06123100  0.13408200  0.33320700  1
  C  18  1  0.08394600  0.09567700  0.26467700  1
  C  27  1  0.05552100  0.87345400  0.73082900  1
  C  28  1  0.03997900  0.85652800  0.71933100  1
  C  29  1  0.02174200  0.84148700  0.73099900  1
  C  30  1  0.02123400  0.84239800  0.75410100  1
  C  31  1  0.03726900  0.85846700  0.76586100  1
  C  32  1  0.05344700  0.87478500  0.75420300  1
  C  33  1  0.04296200  0.85520700  0.69624200  1
  C  34  1  0.06811600  0.89219400  0.76510400  1
  C  36  1  0.07360800  0.88874800  0.71900100  1
  C  37  1  0.07697800  0.88659500  0.69576800  1
  C  38  1  0.09546900  0.90140400  0.68407800  1
  C  39  1  0.10772500  0.91948000  0.69527300  1
  C  40  1  0.10395500  0.92250000  0.71814600  1
  C  41  1  0.08738100  0.90668200  0.73021700  1
  C  42  1  0.06118500  0.86985100  0.68472900  1
  C  44  1  0.08394300  0.90821900  0.75327400  1
  C  53  1  0.05557100  0.72373900  0.13742100  1
  C  54  1  0.04004700  0.71226400  0.15437500  1
  C  55  1  0.02187700  0.72396800  0.16943300  1
  C  56  1  0.02140900  0.74706700  0.16851500  1
  C  57  1  0.03744200  0.75880000  0.15242800  1
  C  58  1  0.05354100  0.74711600  0.13608600  1
  C  59  1  0.04298800  0.68917200  0.15570000  1
  C  60  1  0.06819100  0.75799600  0.11865500  1
  C  62  1  0.07359000  0.71188400  0.12210300  1
  C  63  1  0.07692500  0.68864900  0.12426700  1
  C  64  1  0.09533700  0.67694300  0.10941200  1
  C  65  1  0.10764300  0.68811200  0.09134700  1
  C  66  1  0.10384700  0.71097600  0.08831200  1
  C  67  1  0.08734400  0.72308400  0.10414700  1
  C  68  1  0.06116100  0.67763600  0.14104200  1
  C  70  1  0.08393400  0.74614300  0.10260100  1
  C  79  1  0.05555100  0.28010100  0.88042600  1
  C  80  1  0.04004700  0.29159100  0.86347500  1
  C  81  1  0.02188800  0.27989900  0.84840500  1
  C  82  1  0.02141200  0.25679800  0.84929900  1
  C  83  1  0.03741200  0.24505200  0.86539700  1
  C  84  1  0.05350400  0.25672500  0.88175300  1
  C  85  1  0.04299900  0.31468000  0.86215700  1
  C  86  1  0.06812800  0.24583600  0.89919200  1
  C  88  1  0.07357300  0.29194400  0.89575100  1
  C  89  1  0.07693900  0.31517700  0.89358800  1
  C  90  1  0.09540300  0.32687800  0.90840800  1
  C  91  1  0.10759900  0.31570500  0.92651800  1
  C  92  1  0.10378400  0.29284200  0.92955900  1
  C  93  1  0.08729900  0.28073700  0.91371200  1
  C  94  1  0.06118100  0.32620400  0.87682100  1
  C  96  1  0.08386700  0.25768100  0.91525500  1
  C  105  1  0.79468200  0.87340700  0.28710700  1
  C  106  1  0.81020900  0.85648300  0.29862200  1
  C  107  1  0.82846400  0.84143900  0.28697400  1
  C  108  1  0.82899400  0.84233400  0.26387100  1
  C  109  1  0.81294000  0.85838300  0.25209400  1
  C  110  1  0.79677900  0.87472200  0.26373500  1
  C  111  1  0.80719800  0.85517200  0.32170900  1
  C  112  1  0.78213500  0.89213400  0.25281800  1
  C  114  1  0.77659600  0.88871400  0.29891800  1
  C  115  1  0.77319300  0.88656400  0.32214700  1
  C  116  1  0.75468700  0.90137700  0.33381900  1
  C  117  1  0.74244400  0.91944900  0.32261200  1
  C  118  1  0.74629500  0.92249500  0.29975000  1
  C  119  1  0.76285300  0.90665200  0.28768900  1
  C  120  1  0.78896100  0.86982000  0.33320400  1
  C  122  1  0.76632000  0.90817700  0.26463500  1
  C  131  1  0.79465100  0.13045200  0.73082300  1
  C  132  1  0.81018700  0.14737000  0.71930800  1
  C  133  1  0.82844400  0.16241000  0.73095700  1
  C  134  1  0.82897800  0.16151200  0.75406000  1
  C  135  1  0.81294400  0.14545400  0.76583700  1
  C  136  1  0.79674800  0.12913400  0.75419700  1
  C  137  1  0.80718100  0.14868000  0.69622100  1
  C  138  1  0.78208900  0.11173100  0.76511500  1
  C  140  1  0.77655200  0.11515300  0.71901400  1
  C  141  1  0.77315700  0.11729500  0.69578100  1
  C  142  1  0.75465400  0.10248100  0.68410900  1
  C  143  1  0.74241300  0.08440800  0.69531900  1
  C  144  1  0.74620600  0.08139900  0.71819200  1
  C  145  1  0.76278900  0.09722600  0.73024500  1
  C  146  1  0.78894100  0.13403200  0.68472600  1
  C  148  1  0.76624900  0.09570000  0.75330000  1
  C  157  1  0.79467400  0.28020100  0.13749700  1
  C  158  1  0.81017600  0.29171600  0.15443500  1
  C  159  1  0.82838000  0.28005500  0.16950400  1
  C  160  1  0.82892700  0.25695400  0.16860300  1
  C  161  1  0.81290600  0.24518100  0.15253500  1
  C  162  1  0.79675900  0.25682600  0.13618800  1
  C  163  1  0.80719200  0.31480500  0.15573100  1
  C  164  1  0.78212600  0.24590800  0.11877100  1
  C  166  1  0.77662700  0.29201700  0.12216600  1
  C  167  1  0.77325100  0.31525200  0.12430100  1
  C  168  1  0.75481100  0.32692000  0.10943500  1
  C  169  1  0.74252400  0.31571600  0.09138500  1
  C  170  1  0.74636600  0.29285400  0.08837500  1
  C  171  1  0.76289500  0.28078200  0.10422400  1
  C  172  1  0.78900100  0.32630500  0.14105600  1
  C  174  1  0.76635600  0.25772500  0.10270500  1
  C  183  1  0.79470900  0.72373100  0.88036200  1
  C  184  1  0.81020900  0.71222800  0.86341700  1
  C  185  1  0.82839500  0.72390000  0.84835200  1
  C  186  1  0.82890700  0.74700100  0.84924300  1
  C  187  1  0.81290400  0.75876400  0.86533000  1
  C  188  1  0.79678500  0.74710600  0.88168300  1
  C  189  1  0.80722700  0.68913900  0.86210500  1
  C  190  1  0.78216600  0.75800900  0.89911400  1
  C  192  1  0.77666700  0.71190400  0.89568500  1
  C  193  1  0.77327700  0.68867300  0.89352900  1
  C  194  1  0.75480000  0.67698500  0.90835100  1
  C  195  1  0.74261300  0.68817200  0.92645500  1
  C  196  1  0.74645300  0.71103200  0.92949100  1
  C  197  1  0.76295100  0.72312400  0.91364200  1
  C  198  1  0.78902600  0.67763100  0.87676700  1
  C  200  1  0.76640900  0.74617900  0.91518000  1
  C  209  1  0.78451800  0.88374200  0.75158300  1
  C  210  1  0.80527300  0.86782600  0.74384800  1
  C  211  1  0.82856100  0.86049000  0.75780200  1
  C  212  1  0.82878300  0.86732500  0.78001100  1
  C  213  1  0.80734900  0.88195200  0.78836400  1
  C  214  1  0.78638800  0.89138000  0.77371700  1
  C  215  1  0.80250400  0.86019800  0.72199400  1
  C  216  1  0.76763100  0.90876000  0.78039300  1
  C  218  1  0.76333400  0.89311800  0.73676600  1
  C  219  1  0.76082600  0.88513000  0.71478100  1
  C  220  1  0.74011900  0.89480400  0.70000700  1
  C  221  1  0.72561100  0.91434400  0.70644900  1
  C  222  1  0.72900500  0.92333900  0.72774700  1
  C  223  1  0.74653500  0.91184700  0.74336200  1
  C  224  1  0.78025000  0.86818800  0.70798200  1
  C  226  1  0.74892600  0.91928800  0.76531600  1
  C  235  1  0.78461100  0.12023500  0.26637000  1
  C  236  1  0.80533500  0.13616200  0.27412100  1
  C  237  1  0.82862800  0.14351400  0.26018100  1
  C  238  1  0.82888100  0.13668500  0.23797000  1
  C  239  1  0.80745100  0.12206400  0.22958800  1
  C  240  1  0.78651200  0.11260800  0.24423400  1
  C  241  1  0.80254400  0.14378100  0.29597500  1
  C  242  1  0.76780000  0.09520500  0.23754500  1
  C  244  1  0.76344100  0.11082700  0.28117800  1
  C  245  1  0.76090500  0.11880400  0.30316700  1
  C  246  1  0.74021200  0.10909700  0.31793500  1
  C  247  1  0.72578800  0.08952300  0.31148800  1
  C  248  1  0.72922500  0.08055600  0.29018100  1
  C  249  1  0.74669200  0.09208000  0.27456700  1
  C  250  1  0.78030500  0.13575400  0.30998100  1
  C  252  1  0.74912600  0.08463900  0.25261500  1
  C  261  1  0.78466400  0.25939300  0.89076800  1
  C  262  1  0.80541700  0.26711100  0.87484100  1
  C  263  1  0.82868600  0.25313000  0.86751600  1
  C  264  1  0.82888800  0.23092600  0.87434700  1
  C  265  1  0.80743400  0.22258500  0.88896500  1
  C  266  1  0.78650500  0.23725400  0.89840200  1
  C  267  1  0.80266400  0.28896100  0.86720000  1
  C  268  1  0.76774900  0.23059300  0.91578800  1
  C  270  1  0.76350800  0.27422800  0.90015200  1
  C  271  1  0.76101000  0.29621200  0.89214400  1
  C  272  1  0.74034300  0.31099300  0.90187400  1
  C  273  1  0.72580600  0.30457500  0.92139300  1
  C  274  1  0.72919600  0.28327200  0.93036000  1
  C  275  1  0.74671000  0.26763800  0.91888800  1
  C  276  1  0.78041200  0.30298300  0.87517500  1
  C  278  1  0.74909300  0.24568600  0.92633500  1
  C  287  1  0.78467100  0.74455400  0.12709500  1
  C  288  1  0.80541300  0.73678800  0.14300500  1
  C  289  1  0.82870800  0.75073100  0.15033300  1
  C  290  1  0.82900100  0.77293900  0.14351300  1
  C  291  1  0.80754500  0.78132700  0.12892300  1
  C  292  1  0.78656500  0.76669800  0.11948100  1
  C  293  1  0.80262200  0.71493200  0.15061900  1
  C  294  1  0.76781600  0.77340000  0.10210500  1
  C  296  1  0.76347000  0.72975900  0.11770800  1
  C  297  1  0.76092300  0.70776900  0.12569000  1
  C  298  1  0.74019000  0.69301300  0.11601400  1
  C  299  1  0.72574600  0.69946500  0.09645200  1
  C  300  1  0.72915200  0.72077400  0.08750100  1
  C  301  1  0.74668300  0.73638700  0.09898300  1
  C  302  1  0.78034300  0.70094400  0.14262300  1
  C  304  1  0.74910400  0.75834300  0.09155800  1
  C  313  1  0.06572600  0.12014700  0.75160500  1
  C  314  1  0.04497100  0.13606500  0.74387500  1
  C  315  1  0.02167900  0.14339600  0.75782800  1
  C  316  1  0.02145800  0.13655100  0.78003600  1
  C  317  1  0.04289200  0.12192200  0.78838600  1
  C  318  1  0.06385500  0.11250100  0.77373500  1
  C  319  1  0.04773700  0.14369700  0.72202200  1
  C  320  1  0.08260900  0.09511700  0.78040600  1
  C  322  1  0.08690500  0.11077000  0.73678300  1
  C  323  1  0.08941100  0.11876300  0.71479900  1
  C  324  1  0.11010800  0.10908500  0.70002100  1
  C  325  1  0.12460900  0.08954000  0.70645700  1
  C  326  1  0.12122000  0.08054200  0.72775400  1
  C  327  1  0.10369800  0.09203600  0.74337300  1
  C  328  1  0.06999600  0.13571400  0.70800800  1
  C  330  1  0.10131000  0.08459200  0.76532600  1
  C  339  1  0.06572900  0.88371100  0.26627600  1
  C  340  1  0.04498600  0.86778700  0.27401100  1
  C  341  1  0.02169700  0.86044800  0.26005700  1
  C  342  1  0.02147500  0.86729200  0.23785000  1
  C  343  1  0.04292500  0.88190100  0.22948200  1
  C  344  1  0.06385900  0.89134200  0.24414000  1
  C  345  1  0.04775300  0.86016600  0.29586700  1
  C  346  1  0.08259700  0.90873200  0.23746100  1
  C  348  1  0.08688800  0.89311100  0.28109600  1
  C  349  1  0.08939300  0.88513300  0.30308800  1
  C  350  1  0.11007600  0.89483300  0.31786700  1
  C  351  1  0.12452700  0.91440000  0.31142700  1
  C  352  1  0.12112600  0.92336700  0.29011700  1
  C  353  1  0.10366300  0.91184900  0.27449400  1
  C  354  1  0.06997800  0.86818800  0.30988900  1
  C  356  1  0.10126800  0.91928600  0.25254100  1
  C  365  1  0.06562500  0.74455700  0.89076400  1
  C  366  1  0.04485800  0.73684200  0.87484400  1
  C  367  1  0.02158200  0.75082700  0.86753000  1
  C  368  1  0.02138900  0.77302800  0.87437700  1
  C  369  1  0.04285700  0.78136500  0.88898200  1
  C  370  1  0.06379700  0.76669400  0.89840200  1
  C  371  1  0.04760600  0.71499300  0.86720000  1
  C  372  1  0.08257800  0.77335700  0.91577200  1
  C  374  1  0.08678600  0.72971900  0.90014100  1
  C  375  1  0.08926600  0.70773200  0.89213600  1
  C  376  1  0.10993300  0.69294900  0.90185800  1
  C  377  1  0.12450700  0.69937000  0.92136200  1
  C  378  1  0.12114200  0.72067700  0.93032400  1
  C  379  1  0.10361400  0.73631100  0.91886200  1
  C  380  1  0.06985300  0.70096500  0.87517500  1
  C  382  1  0.10125000  0.75826400  0.92630600  1
  C  391  1  0.06563500  0.25930100  0.12716900  1
  C  392  1  0.04488800  0.26699600  0.14311300  1
  C  393  1  0.02161100  0.25301000  0.15040200  1
  C  394  1  0.02139000  0.23081700  0.14351500  1
  C  395  1  0.04287100  0.22249000  0.12891300  1
  C  396  1  0.06380400  0.23717400  0.11950400  1
  C  397  1  0.04763900  0.28883900  0.15077800  1
  C  398  1  0.08256600  0.23053400  0.10211300  1
  C  400  1  0.08678800  0.27415100  0.11780100  1
  C  401  1  0.08927700  0.29612700  0.12582600  1
  C  402  1  0.10995000  0.31093700  0.11616100  1
  C  403  1  0.12439600  0.30454700  0.09657900  1
  C  404  1  0.12105000  0.28324900  0.08759200  1
  C  405  1  0.10357700  0.26758700  0.09905600  1
  C  406  1  0.06986400  0.30288100  0.14279200  1
  C  408  1  0.10122500  0.24564000  0.09158900  1
  C  417  1  0.55454800  0.63303900  0.78080900  1
  C  418  1  0.54268400  0.65145800  0.79240700  1
  C  419  1  0.52040000  0.66473500  0.78254200  1
  C  420  1  0.51362700  0.66135400  0.76019100  1
  C  421  1  0.52666700  0.64417200  0.74800300  1
  C  422  1  0.54552300  0.62886700  0.75873900  1
  C  423  1  0.55371300  0.65608300  0.81366900  1
  C  424  1  0.55636200  0.60989900  0.74799300  1
  C  426  1  0.57640700  0.61931600  0.79089100  1
  C  427  1  0.58891200  0.62545200  0.81154100  1
  C  428  1  0.61268900  0.61296300  0.82044700  1
  C  429  1  0.61971700  0.59259700  0.81077100  1
  C  430  1  0.60634400  0.58541000  0.79102200  1
  C  431  1  0.58589800  0.59959200  0.78027900  1
  C  432  1  0.57692200  0.64374300  0.82275100  1
  C  434  1  0.57494300  0.59494400  0.75899400  1
  C  443  1  0.55449400  0.37085800  0.23710600  1
  C  444  1  0.54266600  0.35243000  0.22550500  1
  C  445  1  0.52036500  0.33915600  0.23535000  1
  C  446  1  0.51352300  0.34256000  0.25768800  1
  C  447  1  0.52647200  0.35978300  0.26987600  1
  C  448  1  0.54540300  0.37504700  0.25915800  1
  C  449  1  0.55375300  0.34779000  0.20426200  1
  C  450  1  0.55622500  0.39401700  0.26991100  1
  C  452  1  0.57637400  0.38457800  0.22704400  1
  C  453  1  0.58892100  0.37844000  0.20640900  1
  C  454  1  0.61269300  0.39094000  0.19751600  1
  C  455  1  0.61969900  0.41130900  0.20719300  1
  C  456  1  0.60630400  0.41848500  0.22693900  1
  C  457  1  0.58583800  0.40430900  0.23766000  1
  C  458  1  0.57695800  0.36014300  0.19519000  1
  C  460  1  0.57484600  0.40896000  0.25893300  1
  C  469  1  0.55451400  0.23011000  0.64001700  1
  C  470  1  0.54267500  0.21850800  0.65844400  1
  C  471  1  0.52041300  0.22838000  0.67173500  1
  C  472  1  0.51364100  0.25073100  0.66836300  1
  C  473  1  0.52663800  0.26291600  0.65116500  1
  C  474  1  0.54547900  0.25218000  0.63585000  1
  C  475  1  0.55371100  0.19724400  0.66305400  1
  C  476  1  0.55630200  0.26292600  0.61687700  1
  C  478  1  0.57636500  0.22003300  0.62628300  1
  C  479  1  0.58889900  0.19939200  0.63242100  1
  C  480  1  0.61269100  0.19050800  0.61993300  1
  C  481  1  0.61968400  0.20017000  0.59955400  1
  C  482  1  0.60626000  0.21990000  0.59236500  1
  C  483  1  0.58582400  0.23064400  0.60655000  1
  C  484  1  0.57693100  0.18817700  0.65071800  1
  C  486  1  0.57483500  0.25191800  0.60189400  1
  C  495  1  0.55449000  0.77378600  0.37782200  1
  C  496  1  0.54266100  0.78539100  0.35939300  1
  C  497  1  0.52042700  0.77551500  0.34608500  1
  C  498  1  0.51366300  0.75315900  0.34944000  1
  C  499  1  0.52663400  0.74097700  0.36665500  1
  C  500  1  0.54545900  0.75171500  0.38198000  1
  C  501  1  0.55369100  0.80665800  0.35479000  1
  C  502  1  0.55626200  0.74096900  0.40095900  1
  C  504  1  0.57632300  0.78386500  0.39156800  1
  C  505  1  0.58884800  0.80451300  0.38544300  1
  C  506  1  0.61261400  0.81340800  0.39795100  1
  C  507  1  0.61961700  0.80372900  0.41831800  1
  C  508  1  0.60620200  0.78399300  0.42549400  1
  C  509  1  0.58577800  0.77324800  0.41130100  1
  C  510  1  0.57688900  0.81573200  0.36714600  1
  C  512  1  0.57479000  0.75197300  0.41594900  1
  C  521  1  0.29565000  0.37074800  0.78081400  1
  C  522  1  0.30748500  0.35233500  0.79244000  1
  C  523  1  0.32977700  0.33904400  0.78260800  1
  C  524  1  0.33659200  0.34240200  0.76025900  1
  C  525  1  0.32358100  0.35957800  0.74804400  1
  C  526  1  0.30471600  0.37489600  0.75874900  1
  C  527  1  0.29641900  0.34773600  0.81369700  1
  C  528  1  0.29391300  0.39386400  0.74798000  1
  C  530  1  0.27379200  0.38449100  0.79086800  1
  C  531  1  0.26125600  0.37838300  0.81151600  1
  C  532  1  0.23749300  0.39089900  0.82039900  1
  C  533  1  0.23050000  0.41126100  0.81070200  1
  C  534  1  0.24390200  0.41842000  0.79095300  1
  C  535  1  0.26434200  0.40421500  0.78023500  1
  C  536  1  0.27320200  0.36008900  0.82274800  1
  C  538  1  0.27533200  0.40883900  0.75895500  1
  C  547  1  0.29569400  0.63309700  0.23706000  1
  C  548  1  0.30754200  0.65151700  0.22545400  1
  C  549  1  0.32984200  0.66478900  0.23529900  1
  C  550  1  0.33667400  0.66139300  0.25764000  1
  C  551  1  0.32371200  0.64417800  0.26983200  1
  C  552  1  0.30477400  0.62891600  0.25911700  1
  C  553  1  0.29647500  0.65614300  0.20420300  1
  C  554  1  0.29394200  0.60995100  0.26987300  1
  C  556  1  0.27381200  0.61938000  0.22699800  1
  C  557  1  0.26128300  0.62551200  0.20635400  1
  C  558  1  0.23749700  0.61302000  0.19746500  1
  C  559  1  0.23047800  0.59265400  0.20714700  1
  C  560  1  0.24387100  0.58547900  0.22689400  1
  C  561  1  0.26433700  0.59965600  0.23761800  1
  C  562  1  0.27327300  0.64379400  0.19512900  1
  C  564  1  0.27531800  0.59501000  0.25889300  1
  C  573  1  0.29568500  0.77386500  0.64014600  1
  C  574  1  0.30751100  0.78549000  0.65856300  1
  C  575  1  0.32978400  0.77564100  0.67186300  1
  C  576  1  0.33659400  0.75329400  0.66850600  1
  C  577  1  0.32360800  0.74108900  0.65131600  1
  C  578  1  0.30474900  0.75179900  0.63599500  1
  C  579  1  0.29646200  0.80675300  0.66315100  1
  C  580  1  0.29394400  0.74103400  0.61702500  1
  C  582  1  0.27383000  0.78392100  0.62640100  1
  C  583  1  0.26127600  0.80455900  0.63251900  1
  C  584  1  0.23748200  0.81342400  0.62002000  1
  C  585  1  0.23050700  0.80374700  0.59964600  1
  C  586  1  0.24395300  0.78401900  0.59247200  1
  C  587  1  0.26439100  0.77329300  0.60667000  1
  C  588  1  0.27322600  0.81579400  0.65081100  1
  C  590  1  0.27540500  0.75202200  0.60203200  1
  C  599  1  0.29572700  0.23006900  0.37774100  1
  C  600  1  0.30755600  0.21845200  0.35932100  1
  C  601  1  0.32979300  0.22831900  0.34600900  1
  C  602  1  0.33657000  0.25067300  0.34935600  1
  C  603  1  0.32359900  0.26286800  0.36656100  1
  C  604  1  0.30476500  0.25214200  0.38188900  1
  C  605  1  0.29652800  0.19718400  0.35472900  1
  C  606  1  0.29396200  0.26289800  0.40086400  1
  C  608  1  0.27389000  0.21999800  0.39149100  1
  C  609  1  0.26136200  0.19934800  0.38537800  1
  C  610  1  0.23759000  0.19046200  0.39788500  1
  C  611  1  0.23059100  0.20015100  0.41824900  1
  C  612  1  0.24401300  0.21988700  0.42541800  1
  C  613  1  0.26443900  0.23062500  0.41122000  1
  C  614  1  0.27333100  0.18811800  0.36709100  1
  C  616  1  0.27543100  0.25190000  0.41585800  1
  C  625  1  0.29085800  0.38550400  0.25688800  1
  C  626  1  0.30810800  0.36757400  0.24887200  1
  C  627  1  0.33279200  0.35996100  0.26123800  1
  C  628  1  0.33756800  0.36848400  0.28255300  1
  C  629  1  0.31951500  0.38517900  0.29136400  1
  C  630  1  0.29763500  0.39497100  0.27775100  1
  C  631  1  0.30037700  0.35815000  0.22841700  1
  C  632  1  0.28255700  0.41427400  0.28422400  1
  C  634  1  0.26786200  0.39466700  0.24353800  1
  C  635  1  0.25886700  0.38391900  0.22376300  1
  C  636  1  0.23444700  0.39243800  0.21155500  1
  C  637  1  0.22387400  0.41366900  0.21676700  1
  C  638  1  0.23428300  0.42549300  0.23523000  1
  C  639  1  0.25457200  0.41503400  0.24967300  1
  C  640  1  0.27547600  0.36553000  0.21662200  1
  C  642  1  0.26246300  0.42462200  0.27003700  1
  C  651  1  0.29095600  0.61846300  0.76106800  1
  C  652  1  0.30816800  0.63640100  0.76910700  1
  C  653  1  0.33285000  0.64403900  0.75675700  1
  C  654  1  0.33766800  0.63553900  0.73544100  1
  C  655  1  0.31963500  0.61884400  0.72659700  1
  C  656  1  0.29777300  0.60901700  0.74020200  1
  C  657  1  0.30040100  0.64580800  0.78956200  1
  C  658  1  0.28274100  0.58970100  0.73371100  1
  C  660  1  0.26796900  0.60926700  0.77440100  1
  C  661  1  0.25893100  0.61999700  0.79417800  1
  C  662  1  0.23450700  0.61145000  0.80636200  1
  C  663  1  0.22398300  0.59021000  0.80113500  1
  C  664  1  0.23446700  0.57839900  0.78268500  1
  C  665  1  0.25473000  0.58888800  0.76824900  1
  C  666  1  0.27551600  0.63838600  0.80134900  1
  C  668  1  0.26266200  0.57931800  0.74788600  1
  C  677  1  0.29092700  0.75402600  0.39249100  1
  C  678  1  0.30817500  0.76205600  0.37456600  1
  C  679  1  0.33285600  0.74967500  0.36696700  1
  C  680  1  0.33761000  0.72834600  0.37543900  1
  C  681  1  0.31953900  0.71952500  0.39211700  1
  C  682  1  0.29768600  0.73314800  0.40193400  1
  C  683  1  0.30044800  0.78252100  0.36515800  1
  C  684  1  0.28261200  0.72666500  0.42123600  1
  C  686  1  0.26794000  0.76737200  0.40166600  1
  C  687  1  0.25892200  0.78714600  0.39092000  1
  C  688  1  0.23450000  0.79934400  0.39944900  1
  C  689  1  0.22395600  0.79413600  0.42069000  1
  C  690  1  0.23440700  0.77568200  0.43250900  1
  C  691  1  0.25467000  0.76123200  0.42203900  1
  C  692  1  0.27552700  0.79429700  0.37253300  1
  C  694  1  0.26257600  0.74087000  0.43162200  1
  C  703  1  0.29098200  0.24987200  0.62537700  1
  C  704  1  0.30820300  0.24182100  0.64330700  1
  C  705  1  0.33288700  0.25417800  0.65091700  1
  C  706  1  0.33775200  0.27548100  0.64241400  1
  C  707  1  0.31969500  0.28433300  0.62574300  1
  C  708  1  0.29779500  0.27074100  0.61593300  1
  C  709  1  0.30043900  0.22136500  0.65271300  1
  C  710  1  0.28273400  0.27724400  0.59663300  1
  C  712  1  0.26796700  0.23655200  0.61620100  1
  C  713  1  0.25892200  0.21678100  0.62693700  1
  C  714  1  0.23447100  0.20461300  0.61841000  1
  C  715  1  0.22391800  0.20984800  0.59717900  1
  C  716  1  0.23439400  0.22829600  0.58536700  1
  C  717  1  0.25469800  0.24271800  0.59583500  1
  C  718  1  0.27551600  0.20960600  0.64532000  1
  C  720  1  0.26264200  0.26307400  0.58625700  1
  C  729  1  0.55944100  0.61843300  0.25694100  1
  C  730  1  0.54218700  0.63636600  0.24893500  1
  C  731  1  0.51749600  0.64396800  0.26130100  1
  C  732  1  0.51272000  0.63542700  0.28261100  1
  C  733  1  0.53077500  0.61873200  0.29141500  1
  C  734  1  0.55266400  0.60895500  0.27779800  1
  C  735  1  0.54991800  0.64579500  0.22848200  1
  C  736  1  0.56774700  0.58965100  0.28426700  1
  C  738  1  0.58243500  0.60927500  0.24358600  1
  C  739  1  0.59142600  0.62002800  0.22381100  1
  C  740  1  0.61583500  0.61150700  0.21159400  1
  C  741  1  0.62641000  0.59027500  0.21680000  1
  C  742  1  0.61601000  0.57844900  0.23526600  1
  C  743  1  0.59572700  0.58890600  0.24971400  1
  C  744  1  0.57481700  0.63842000  0.21667900  1
  C  746  1  0.58784300  0.57931100  0.27007700  1
  C  755  1  0.55940800  0.38545500  0.76095800  1
  C  756  1  0.54214500  0.36752300  0.76895400  1
  C  757  1  0.51746100  0.35992600  0.75657600  1
  C  758  1  0.51271100  0.36847000  0.73526300  1
  C  759  1  0.53080400  0.38514600  0.72645400  1
  C  760  1  0.55266000  0.39492800  0.74009400  1
  C  761  1  0.54985100  0.35809400  0.78941400  1
  C  762  1  0.56774700  0.41423000  0.73363200  1
  C  764  1  0.58238200  0.39461600  0.77432900  1
  C  765  1  0.59135500  0.38386300  0.79410900  1
  C  766  1  0.61576800  0.39237600  0.80632900  1
  C  767  1  0.62634500  0.41361000  0.80113200  1
  C  768  1  0.61592100  0.42544800  0.78267900  1
  C  769  1  0.59567800  0.41498500  0.76820700  1
  C  770  1  0.57471500  0.36548700  0.80124100  1
  C  772  1  0.58781400  0.42458000  0.74784200  1
  C  781  1  0.55935300  0.24992800  0.39244300  1
  C  782  1  0.54207600  0.24190500  0.37452900  1
  C  783  1  0.51737600  0.25428500  0.36695600  1
  C  784  1  0.51262900  0.27560600  0.37545400  1
  C  785  1  0.53072400  0.28442300  0.39211900  1
  C  786  1  0.55260400  0.27080000  0.40190300  1
  C  787  1  0.54979100  0.22144100  0.36511400  1
  C  788  1  0.56770900  0.27728000  0.42119200  1
  C  790  1  0.58235300  0.23657800  0.40159700  1
  C  791  1  0.59134800  0.21680400  0.39084300  1
  C  792  1  0.61577500  0.20459600  0.39935600  1
  C  793  1  0.62635400  0.20980300  0.42058500  1
  C  794  1  0.61593000  0.22825800  0.43241300  1
  C  795  1  0.59565400  0.24271400  0.42196000  1
  C  796  1  0.57473300  0.20966700  0.37245700  1
  C  798  1  0.58776800  0.26307500  0.43155500  1
  C  807  1  0.55938100  0.75393800  0.62542300  1
  C  808  1  0.54213100  0.76193500  0.64336400  1
  C  809  1  0.51745200  0.74954500  0.65093800  1
  C  810  1  0.51265600  0.72824700  0.64238600  1
  C  811  1  0.53076200  0.71943800  0.62572400  1
  C  812  1  0.55263300  0.73307300  0.61594600  1
  C  813  1  0.54984500  0.78239100  0.65279600  1
  C  814  1  0.56772200  0.72661400  0.59664400  1
  C  816  1  0.58236400  0.76730300  0.61626700  1
  C  817  1  0.59135000  0.78707700  0.62702800  1
  C  818  1  0.61576400  0.79929800  0.61851200  1
  C  819  1  0.62633000  0.79410800  0.59727400  1
  C  820  1  0.61591000  0.77565400  0.58544300  1
  C  821  1  0.59565400  0.76118600  0.59589400  1
  C  822  1  0.57473500  0.79420000  0.64541900  1
  C  824  1  0.58777900  0.74082700  0.58629000  1
  C  833  1  0.13627400  0.02800100  0.28847600  1
  C  834  1  0.16417400  0.01791800  0.28495900  1
  C  835  1  0.16790100  0.99474700  0.28540300  1
  C  836  1  0.14282200  0.98105700  0.28945100  1
  C  837  1  0.11468200  0.99112200  0.29200500  1
  C  839  1  0.11146500  0.01410800  0.29156100  1
  C  842  1  0.19808400  0.98530800  0.28225100  1
  C  846  1  0.13469000  0.05046400  0.29304000  1
  C  848  1  0.14555800  0.95865100  0.29394400  1
  C  850  1  0.13626300  0.97589400  0.72946100  1
  C  851  1  0.16417600  0.98597600  0.73293600  1
  C  852  1  0.16789700  0.00914700  0.73247200  1
  C  853  1  0.14280900  0.02283100  0.72843800  1
  C  854  1  0.11467000  0.01275900  0.72590200  1
  C  856  1  0.11143700  0.98977700  0.72642300  1
  C  859  1  0.19808200  0.01859200  0.73559500  1
  C  863  1  0.13472100  0.95341500  0.72495100  1
  C  865  1  0.14552600  0.04523200  0.72392000  1
  C  867  1  0.13624400  0.72238500  0.03496700  1
  C  868  1  0.16417300  0.72581100  0.02488800  1
  C  869  1  0.16791200  0.72534400  0.00171800  1
  C  870  1  0.14281900  0.72138400  0.98801800  1
  C  871  1  0.11466600  0.71890200  0.99808000  1
  C  873  1  0.11141900  0.71942000  0.02106300  1
  C  876  1  0.19812300  0.72838500  0.99229000  1
  C  880  1  0.13468000  0.71777200  0.05742000  1
  C  882  1  0.14554300  0.71685600  0.96562000  1
  C  884  1  0.13614200  0.28146900  0.98292300  1
  C  885  1  0.16407400  0.27810800  0.99302100  1
  C  886  1  0.16779800  0.27862600  0.01619300  1
  C  887  1  0.14268100  0.28258300  0.02987100  1
  C  888  1  0.11452100  0.28496800  0.01979900  1
  C  890  1  0.11130500  0.28443600  0.99681600  1
  C  893  1  0.19801300  0.27564400  0.02563400  1
  C  897  1  0.13458800  0.28604000  0.96046000  1
  C  899  1  0.14537300  0.28710600  0.05227400  1
  C  901  1  0.71402000  0.97589100  0.28838700  1
  C  902  1  0.68609900  0.98600400  0.28501400  1
  C  903  1  0.68239500  0.00917600  0.28553000  1
  C  904  1  0.70752000  0.02284300  0.28950000  1
  C  905  1  0.73566700  0.01275600  0.29190500  1
  C  907  1  0.73885900  0.98977000  0.29138300  1
  C  910  1  0.65218900  0.01862900  0.28253700  1
  C  914  1  0.71556400  0.95342300  0.29294600  1
  C  916  1  0.70485400  0.04525200  0.29400700  1
  C  918  1  0.71394700  0.02799000  0.72952500  1
  C  919  1  0.68604200  0.01789100  0.73300700  1
  C  920  1  0.68231500  0.99472000  0.73251300  1
  C  921  1  0.70739600  0.98104700  0.72843300  1
  C  922  1  0.73552900  0.99111700  0.72588200  1
  C  924  1  0.73875500  0.01410100  0.72641700  1
  C  927  1  0.65213200  0.98527300  0.73564500  1
  C  931  1  0.71548400  0.05046300  0.72499600  1
  C  933  1  0.70468100  0.95864300  0.72392500  1
  C  935  1  0.71400200  0.28146800  0.03501700  1
  C  936  1  0.68610600  0.27800900  0.02490500  1
  C  937  1  0.68240800  0.27850700  0.00173200  1
  C  938  1  0.70752000  0.28254700  0.98807400  1
  C  939  1  0.73565100  0.28504300  0.99816300  1
  C  941  1  0.73884800  0.28450900  0.02114800  1
  C  944  1  0.65222900  0.27542000  0.99226500  1
  C  948  1  0.71555100  0.28600500  0.05749100  1
  C  950  1  0.70485400  0.28708100  0.96567100  1
  C  952  1  0.71407500  0.72246300  0.98285900  1
  C  953  1  0.68615300  0.72592600  0.99292800  1
  C  954  1  0.68241300  0.72550200  0.01609800  1
  C  955  1  0.70749800  0.72150100  0.02979500  1
  C  956  1  0.73564900  0.71898300  0.01974300  1
  C  958  1  0.73889900  0.71947400  0.99676000  1
  C  961  1  0.65221200  0.72861100  0.02552300  1
  C  965  1  0.71568400  0.71784500  0.96040900  1
  C  967  1  0.70476000  0.71701400  0.05220300  1
  C  969  1  0.63403900  0.53010000  0.78060200  1
  C  970  1  0.66084800  0.51908900  0.77548800  1
  C  971  1  0.66355900  0.49587300  0.77656600  1
  C  972  1  0.63848200  0.48306700  0.78283800  1
  C  973  1  0.61132900  0.49397300  0.78712100  1
  C  975  1  0.60915500  0.51702500  0.78606400  1
  C  978  1  0.69270600  0.48547800  0.77156300  1
  C  982  1  0.63402100  0.55291300  0.78339400  1
  C  984  1  0.64063800  0.46066200  0.78733200  1
  C  986  1  0.63400100  0.47378800  0.23736800  1
  C  987  1  0.66082300  0.48478600  0.24247800  1
  C  988  1  0.66355400  0.50800000  0.24139100  1
  C  989  1  0.63849100  0.52081400  0.23510100  1
  C  990  1  0.61134000  0.50991500  0.23079600  1
  C  992  1  0.60912400  0.48686800  0.23190900  1
  C  995  1  0.69270400  0.51838300  0.24640500  1
  C  999  1  0.63399000  0.45097000  0.23461100  1
  C  1001  1  0.64066300  0.54321900  0.23061100  1
  C  1003  1  0.63395700  0.23039300  0.53707300  1
  C  1004  1  0.66078100  0.23548900  0.52607000  1
  C  1005  1  0.66351600  0.23438800  0.50285600  1
  C  1006  1  0.63844700  0.22812000  0.49004100  1
  C  1007  1  0.61129400  0.22382900  0.50094000  1
  C  1009  1  0.60908400  0.22493200  0.52398600  1
  C  1012  1  0.69267900  0.23936600  0.49247500  1
  C  1016  1  0.63396100  0.22757200  0.55988100  1
  C  1018  1  0.64061800  0.22361800  0.46763700  1
  C  1020  1  0.63391200  0.77349300  0.48078000  1
  C  1021  1  0.66074300  0.76841300  0.49178200  1
  C  1022  1  0.66348800  0.76953100  0.51499500  1
  C  1023  1  0.63842000  0.77581600  0.52780900  1
  C  1024  1  0.61125400  0.78007000  0.51691400  1
  C  1026  1  0.60904200  0.77895900  0.49386900  1
  C  1029  1  0.69265500  0.76456000  0.52537100  1
  C  1033  1  0.63390800  0.77630100  0.45797000  1
  C  1035  1  0.64059000  0.78029600  0.55021700  1
  C  1037  1  0.21630800  0.47374200  0.78047300  1
  C  1038  1  0.18950800  0.48476800  0.77535200  1
  C  1039  1  0.18680000  0.50798400  0.77645900  1
  C  1040  1  0.21187200  0.52077800  0.78277300  1
  C  1041  1  0.23900800  0.50985900  0.78707500  1
  C  1043  1  0.24118000  0.48680900  0.78598000  1
  C  1046  1  0.15766000  0.51838300  0.77144400  1
  C  1050  1  0.21627800  0.45093200  0.78328200  1
  C  1052  1  0.20973000  0.54319000  0.78724400  1
  C  1054  1  0.21622800  0.53015400  0.23733000  1
  C  1055  1  0.18942500  0.51914100  0.24246900  1
  C  1056  1  0.18670300  0.49592700  0.24138700  1
  C  1057  1  0.21175600  0.48312300  0.23506000  1
  C  1058  1  0.23888800  0.49402700  0.23071300  1
  C  1060  1  0.24108700  0.51707600  0.23181200  1
  C  1063  1  0.15756900  0.48553600  0.24643800  1
  C  1067  1  0.21621600  0.55296500  0.23452700  1
  C  1069  1  0.20959500  0.46071000  0.23060200  1
  C  1071  1  0.21629600  0.77353000  0.53716800  1
  C  1072  1  0.18951000  0.76836400  0.52614800  1
  C  1073  1  0.18680200  0.76945200  0.50293100  1
  C  1074  1  0.21185900  0.77579600  0.49013900  1
  C  1075  1  0.23898600  0.78013900  0.50105500  1
  C  1077  1  0.24118200  0.77901800  0.52410200  1
  C  1080  1  0.15768100  0.76438900  0.49252900  1
  C  1084  1  0.21628600  0.77631600  0.55998300  1
  C  1086  1  0.20971400  0.78027900  0.46773100  1
  C  1088  1  0.21631500  0.23040700  0.48071500  1
  C  1089  1  0.18950600  0.23555400  0.49171000  1
  C  1090  1  0.18677900  0.23450400  0.51492800  1
  C  1091  1  0.21183300  0.22820200  0.52774300  1
  C  1092  1  0.23897700  0.22386500  0.51684900  1
  C  1094  1  0.24119100  0.22495000  0.49380200  1
  C  1097  1  0.15763800  0.23955700  0.52530500  1
  C  1101  1  0.21633700  0.22757400  0.45790900  1
  C  1103  1  0.20965600  0.22374200  0.55015600  1
  C  1105  1  0.13840400  0.12266600  0.36775300  1
  C  1106  1  0.16528500  0.11674200  0.37814900  1
  C  1107  1  0.18949700  0.13154900  0.37980000  1
  C  1108  1  0.18642200  0.15320700  0.37103300  1
  C  1109  1  0.15979600  0.15874900  0.35994800  1
  C  1111  1  0.13610400  0.14382400  0.35846300  1
  C  1114  1  0.21708200  0.12408100  0.39102900  1
  C  1118  1  0.11345700  0.10957000  0.37050000  1
  C  1120  1  0.20752300  0.16979700  0.37329600  1
  C  1122  1  0.13832100  0.88123400  0.65016300  1
  C  1123  1  0.16517400  0.88715000  0.63972100  1
  C  1124  1  0.18938400  0.87234100  0.63806400  1
  C  1125  1  0.18632500  0.85069100  0.64685600  1
  C  1126  1  0.15971300  0.84516000  0.65796600  1
  C  1128  1  0.13604500  0.86009800  0.65950500  1
  C  1131  1  0.21695000  0.87980000  0.62680300  1
  C  1135  1  0.11339400  0.89435800  0.64743300  1
  C  1137  1  0.20742900  0.83410400  0.64461100  1
  C  1139  1  0.13831900  0.64316900  0.12968300  1
  C  1140  1  0.16520500  0.63277800  0.12375000  1
  C  1141  1  0.18942600  0.63112500  0.13855100  1
  C  1142  1  0.18636000  0.63988600  0.16021100  1
  C  1143  1  0.15972200  0.65094600  0.16576700  1
  C  1145  1  0.13604600  0.65247700  0.15083300  1
  C  1148  1  0.21700800  0.61990000  0.13107400  1
  C  1152  1  0.11336800  0.64034800  0.11661000  1
  C  1154  1  0.20748400  0.63763800  0.17678700  1
  C  1156  1  0.13831300  0.36072600  0.88821500  1
  C  1157  1  0.16519200  0.37113600  0.89413300  1
  C  1158  1  0.18939100  0.37281600  0.87931400  1
  C  1159  1  0.18631100  0.36405900  0.85765400  1
  C  1160  1  0.15968800  0.35297100  0.85211500  1
  C  1162  1  0.13602100  0.35144200  0.86705500  1
  C  1165  1  0.21696600  0.38406000  0.88677800  1
  C  1169  1  0.11338300  0.36349900  0.90132200  1
  C  1171  1  0.20741600  0.36631900  0.84106600  1
  C  1173  1  0.71176600  0.88122900  0.36768400  1
  C  1174  1  0.68489300  0.88713500  0.37811000  1
  C  1175  1  0.66070800  0.87230800  0.37981000  1
  C  1176  1  0.66379400  0.85064600  0.37105600  1
  C  1177  1  0.69040500  0.84511700  0.35994900  1
  C  1179  1  0.71406400  0.86006400  0.35841000  1
  C  1182  1  0.63314700  0.87976000  0.39108100  1
  C  1186  1  0.73669000  0.89434500  0.37044400  1
  C  1188  1  0.64273200  0.83403500  0.37336200  1
  C  1190  1  0.71176600  0.12264000  0.65021800  1
  C  1191  1  0.68490800  0.11675500  0.63975800  1
  C  1192  1  0.66073200  0.13158900  0.63805700  1
  C  1193  1  0.66381800  0.15324200  0.64683000  1
  C  1194  1  0.69042300  0.15875500  0.65795600  1
  C  1196  1  0.71406000  0.14379300  0.65952000  1
  C  1199  1  0.63318000  0.12415100  0.62676500  1
  C  1203  1  0.73668300  0.10951200  0.64747400  1
  C  1205  1  0.64277200  0.16986200  0.64452900  1
  C  1207  1  0.71180800  0.36074700  0.12966000  1
  C  1208  1  0.68493900  0.37118100  0.12376900  1
  C  1209  1  0.66075500  0.37285000  0.13859900  1
  C  1210  1  0.66384000  0.36405000  0.16024300  1
  C  1211  1  0.69045000  0.35292500  0.16574800  1
  C  1213  1  0.71410200  0.35139700  0.15079300  1
  C  1216  1  0.63319600  0.38413600  0.13116900  1
  C  1220  1  0.73675600  0.36352700  0.11657300  1
  C  1222  1  0.64281200  0.36635500  0.17687400  1
  C  1224  1  0.71186400  0.64310000  0.88821900  1
  C  1225  1  0.68498400  0.63271000  0.89415700  1
  C  1226  1  0.66075500  0.63107000  0.87936400  1
  C  1227  1  0.66382000  0.63982300  0.85770000  1
  C  1228  1  0.69046100  0.65087700  0.85213600  1
  C  1230  1  0.71414600  0.65240300  0.86706500  1
  C  1233  1  0.63316000  0.61986400  0.88684900  1
  C  1237  1  0.73681800  0.64035300  0.90130700  1
  C  1239  1  0.64268100  0.63759000  0.84113300  1
  C  1241  1  0.70237100  0.86791800  0.66466600  1
  C  1242  1  0.67701100  0.87360700  0.65222300  1
  C  1243  1  0.65443700  0.85811300  0.64719100  1
  C  1244  1  0.65764000  0.83591000  0.65447200  1
  C  1245  1  0.68253700  0.83058300  0.66772300  1
  C  1247  1  0.70466500  0.84619100  0.67255700  1
  C  1250  1  0.62857000  0.86542200  0.63381900  1
  C  1254  1  0.72755400  0.88098400  0.66330800  1
  C  1256  1  0.63856400  0.81871000  0.64859300  1
  C  1258  1  0.70245100  0.13602200  0.35324900  1
  C  1259  1  0.67714600  0.13031400  0.36575300  1
  C  1260  1  0.65454100  0.14579000  0.37076600  1
  C  1261  1  0.65767300  0.16797900  0.36342500  1
  C  1262  1  0.68253500  0.17331000  0.35013700  1
  C  1264  1  0.70466100  0.15771200  0.34526400  1
  C  1267  1  0.62871900  0.13847500  0.38418200  1
  C  1271  1  0.72761900  0.12293300  0.35462600  1
  C  1273  1  0.63855300  0.18516400  0.36926600  1
  C  1275  1  0.70253500  0.34620200  0.87483400  1
  C  1276  1  0.67724200  0.35872200  0.88055400  1
  C  1277  1  0.65461200  0.36376800  0.86510800  1
  C  1278  1  0.65766700  0.35641700  0.84291800  1
  C  1279  1  0.68249000  0.34310800  0.83756000  1
  C  1281  1  0.70463600  0.33821000  0.85313500  1
  C  1284  1  0.62884500  0.37722700  0.87245300  1
  C  1288  1  0.72776300  0.34762300  0.88783900  1
  C  1290  1  0.63851300  0.36227500  0.82575600  1
  C  1292  1  0.70243100  0.65772100  0.14295300  1
  C  1293  1  0.67708200  0.64523900  0.13727700  1
  C  1294  1  0.65452800  0.64017200  0.15277700  1
  C  1295  1  0.65771800  0.64746100  0.17497600  1
  C  1296  1  0.68258300  0.66074400  0.18029500  1
  C  1298  1  0.70467400  0.66563000  0.16467500  1
  C  1301  1  0.62869900  0.62675700  0.14547300  1
  C  1305  1  0.72757200  0.65632800  0.12985100  1
  C  1307  1  0.63863500  0.64158300  0.19217400  1
  C  1309  1  0.14781000  0.13601000  0.66468700  1
  C  1310  1  0.17312100  0.13033200  0.65216500  1
  C  1311  1  0.19567100  0.14582700  0.64707300  1
  C  1312  1  0.19251800  0.16802400  0.65437900  1
  C  1313  1  0.16769000  0.17334400  0.66770000  1
  C  1315  1  0.14559600  0.15773100  0.67260000  1
  C  1318  1  0.22145100  0.13852100  0.63360700  1
  C  1322  1  0.12265500  0.12291900  0.66332200  1
  C  1324  1  0.21156900  0.18522700  0.64846600  1
  C  1326  1  0.14781100  0.86792200  0.35319500  1
  C  1327  1  0.17311000  0.87360100  0.36572900  1
  C  1328  1  0.19568500  0.85811800  0.37080100  1
  C  1329  1  0.19255100  0.83592500  0.36348200  1
  C  1330  1  0.16772100  0.83059900  0.35016500  1
  C  1332  1  0.14562500  0.84620700  0.34525400  1
  C  1335  1  0.22146500  0.86543300  0.38426100  1
  C  1339  1  0.12264500  0.88100000  0.35456300  1
  C  1341  1  0.21161600  0.81872500  0.36937800  1
  C  1343  1  0.14773600  0.65766100  0.87488900  1
  C  1344  1  0.17301800  0.64513600  0.88059600  1
  C  1345  1  0.19561300  0.64007500  0.86512600  1
  C  1346  1  0.19251400  0.64741700  0.84293600  1
  C  1347  1  0.16769700  0.66074400  0.83759900  1
  C  1349  1  0.14558500  0.66566400  0.85319400  1
  C  1352  1  0.22137800  0.62660400  0.87244800  1
  C  1356  1  0.12247500  0.65629100  0.88786800  1
  C  1358  1  0.21156900  0.64150100  0.82573800  1
  C  1360  1  0.14771000  0.34627700  0.14304400  1
  C  1361  1  0.17305200  0.35872600  0.13731500  1
  C  1362  1  0.19567100  0.36375500  0.15277500  1
  C  1363  1  0.19251400  0.35649400  0.17498700  1
  C  1364  1  0.16761400  0.34326600  0.18035900  1
  C  1366  1  0.14548100  0.33837500  0.16477100  1
  C  1369  1  0.22153100  0.37711000  0.14542200  1
  C  1373  1  0.12249000  0.34762900  0.13001900  1
  C  1375  1  0.21166800  0.36234600  0.19214900  1
  C  1377  1  0.04991200  0.16598300  0.19747300  1
  C  1378  1  0.07492300  0.17221900  0.18491000  1
  C  1379  1  0.07244800  0.17826800  0.16247800  1
  C  1380  1  0.04382300  0.17863700  0.15258100  1
  C  1381  1  0.01880200  0.17235600  0.16509800  1
  C  1383  1  0.02176000  0.16627500  0.18728400  1
  C  1386  1  0.09971600  0.18395900  0.14988900  1
  C  1390  1  0.05274700  0.16241600  0.21987500  1
  C  1392  1  0.03962400  0.18304100  0.13040700  1
  C  1394  1  0.04989200  0.83792100  0.82043200  1
  C  1395  1  0.07490600  0.83169800  0.83300100  1
  C  1396  1  0.07242000  0.82562600  0.85542600  1
  C  1397  1  0.04378700  0.82522300  0.86530800  1
  C  1398  1  0.01876600  0.83148800  0.85278400  1
  C  1400  1  0.02173300  0.83760100  0.83060800  1
  C  1403  1  0.09968600  0.81995000  0.86802400  1
  C  1407  1  0.05277600  0.84154600  0.79804000  1
  C  1409  1  0.03957900  0.82081400  0.88748000  1
  C  1411  1  0.04997500  0.81340900  0.17287600  1
  C  1412  1  0.07496500  0.82602400  0.17906400  1
  C  1413  1  0.07242800  0.84844200  0.18514500  1
  C  1414  1  0.04376400  0.85827300  0.18560800  1
  C  1415  1  0.01876200  0.84570400  0.17939500  1
  C  1417  1  0.02178300  0.82353200  0.17327200  1
  C  1420  1  0.09967300  0.86108800  0.19077100  1
  C  1424  1  0.05290500  0.79101700  0.16928700  1
  C  1426  1  0.03949400  0.88043300  0.19004200  1
  C  1428  1  0.04993400  0.19043700  0.84494400  1
  C  1429  1  0.07493400  0.17784400  0.83873700  1
  C  1430  1  0.07242900  0.15541700  0.83267800  1
  C  1431  1  0.04378300  0.14555400  0.83226900  1
  C  1432  1  0.01876700  0.15810700  0.83848400  1
  C  1434  1  0.02175900  0.18028600  0.84458200  1
  C  1437  1  0.09968700  0.14279700  0.82702700  1
  C  1441  1  0.05282800  0.21283400  0.84851000  1
  C  1443  1  0.03955100  0.12339100  0.82783300  1
  C  1445  1  0.80047500  0.83786600  0.19749600  1
  C  1446  1  0.77548200  0.83165700  0.18489500  1
  C  1447  1  0.77800000  0.82559600  0.16246900  1
  C  1448  1  0.80665300  0.82518700  0.15261500  1
  C  1449  1  0.83166300  0.83139900  0.16517700  1
  C  1451  1  0.82865700  0.83749500  0.18735500  1
  C  1454  1  0.75075000  0.81995400  0.14983900  1
  C  1458  1  0.79756600  0.84145100  0.21989000  1
  C  1460  1  0.81089400  0.82077400  0.13044800  1
  C  1462  1  0.80038100  0.16601100  0.82041400  1
  C  1463  1  0.77537800  0.17226400  0.83298300  1
  C  1464  1  0.77786500  0.17833700  0.85540600  1
  C  1465  1  0.80650000  0.17872200  0.86528900  1
  C  1466  1  0.83151600  0.17245300  0.85276500  1
  C  1468  1  0.82854100  0.16634000  0.83058800  1
  C  1471  1  0.75060300  0.18403000  0.86800400  1
  C  1475  1  0.79750400  0.16240100  0.79802000  1
  C  1477  1  0.81071200  0.18313500  0.88745900  1
  C  1479  1  0.80041700  0.19057200  0.17302200  1
  C  1480  1  0.77542500  0.17794400  0.17917500  1
  C  1481  1  0.77796700  0.15552300  0.18524300  1
  C  1482  1  0.80663900  0.14570300  0.18571500  1
  C  1483  1  0.83164300  0.15828500  0.17953100  1
  C  1485  1  0.82861500  0.18045900  0.17342000  1
  C  1488  1  0.75072500  0.14286200  0.19084200  1
  C  1492  1  0.79748900  0.21296400  0.16941500  1
  C  1494  1  0.81091900  0.12354400  0.19015100  1
  C  1496  1  0.80038100  0.81338300  0.84485700  1
  C  1497  1  0.77536500  0.82595800  0.83865200  1
  C  1498  1  0.77784000  0.84839100  0.83261200  1
  C  1499  1  0.80647300  0.85827700  0.83222300  1
  C  1500  1  0.83150100  0.84574800  0.83846300  1
  C  1502  1  0.82853700  0.82356400  0.84454600  1
  C  1505  1  0.75057000  0.86099300  0.82695600  1
  C  1509  1  0.79754400  0.79097900  0.84841100  1
  C  1511  1  0.81068100  0.88044900  0.82781200  1
  C  1513  1  0.53646600  0.66136700  0.69195800  1
  C  1514  1  0.56089700  0.66580700  0.67804700  1
  C  1515  1  0.55711400  0.67234500  0.65585900  1
  C  1516  1  0.52780700  0.67495000  0.64752900  1
  C  1517  1  0.50334500  0.67030400  0.66130800  1
  C  1519  1  0.50759100  0.66378300  0.68326100  1
  C  1522  1  0.58375000  0.67629700  0.64192400  1
  C  1526  1  0.54113300  0.65766100  0.71420700  1
  C  1528  1  0.52210800  0.68050700  0.62578000  1
  C  1530  1  0.53639900  0.34257500  0.32590800  1
  C  1531  1  0.56083200  0.33814400  0.33982200  1
  C  1532  1  0.55704500  0.33156900  0.36200000  1
  C  1533  1  0.52773600  0.32891600  0.37031400  1
  C  1534  1  0.50327400  0.33354100  0.35652700  1
  C  1536  1  0.50752500  0.34011500  0.33458900  1
  C  1539  1  0.58367500  0.32763200  0.37594400  1
  C  1543  1  0.54111100  0.34636900  0.30367400  1
  C  1545  1  0.52203500  0.32335100  0.39205800  1
  C  1547  1  0.53640100  0.31897800  0.66830400  1
  C  1548  1  0.56083000  0.33290100  0.67272500  1
  C  1549  1  0.55704300  0.35508100  0.67928700  1
  C  1550  1  0.52773600  0.36339200  0.68194800  1
  C  1551  1  0.50327600  0.34959800  0.67734000  1
  C  1553  1  0.50752900  0.32765800  0.67077400  1
  C  1556  1  0.58367500  0.36902800  0.68321100  1
  C  1560  1  0.54109500  0.29673200  0.66461200  1
  C  1562  1  0.52202800  0.38512900  0.68754000  1
  C  1564  1  0.53641500  0.68491200  0.34953700  1
  C  1565  1  0.56084100  0.67098300  0.34512600  1
  C  1566  1  0.55705200  0.64880000  0.33857400  1
  C  1567  1  0.52774100  0.64048900  0.33592600  1
  C  1568  1  0.50328300  0.65429300  0.34050900  1
  C  1570  1  0.50754000  0.67624000  0.34705200  1
  C  1573  1  0.58368100  0.63485000  0.33465800  1
  C  1577  1  0.54112400  0.70715600  0.35323900  1
  C  1579  1  0.52203700  0.61875200  0.33033600  1
  C  1581  1  0.31391100  0.34241700  0.69198200  1
  C  1582  1  0.28951400  0.33801000  0.67802600  1
  C  1583  1  0.29335100  0.33146200  0.65584400  1
  C  1584  1  0.32267800  0.32881800  0.64756600  1
  C  1585  1  0.34710700  0.33339300  0.66140000  1
  C  1587  1  0.34280600  0.33992700  0.68334300  1
  C  1590  1  0.26675100  0.32755400  0.64185900  1
  C  1594  1  0.30915700  0.34613100  0.71422000  1
  C  1596  1  0.32843100  0.32325400  0.62582900  1
  C  1598  1  0.31383600  0.66138300  0.32587000  1
  C  1599  1  0.28941200  0.66583900  0.33978700  1
  C  1600  1  0.29320300  0.67240900  0.36196600  1
  C  1601  1  0.32251200  0.67503700  0.37028100  1
  C  1602  1  0.34697000  0.67041200  0.35649100  1
  C  1604  1  0.34271000  0.66384900  0.33455200  1
  C  1607  1  0.26657300  0.67635800  0.37590900  1
  C  1611  1  0.30912900  0.65761700  0.30363300  1
  C  1613  1  0.32822200  0.68059500  0.39202900  1
  C  1615  1  0.31390900  0.68502400  0.66846700  1
  C  1616  1  0.28952000  0.67104900  0.67284200  1
  C  1617  1  0.29337400  0.64887600  0.67940400  1
  C  1618  1  0.32270500  0.64062400  0.68210100  1
  C  1619  1  0.34712700  0.65446900  0.67753400  1
  C  1621  1  0.34281200  0.67640100  0.67096500  1
  C  1624  1  0.26678400  0.63487100  0.68328500  1
  C  1628  1  0.30915100  0.70725600  0.66472000  1
  C  1630  1  0.32847900  0.61889500  0.68769100  1
  C  1632  1  0.31384700  0.31893300  0.34940500  1
  C  1633  1  0.28941800  0.33285800  0.34499600  1
  C  1634  1  0.29320700  0.35505000  0.33847300  1
  C  1635  1  0.32251600  0.36336900  0.33585000  1
  C  1636  1  0.34697600  0.34957300  0.34045400  1
  C  1638  1  0.34272400  0.32762000  0.34698000  1
  C  1641  1  0.26657800  0.36900000  0.33455600  1
  C  1645  1  0.30917100  0.29668400  0.35309800  1
  C  1647  1  0.32822400  0.38511400  0.33029000  1
  C  1649  1  0.95785900  0.18040800  0.28874400  1
  C  1650  1  0.93682700  0.16936100  0.30187100  1
  C  1651  1  0.90807000  0.16408500  0.29394100  1
  C  1652  1  0.89995500  0.17019100  0.27197000  1
  C  1653  1  0.92150000  0.18136500  0.25906700  1
  C  1655  1  0.94967800  0.18670700  0.26733300  1
  C  1658  1  0.88728600  0.15311200  0.30950900  1
  C  1662  1  0.98372400  0.18830100  0.29812000  1
  C  1664  1  0.87263800  0.16576100  0.26168200  1
  C  1666  1  0.95780600  0.82353400  0.72923400  1
  C  1667  1  0.93684000  0.83469600  0.71614600  1
  C  1668  1  0.90811000  0.84002300  0.72410100  1
  C  1669  1  0.89996000  0.83384300  0.74604600  1
  C  1670  1  0.92144500  0.82254400  0.75889700  1
  C  1672  1  0.94960500  0.81717600  0.75061800  1
  C  1675  1  0.88740800  0.85115800  0.70858700  1
  C  1679  1  0.98364600  0.81564400  0.71981500  1
  C  1681  1  0.87268300  0.83834100  0.75637100  1
  C  1683  1  0.95788800  0.72216700  0.18731100  1
  C  1684  1  0.93681400  0.70900600  0.17633800  1
  C  1685  1  0.90804600  0.71692500  0.17107300  1
  C  1686  1  0.89996200  0.73892300  0.17710200  1
  C  1687  1  0.92153100  0.75185500  0.18821000  1
  C  1689  1  0.94971800  0.74359800  0.19354100  1
  C  1692  1  0.88721100  0.70131700  0.16020700  1
  C  1696  1  0.98372400  0.71276800  0.19522600  1
  C  1698  1  0.87263600  0.74919500  0.17267600  1
  C  1700  1  0.95790800  0.28167700  0.83052400  1
  C  1701  1  0.93688700  0.29480100  0.84159200  1
  C  1702  1  0.90813900  0.28686700  0.84689600  1
  C  1703  1  0.90002200  0.26489100  0.84080900  1
  C  1704  1  0.92153800  0.25200400  0.82959100  1
  C  1706  1  0.94970500  0.26027300  0.82422600  1
  C  1709  1  0.88737700  0.30243600  0.85789600  1
  C  1713  1  0.98373500  0.29108600  0.82260300  1
  C  1715  1  0.87272700  0.25458700  0.84529100  1
  C  1717  1  0.89240200  0.82353700  0.28870700  1
  C  1718  1  0.91333000  0.83482900  0.30172200  1
  C  1719  1  0.94203800  0.84017600  0.29373700  1
  C  1720  1  0.95022200  0.83387900  0.27183200  1
  C  1721  1  0.92879400  0.82243200  0.25905900  1
  C  1723  1  0.90066100  0.81704400  0.26737600  1
  C  1726  1  0.96268000  0.85146700  0.30918400  1
  C  1730  1  0.86660000  0.81564000  0.29816900  1
  C  1732  1  0.97745700  0.83841000  0.26146200  1
  C  1734  1  0.89238400  0.18031600  0.72920900  1
  C  1735  1  0.91333000  0.16906500  0.71617500  1
  C  1736  1  0.94204500  0.16372000  0.72415200  1
  C  1737  1  0.95021900  0.16998900  0.74606700  1
  C  1738  1  0.92877700  0.18139500  0.75885900  1
  C  1740  1  0.90063400  0.18677500  0.75055500  1
  C  1743  1  0.96270200  0.15247700  0.70868400  1
  C  1747  1  0.86657600  0.18821500  0.71975900  1
  C  1749  1  0.97746600  0.16545800  0.75642500  1
  C  1751  1  0.89231300  0.28177700  0.18738100  1
  C  1752  1  0.91313900  0.29466800  0.17585400  1
  C  1753  1  0.94178700  0.28661200  0.17043500  1
  C  1754  1  0.95001300  0.26476600  0.17691300  1
  C  1755  1  0.92867700  0.25212500  0.18860000  1
  C  1757  1  0.90059400  0.26050000  0.19403600  1
  C  1760  1  0.96228700  0.30191600  0.15881100  1
  C  1764  1  0.86653800  0.29127800  0.19527300  1
  C  1766  1  0.97714800  0.25429000  0.17226400  1
  C  1768  1  0.89237100  0.72214000  0.83049300  1
  C  1769  1  0.91329200  0.70912600  0.84178500  1
  C  1770  1  0.94198300  0.71712800  0.84716600  1
  C  1771  1  0.95015100  0.73904400  0.84089500  1
  C  1772  1  0.92871900  0.75181300  0.82944700  1
  C  1774  1  0.90059700  0.74349100  0.82403700  1
  C  1777  1  0.96261600  0.70168400  0.85847000  1
  C  1781  1  0.86656400  0.71270000  0.82257300  1
  C  1783  1  0.97736100  0.74943700  0.84546600  1
  C  1785  1  0.45769300  0.68536400  0.78652400  1
  C  1786  1  0.43755500  0.67330900  0.79954500  1
  C  1787  1  0.40855800  0.66809400  0.79203900  1
  C  1788  1  0.39937900  0.67521700  0.77061000  1
  C  1789  1  0.41977700  0.68784800  0.75804300  1
  C  1791  1  0.44813200  0.69318000  0.76594300  1
  C  1794  1  0.38879500  0.65570900  0.80730300  1
  C  1798  1  0.48465500  0.69208600  0.79508600  1
  C  1800  1  0.37245900  0.66984700  0.76023100  1
  C  1802  1  0.45769800  0.31851500  0.23141100  1
  C  1803  1  0.43769700  0.33082200  0.21851000  1
  C  1804  1  0.40875600  0.33613500  0.22607000  1
  C  1805  1  0.39949600  0.32885000  0.24743100  1
  C  1806  1  0.41976600  0.31597100  0.25986300  1
  C  1808  1  0.44806800  0.31055800  0.25191500  1
  C  1811  1  0.38916500  0.34883100  0.21094100  1
  C  1815  1  0.48463800  0.31179900  0.22280700  1
  C  1817  1  0.37268900  0.33434900  0.25791100  1
  C  1819  1  0.45768900  0.22437500  0.69231300  1
  C  1820  1  0.43755900  0.21136900  0.68022800  1
  C  1821  1  0.40856700  0.21888200  0.67500400  1
  C  1822  1  0.39938300  0.24030300  0.68214600  1
  C  1823  1  0.41976100  0.25284900  0.69481300  1
  C  1825  1  0.44810500  0.24493600  0.70016000  1
  C  1828  1  0.38882200  0.20363400  0.66258400  1
  C  1832  1  0.48463300  0.21578300  0.69903600  1
  C  1834  1  0.37248500  0.25069900  0.67675400  1
  C  1836  1  0.45767100  0.77949600  0.32553800  1
  C  1837  1  0.43755700  0.79247800  0.33765800  1
  C  1838  1  0.40858300  0.78494500  0.34291200  1
  C  1839  1  0.39941000  0.76351900  0.33577600  1
  C  1840  1  0.41976300  0.75100900  0.32304600  1
  C  1842  1  0.44808800  0.75894000  0.31767700  1
  C  1845  1  0.38885900  0.80017000  0.35537900  1
  C  1849  1  0.48460400  0.78810000  0.31880300  1
  C  1851  1  0.37253600  0.75309500  0.34119700  1
  C  1853  1  0.39246200  0.31850100  0.78652600  1
  C  1854  1  0.41239400  0.33098200  0.79931600  1
  C  1855  1  0.44128600  0.33635700  0.79169700  1
  C  1856  1  0.45057200  0.32894900  0.77038700  1
  C  1857  1  0.43040500  0.31585900  0.75808500  1
  C  1859  1  0.40214700  0.31040600  0.76608900  1
  C  1862  1  0.46077200  0.34928400  0.80670900  1
  C  1866  1  0.36556800  0.31175900  0.79518200  1
  C  1868  1  0.47730100  0.33450300  0.75982600  1
  C  1870  1  0.39251500  0.68538400  0.23139400  1
  C  1871  1  0.41247800  0.67297300  0.21856100  1
  C  1872  1  0.44138800  0.66762300  0.22615900  1
  C  1873  1  0.45066800  0.67499300  0.24748400  1
  C  1874  1  0.43045800  0.68800200  0.25983500  1
  C  1876  1  0.40218500  0.69343600  0.25185100  1
  C  1879  1  0.46091400  0.65478200  0.21110600  1
  C  1883  1  0.36560400  0.69211700  0.22275800  1
  C  1885  1  0.47741700  0.66944500  0.25802300  1
  C  1887  1  0.39247500  0.77958700  0.69239200  1
  C  1888  1  0.41237400  0.79232300  0.67983000  1
  C  1889  1  0.44124800  0.78467200  0.67444200  1
  C  1890  1  0.45054800  0.76339000  0.68192700  1
  C  1891  1  0.43039800  0.75114200  0.69508700  1
  C  1893  1  0.40216100  0.75917800  0.70055300  1
  C  1896  1  0.46068800  0.79962100  0.66140600  1
  C  1900  1  0.36558400  0.78825300  0.69912700  1
  C  1902  1  0.47722200  0.75277100  0.67633000  1
  C  1904  1  0.39254000  0.22434700  0.32548700  1
  C  1905  1  0.41256000  0.21147200  0.33780100  1
  C  1906  1  0.44148600  0.21906100  0.34311800  1
  C  1907  1  0.45071200  0.24042700  0.33582700  1
  C  1908  1  0.43044000  0.25282400  0.32291500  1
  C  1910  1  0.40215600  0.24484400  0.31750100  1
  C  1913  1  0.46109000  0.20395500  0.35583100  1
  C  1917  1  0.36562400  0.21572200  0.31874600  1
  C  1919  1  0.47749200  0.25094600  0.34132700  1
  N  23  1  0.03780900  0.14760500  0.23025000  1
  N  24  1  0.00971700  0.17967100  0.29703800  1
  N  25  1  0.11030800  0.06146200  0.29174400  1
  N  26  1  0.09610700  0.10172000  0.35567800  1
  N  49  1  0.03773900  0.85631200  0.78768000  1
  N  50  1  0.00964100  0.82427100  0.72088400  1
  N  51  1  0.11030900  0.94244300  0.72617300  1
  N  52  1  0.09606800  0.90221800  0.66226600  1
  N  75  1  0.03788800  0.78062300  0.15453500  1
  N  76  1  0.00973800  0.71385000  0.18663500  1
  N  77  1  0.11028800  0.71906700  0.06840600  1
  N  78  1  0.09599100  0.65512500  0.10871000  1
  N  101  1  0.03785000  0.22322900  0.86328500  1
  N  102  1  0.00974900  0.29001000  0.83119600  1
  N  103  1  0.11019300  0.28476200  0.94947400  1
  N  104  1  0.09602800  0.34869200  0.90919500  1
  N  127  1  0.81252900  0.85624100  0.23027300  1
  N  128  1  0.84059200  0.82424600  0.29711200  1
  N  129  1  0.73993700  0.94241300  0.29166600  1
  N  130  1  0.75405300  0.90219500  0.35563000  1
  N  153  1  0.81249800  0.14761500  0.78765700  1
  N  154  1  0.84056900  0.17960700  0.72082100  1
  N  155  1  0.73987300  0.06145800  0.72623400  1
  N  156  1  0.75402800  0.10165800  0.66229800  1
  N  179  1  0.81250900  0.22336000  0.15466700  1
  N  180  1  0.84052300  0.29022200  0.18667600  1
  N  181  1  0.73995100  0.28474600  0.06847100  1
  N  182  1  0.75413300  0.34873600  0.10869700  1
  N  205  1  0.81248900  0.78058700  0.86320700  1
  N  206  1  0.84054500  0.71377100  0.83115900  1
  N  207  1  0.74006800  0.71911600  0.94941000  1
  N  208  1  0.75417500  0.65517100  0.90915200  1
  N  231  1  0.81047900  0.88963000  0.80875200  1
  N  232  1  0.85341800  0.85216600  0.74914400  1
  N  233  1  0.72357200  0.94465700  0.73133200  1
  N  234  1  0.74182500  0.89119000  0.67849400  1
  N  257  1  0.81068600  0.11437600  0.20921600  1
  N  258  1  0.85348500  0.15181900  0.26884500  1
  N  259  1  0.72378700  0.05922900  0.28663900  1
  N  260  1  0.74188700  0.11271100  0.33944900  1
  N  283  1  0.81053500  0.20219500  0.89663800  1
  N  284  1  0.85351800  0.26180200  0.85916600  1
  N  285  1  0.72376300  0.27969600  0.95168400  1
  N  286  1  0.74204700  0.33248400  0.89810800  1
  N  309  1  0.81069900  0.80171700  0.12126200  1
  N  310  1  0.85356000  0.74206600  0.15866000  1
  N  311  1  0.72369200  0.72438000  0.06618300  1
  N  312  1  0.74184700  0.67149800  0.11962500  1
  N  335  1  0.03974900  0.11422800  0.80876500  1
  N  336  1  0.99682500  0.15172300  0.74916700  1
  N  337  1  0.12665200  0.05922500  0.73133900  1
  N  338  1  0.10840000  0.11269900  0.67850900  1
  N  361  1  0.03971600  0.88959700  0.20910900  1
  N  362  1  0.99684300  0.85212600  0.26872300  1
  N  363  1  0.12663700  0.94467800  0.28655000  1
  N  364  1  0.10838100  0.89121800  0.33938000  1
  N  387  1  0.03976400  0.80175400  0.89665900  1
  N  388  1  0.99676800  0.74214300  0.85914900  1
  N  389  1  0.12666500  0.72428300  0.95163200  1
  N  390  1  0.10820200  0.67145700  0.89810600  1
  N  413  1  0.03979400  0.20210100  0.12122800  1
  N  414  1  0.99678300  0.26166900  0.15880700  1
  N  415  1  0.12649100  0.27969000  0.06626500  1
  N  416  1  0.10822000  0.33244200  0.11981200  1
  N  439  1  0.52407600  0.64555000  0.72619600  1
  N  440  1  0.50985400  0.68236900  0.79298400  1
  N  441  1  0.61010700  0.56444000  0.78487400  1
  N  442  1  0.63027400  0.61896900  0.83705600  1
  N  465  1  0.52389400  0.35835200  0.29167900  1
  N  466  1  0.50983600  0.32152000  0.22489900  1
  N  467  1  0.61006500  0.43946100  0.23306700  1
  N  468  1  0.63030300  0.38494700  0.18091800  1
  N  491  1  0.52402300  0.28472100  0.65253200  1
  N  492  1  0.50984500  0.21790000  0.68934100  1
  N  493  1  0.61004200  0.22606700  0.57140000  1
  N  494  1  0.63028100  0.17389800  0.62592900  1
  N  517  1  0.52401800  0.71917200  0.36529000  1
  N  518  1  0.50982700  0.78599000  0.32848500  1
  N  519  1  0.60998500  0.77781900  0.44645700  1
  N  520  1  0.63023000  0.83000400  0.39195800  1
  N  543  1  0.32623400  0.35819600  0.72624400  1
  N  544  1  0.34034300  0.32144100  0.79309600  1
  N  545  1  0.24017500  0.43938800  0.78478600  1
  N  546  1  0.21988100  0.38492000  0.83700400  1
  N  569  1  0.32629900  0.64560300  0.29163500  1
  N  570  1  0.34039200  0.68241400  0.22483900  1
  N  571  1  0.24011900  0.56450300  0.23303100  1
  N  572  1  0.21990700  0.61902000  0.18085500  1
  N  595  1  0.32626600  0.71928700  0.65269500  1
  N  596  1  0.34035700  0.78615600  0.68944800  1
  N  597  1  0.24019700  0.77784500  0.57150700  1
  N  598  1  0.21988300  0.83003700  0.62600300  1
  N  621  1  0.32622800  0.28467300  0.36518900  1
  N  622  1  0.34039400  0.21783100  0.32841600  1
  N  623  1  0.24025200  0.22605700  0.44638500  1
  N  624  1  0.21998600  0.17385700  0.39190000  1
  N  647  1  0.32626300  0.39362600  0.31096000  1
  N  648  1  0.35558800  0.34998400  0.25144600  1
  N  649  1  0.22885400  0.44696200  0.23793700  1
  N  650  1  0.21987200  0.38241500  0.19517200  1
  N  673  1  0.32648500  0.61039500  0.70702400  1
  N  674  1  0.35565900  0.65397900  0.76655500  1
  N  675  1  0.22903600  0.55693100  0.77996700  1
  N  676  1  0.21987400  0.62145300  0.82272600  1
  N  699  1  0.32627200  0.69992100  0.40054600  1
  N  700  1  0.35561700  0.75949100  0.35696600  1
  N  701  1  0.22898700  0.77297200  0.45398100  1
  N  702  1  0.21989700  0.81571500  0.38943300  1
  N  725  1  0.32647600  0.30392600  0.61731100  1
  N  726  1  0.35568100  0.24437700  0.66088800  1
  N  727  1  0.22894800  0.23103400  0.56390200  1
  N  728  1  0.21985600  0.18824200  0.62841400  1
  N  751  1  0.52401200  0.61026200  0.31099800  1
  N  752  1  0.49470000  0.65394600  0.25149700  1
  N  753  1  0.62144300  0.55698200  0.23797300  1
  N  754  1  0.63040000  0.62152300  0.19520500  1
  N  777  1  0.52401800  0.39361700  0.70687800  1
  N  778  1  0.49465800  0.34995000  0.76637400  1
  N  779  1  0.62141600  0.44690600  0.77995900  1
  N  780  1  0.63033800  0.38235000  0.82271200  1
  N  803  1  0.52399400  0.30401900  0.40056600  1
  N  804  1  0.49463800  0.24446100  0.35692800  1
  N  805  1  0.62140700  0.23099100  0.45387400  1
  N  806  1  0.63034700  0.18821400  0.38933300  1
  N  829  1  0.52404900  0.69983900  0.61727000  1
  N  830  1  0.49467600  0.75935300  0.66095700  1
  N  831  1  0.62134500  0.77295600  0.56397300  1
  N  832  1  0.63032500  0.81568700  0.62853300  1
