# generated using pymatgen
data_H9C12(N3O)2
_symmetry_space_group_name_H-M   'P 1'
_cell_length_a   22.49800000
_cell_length_b   61.15620000
_cell_length_c   61.15620000
_cell_angle_alpha   90.00000000
_cell_angle_beta   90.00000000
_cell_angle_gamma   90.00000000
_symmetry_Int_Tables_number   1
_chemical_formula_structural   H9C12(N3O)2
_chemical_formula_sum   'H288 C384 N192 O64'
_cell_volume   84144.33780330
_cell_formula_units_Z   32
loop_
 _symmetry_equiv_pos_site_id
 _symmetry_equiv_pos_as_xyz
  1  'x, y, z'
loop_
 _atom_site_type_symbol
 _atom_site_label
 _atom_site_symmetry_multiplicity
 _atom_site_fract_x
 _atom_site_fract_y
 _atom_site_fract_z
 _atom_site_occupancy
  C  1  1  0.28322900  0.08688800  0.99229700  1
  C  2  1  0.32800100  0.07125300  0.99699200  1
  C  3  1  0.38156200  0.06971900  0.98501300  1
  C  4  1  0.39023900  0.08565100  0.96853700  1
  C  5  1  0.34880400  0.10246300  0.96407800  1
  C  6  1  0.29346200  0.10274200  0.97551600  1
  C  9  1  0.22884700  0.08542800  0.00411400  1
  C  10  1  0.19245700  0.06616700  0.00455600  1
  C  11  1  0.14045200  0.06564800  0.01808700  1
  C  12  1  0.12976200  0.08348000  0.03234600  1
  C  13  1  0.16563300  0.10232900  0.03240300  1
  C  14  1  0.21410100  0.10326500  0.01786800  1
  C  31  1  0.78336400  0.41734800  0.01192200  1
  C  32  1  0.82817100  0.43297000  0.00721900  1
  C  33  1  0.88166900  0.43451700  0.01923200  1
  C  34  1  0.89030300  0.41859600  0.03572100  1
  C  35  1  0.84885700  0.40178500  0.04016900  1
  C  36  1  0.79355000  0.40149200  0.02870700  1
  C  39  1  0.72899800  0.41881600  0.00009900  1
  C  40  1  0.69259400  0.43807500  0.99968700  1
  C  41  1  0.64058100  0.43860200  0.98615900  1
  C  42  1  0.62990000  0.42078200  0.97188600  1
  C  43  1  0.66578800  0.40193700  0.97179900  1
  C  44  1  0.71429400  0.40099800  0.98631800  1
  C  61  1  0.53321200  0.26191000  0.83733700  1
  C  62  1  0.57803800  0.25720500  0.82172600  1
  C  63  1  0.63149100  0.26924700  0.82016100  1
  C  64  1  0.64005600  0.28576200  0.83606100  1
  C  65  1  0.59856200  0.29022400  0.85285100  1
  C  66  1  0.54331400  0.27872900  0.85316200  1
  C  69  1  0.47887800  0.25007300  0.83585700  1
  C  70  1  0.44243700  0.24970000  0.81660600  1
  C  71  1  0.39042100  0.23617400  0.81606300  1
  C  72  1  0.37979200  0.22185500  0.83385400  1
  C  73  1  0.41570300  0.22173900  0.85269200  1
  C  74  1  0.46418300  0.23626700  0.85365700  1
  C  91  1  0.03319700  0.24231700  0.16691400  1
  C  92  1  0.07803400  0.24702800  0.18252000  1
  C  93  1  0.13148600  0.23498700  0.18408300  1
  C  94  1  0.14003900  0.21846500  0.16818900  1
  C  95  1  0.09857700  0.21402100  0.15138200  1
  C  96  1  0.04330700  0.22550300  0.15108400  1
  C  99  1  0.97886800  0.25415900  0.16838900  1
  C  100  1  0.94245600  0.25456300  0.18764400  1
  C  101  1  0.89044800  0.26809200  0.18817700  1
  C  102  1  0.87982800  0.28240300  0.17037900  1
  C  103  1  0.91569000  0.28247500  0.15152700  1
  C  104  1  0.96412000  0.26792600  0.15056500  1
  C  121  1  0.72328400  0.91604000  0.01143900  1
  C  122  1  0.67884600  0.93142000  0.00570200  1
  C  123  1  0.62335200  0.93276900  0.01647800  1
  C  124  1  0.61332000  0.91726800  0.03327500  1
  C  125  1  0.65493800  0.90086800  0.03893400  1
  C  126  1  0.71157800  0.90054200  0.02839400  1
  C  129  1  0.77881100  0.91733700  0.00040100  1
  C  130  1  0.81617800  0.93631400  0.00083000  1
  C  131  1  0.87044200  0.93640900  0.98855000  1
  C  132  1  0.88171800  0.91877600  0.97410000  1
  C  133  1  0.84428400  0.90037000  0.97287700  1
  C  134  1  0.79414100  0.89958600  0.98664100  1
  C  151  1  0.22334400  0.58821900  0.99278500  1
  C  152  1  0.17891300  0.57283800  0.99853200  1
  C  153  1  0.12342300  0.57147800  0.98775500  1
  C  154  1  0.11337300  0.58698600  0.97096500  1
  C  155  1  0.15498500  0.60338600  0.96529900  1
  C  156  1  0.21162300  0.60372500  0.97583800  1
  C  159  1  0.27887700  0.58691700  0.00381900  1
  C  160  1  0.31625700  0.56794400  0.00334900  1
  C  161  1  0.37047700  0.56782500  0.01565400  1
  C  162  1  0.38172100  0.58543100  0.03014200  1
  C  163  1  0.34429100  0.60383600  0.03139000  1
  C  164  1  0.29414200  0.60463700  0.01762800  1
  C  181  1  0.47513000  0.74251200  0.16744000  1
  C  182  1  0.43032200  0.74713200  0.18308000  1
  C  183  1  0.37685000  0.73509000  0.18457500  1
  C  184  1  0.36827500  0.71865700  0.16859100  1
  C  185  1  0.40975900  0.71429600  0.15177000  1
  C  186  1  0.46501800  0.72578000  0.15152800  1
  C  189  1  0.52935800  0.75441100  0.16890500  1
  C  190  1  0.56595400  0.75478200  0.18811000  1
  C  191  1  0.61787200  0.76836100  0.18861400  1
  C  192  1  0.62818800  0.78274900  0.17085100  1
  C  193  1  0.59205600  0.78288800  0.15206900  1
  C  194  1  0.54374600  0.76828400  0.15112600  1
  C  211  1  0.97508600  0.76173200  0.83679200  1
  C  212  1  0.93026000  0.75710300  0.82116200  1
  C  213  1  0.87678600  0.76913900  0.81967000  1
  C  214  1  0.86822400  0.78558200  0.83564800  1
  C  215  1  0.90968400  0.78993000  0.85248200  1
  C  216  1  0.96497400  0.77846100  0.85270600  1
  C  219  1  0.02931700  0.74983300  0.83532900  1
  C  220  1  0.06588100  0.74943900  0.81611600  1
  C  221  1  0.11782300  0.73587000  0.81562200  1
  C  222  1  0.12814900  0.72149400  0.83339400  1
  C  223  1  0.09205300  0.72138400  0.85218700  1
  C  224  1  0.04377300  0.73600100  0.85313100  1
  C  241  1  0.78314400  0.58681700  0.49249500  1
  C  242  1  0.82794000  0.57117500  0.49711400  1
  C  243  1  0.88150000  0.56971700  0.48512500  1
  C  244  1  0.89010500  0.58571000  0.46870200  1
  C  245  1  0.84861200  0.60252500  0.46432400  1
  C  246  1  0.79329400  0.60274100  0.47577500  1
  C  249  1  0.72886400  0.58533900  0.50436100  1
  C  250  1  0.69237200  0.56610600  0.50476400  1
  C  251  1  0.64044800  0.56558500  0.51833700  1
  C  252  1  0.63005600  0.58335100  0.53271300  1
  C  253  1  0.66613400  0.60214700  0.53284700  1
  C  254  1  0.71440600  0.60311700  0.51822600  1
  C  271  1  0.28323700  0.91741900  0.51173400  1
  C  272  1  0.32805900  0.93304900  0.50710300  1
  C  273  1  0.38156700  0.93452400  0.51912000  1
  C  274  1  0.39014000  0.91854000  0.53555500  1
  C  275  1  0.34864300  0.90172400  0.53992800  1
  C  276  1  0.29335300  0.90149400  0.52845500  1
  C  279  1  0.22896600  0.91890300  0.49986100  1
  C  280  1  0.19246100  0.93813100  0.49948700  1
  C  281  1  0.14053500  0.93865900  0.48591300  1
  C  282  1  0.13015800  0.92090600  0.47152100  1
  C  283  1  0.16625500  0.90211300  0.47136200  1
  C  284  1  0.21455600  0.90114200  0.48596900  1
  C  301  1  0.03512700  0.76142900  0.33823600  1
  C  302  1  0.07962000  0.75567200  0.32288300  1
  C  303  1  0.13506900  0.76648000  0.32153100  1
  C  304  1  0.14505200  0.78328700  0.33702700  1
  C  305  1  0.10338500  0.78894600  0.35340700  1
  C  306  1  0.04676900  0.77839100  0.35373000  1
  C  309  1  0.97961400  0.75039000  0.33690600  1
  C  310  1  0.94223400  0.75089700  0.31793400  1
  C  311  1  0.88794500  0.73863000  0.31780600  1
  C  312  1  0.87664600  0.72413300  0.33540200  1
  C  313  1  0.91405800  0.72285800  0.35381100  1
  C  314  1  0.96425000  0.73659600  0.35462300  1
  C  331  1  0.53509200  0.74280200  0.66600000  1
  C  332  1  0.57957100  0.74855600  0.68135700  1
  C  333  1  0.63502000  0.73774900  0.68271100  1
  C  334  1  0.64500800  0.72094300  0.66721600  1
  C  335  1  0.60338000  0.71530500  0.65081300  1
  C  336  1  0.54675000  0.72585200  0.65049400  1
  C  339  1  0.47957100  0.75383700  0.66732800  1
  C  340  1  0.44221200  0.75334000  0.68630500  1
  C  341  1  0.38794100  0.76561900  0.68644100  1
  C  342  1  0.37664700  0.78012300  0.66885000  1
  C  343  1  0.41401700  0.78137000  0.65042500  1
  C  344  1  0.46416100  0.76761000  0.64959900  1
  C  361  1  0.22332900  0.41612000  0.51125200  1
  C  362  1  0.17883800  0.43150200  0.50558800  1
  C  363  1  0.12335600  0.43276800  0.51637800  1
  C  364  1  0.11341400  0.41720400  0.53312400  1
  C  365  1  0.15511000  0.40080200  0.53869800  1
  C  366  1  0.21172900  0.40054700  0.52814500  1
  C  369  1  0.27875300  0.41744000  0.50015700  1
  C  370  1  0.31620000  0.43639100  0.50061700  1
  C  371  1  0.37038400  0.43648600  0.48828900  1
  C  372  1  0.38139800  0.41891800  0.47372700  1
  C  373  1  0.34378500  0.40056300  0.47244100  1
  C  374  1  0.29383000  0.39974400  0.48629600  1
  C  391  1  0.72332600  0.08813900  0.49297900  1
  C  392  1  0.67882400  0.07276400  0.49865300  1
  C  393  1  0.62337000  0.07148600  0.48784300  1
  C  394  1  0.61344500  0.08704600  0.47109400  1
  C  395  1  0.65514200  0.10344900  0.46552100  1
  C  396  1  0.71174200  0.10371500  0.47608900  1
  C  399  1  0.77874800  0.08680800  0.50407500  1
  C  400  1  0.81620100  0.06786000  0.50357500  1
  C  401  1  0.87034400  0.06773500  0.51592700  1
  C  402  1  0.88133100  0.08527500  0.53052500  1
  C  403  1  0.84373000  0.10363200  0.53183500  1
  C  404  1  0.79377000  0.10447100  0.51798500  1
  C  421  1  0.97320200  0.24297000  0.66654600  1
  C  422  1  0.92871300  0.24864500  0.68192800  1
  C  423  1  0.87324200  0.23784500  0.68320300  1
  C  424  1  0.86325000  0.22112100  0.66762000  1
  C  425  1  0.90492400  0.21555800  0.65120800  1
  C  426  1  0.96155800  0.22609800  0.65095500  1
  C  429  1  0.02861600  0.25407100  0.66785900  1
  C  430  1  0.06614700  0.25356600  0.68678900  1
  C  431  1  0.12034800  0.26588500  0.68687400  1
  C  432  1  0.13135700  0.28044900  0.66930500  1
  C  433  1  0.09373100  0.28174300  0.65095500  1
  C  434  1  0.04369700  0.26792600  0.65016000  1
  C  451  1  0.47324600  0.26128700  0.33768000  1
  C  452  1  0.42875800  0.25560600  0.32230100  1
  C  453  1  0.37327300  0.26640000  0.32102900  1
  C  454  1  0.36328000  0.28312400  0.33661200  1
  C  455  1  0.40492700  0.28867100  0.35304000  1
  C  456  1  0.46158300  0.27814700  0.35327900  1
  C  459  1  0.52866800  0.25018600  0.33636800  1
  C  460  1  0.56615600  0.25066000  0.31742800  1
  C  461  1  0.62034800  0.23833600  0.31734500  1
  C  462  1  0.63136200  0.22378000  0.33492000  1
  C  463  1  0.59379000  0.22252700  0.35328900  1
  C  464  1  0.54380800  0.23636700  0.35409000  1
  C  481  1  0.97161400  0.98098900  0.00814200  1
  C  483  1  0.01575600  0.00827100  0.98463000  1
  C  484  1  0.04071400  0.01926600  0.00267100  1
  C  486  1  0.99747200  0.99184300  0.02652500  1
  C  491  1  0.07714800  0.03799500  0.00074600  1
  C  492  1  0.93326000  0.96254600  0.00838500  1
  C  495  1  0.47156600  0.52321600  0.99606500  1
  C  497  1  0.51585800  0.49598600  0.01960000  1
  C  498  1  0.54080800  0.48497600  0.00156700  1
  C  500  1  0.49734200  0.51233100  0.97768400  1
  C  505  1  0.57727300  0.46625700  0.00350300  1
  C  506  1  0.43328700  0.54168200  0.99582400  1
  C  509  1  0.22161500  0.24619800  0.73139300  1
  C  511  1  0.26590800  0.26970100  0.75865100  1
  C  512  1  0.29073100  0.25165200  0.76967400  1
  C  514  1  0.24724000  0.22780000  0.74230000  1
  C  519  1  0.32715200  0.25357200  0.78840600  1
  C  520  1  0.18332200  0.24598300  0.71293400  1
  C  523  1  0.72160000  0.25802100  0.27282600  1
  C  525  1  0.76584600  0.23454500  0.24553500  1
  C  526  1  0.79070100  0.25260400  0.23453700  1
  C  528  1  0.74729000  0.27642800  0.26195400  1
  C  533  1  0.82714400  0.25070400  0.21580800  1
  C  534  1  0.68331400  0.25822100  0.29129000  1
  C  537  1  0.03849600  0.52249500  0.00861700  1
  C  539  1  0.97554000  0.50012500  0.98562900  1
  C  540  1  0.96559600  0.48506000  0.00269400  1
  C  542  1  0.02767400  0.50755600  0.02617900  1
  C  547  1  0.92853600  0.46642700  0.00075300  1
  C  548  1  0.07653600  0.54109800  0.00874000  1
  C  551  1  0.53864000  0.98179300  0.99562000  1
  C  553  1  0.47539800  0.00408600  0.01858300  1
  C  554  1  0.46552600  0.01917500  0.00153800  1
  C  556  1  0.52803800  0.99679600  0.97809300  1
  C  561  1  0.42841600  0.03779600  0.00348700  1
  C  562  1  0.57649100  0.96313600  0.99548600  1
  C  565  1  0.78847800  0.25865400  0.73222100  1
  C  567  1  0.72542400  0.23566600  0.75455700  1
  C  568  1  0.71549000  0.25271900  0.76963000  1
  C  570  1  0.77787000  0.27618100  0.74722200  1
  C  575  1  0.67840600  0.25076900  0.78825600  1
  C  576  1  0.82630000  0.25879200  0.71355900  1
  C  579  1  0.28847300  0.24559300  0.27201800  1
  C  581  1  0.22544600  0.26858300  0.24967600  1
  C  582  1  0.21551600  0.25152800  0.23460100  1
  C  584  1  0.27782000  0.22805700  0.25702900  1
  C  589  1  0.17845500  0.25348100  0.21597000  1
  C  590  1  0.32628500  0.24544500  0.29068400  1
  C  593  1  0.78693200  0.75829600  0.27319700  1
  C  595  1  0.74283400  0.73481100  0.24588400  1
  C  596  1  0.71792400  0.75286300  0.23489000  1
  C  598  1  0.76112000  0.77669000  0.26234800  1
  C  603  1  0.68146400  0.75095500  0.21616800  1
  C  604  1  0.82524200  0.75852200  0.29165200  1
  C  607  1  0.28702400  0.74592800  0.73106900  1
  C  609  1  0.24272400  0.76942200  0.75833400  1
  C  610  1  0.21785700  0.75137000  0.76933700  1
  C  612  1  0.26134200  0.72752900  0.74195300  1
  C  617  1  0.18137200  0.75327600  0.78805500  1
  C  618  1  0.32524900  0.74571900  0.71258700  1
  C  621  1  0.21976100  0.74561300  0.27251500  1
  C  623  1  0.28281900  0.76860000  0.25017900  1
  C  624  1  0.29275700  0.75154600  0.23510600  1
  C  626  1  0.23037500  0.72808500  0.25751500  1
  C  631  1  0.32985000  0.75350900  0.21648700  1
  C  632  1  0.18193600  0.74548500  0.29117800  1
  C  635  1  0.71969400  0.75860500  0.73173700  1
  C  637  1  0.78272200  0.73561700  0.75408100  1
  C  638  1  0.79264600  0.75266800  0.76915600  1
  C  640  1  0.73034000  0.77613900  0.74672900  1
  C  645  1  0.82972800  0.75070400  0.78778000  1
  C  646  1  0.68190000  0.75874100  0.71306600  1
  C  649  1  0.47168200  0.48095200  0.50804500  1
  C  651  1  0.51561400  0.50838200  0.48465600  1
  C  652  1  0.54054100  0.51931300  0.50274200  1
  C  654  1  0.49752000  0.49173600  0.52647500  1
  C  659  1  0.57692600  0.53806200  0.50089600  1
  C  660  1  0.43339300  0.46249100  0.50821400  1
  C  663  1  0.97154800  0.02324100  0.49616600  1
  C  665  1  0.01565700  0.99586500  0.51957800  1
  C  666  1  0.04058900  0.98492600  0.50149800  1
  C  668  1  0.99730600  0.01242500  0.47773900  1
  C  673  1  0.07700200  0.96618600  0.50335600  1
  C  674  1  0.93333200  0.04172400  0.49600400  1
  C  677  1  0.53857200  0.02247300  0.50864200  1
  C  679  1  0.47554800  0.00014900  0.48563400  1
  C  680  1  0.46564100  0.98505700  0.50267200  1
  C  682  1  0.52798800  0.00745300  0.52615600  1
  C  687  1  0.42857600  0.96643100  0.50069700  1
  C  688  1  0.57636400  0.04114500  0.50879600  1
  C  691  1  0.03861600  0.48179900  0.49559800  1
  C  693  1  0.97548200  0.50408700  0.51860200  1
  C  694  1  0.96560000  0.51919200  0.50157200  1
  C  696  1  0.02804200  0.49682800  0.47809100  1
  C  701  1  0.92847800  0.53780400  0.50354500  1
  C  702  1  0.07639700  0.46312600  0.49544000  1
  C  705  1  0.41770400  0.17767100  0.89442800  1
  C  707  1  0.37385900  0.17495000  0.93008600  1
  C  708  1  0.38259300  0.15208800  0.93039500  1
  C  710  1  0.42634900  0.15464800  0.89434000  1
  C  715  1  0.36587600  0.13859600  0.94839000  1
  C  716  1  0.43647300  0.19205100  0.87756700  1
  C  719  1  0.91752600  0.32660200  0.10988500  1
  C  721  1  0.87394000  0.32930300  0.07418100  1
  C  722  1  0.88254000  0.35217400  0.07389000  1
  C  724  1  0.92601000  0.34963100  0.10999500  1
  C  729  1  0.86589000  0.36565900  0.05588200  1
  C  730  1  0.93625600  0.31222900  0.12676000  1
  C  733  1  0.66764600  0.36006000  0.92785400  1
  C  735  1  0.62386800  0.32438400  0.92525100  1
  C  736  1  0.63240400  0.32403600  0.90237800  1
  C  738  1  0.67610000  0.36010900  0.90482300  1
  C  743  1  0.61566600  0.30600500  0.88893700  1
  C  744  1  0.68654000  0.37694200  0.94218500  1
  C  747  1  0.16736600  0.14408800  0.07642300  1
  C  749  1  0.12382900  0.17980700  0.07901200  1
  C  750  1  0.13231400  0.18014900  0.10188700  1
  C  752  1  0.17577500  0.14403500  0.09945700  1
  C  757  1  0.11565500  0.19819800  0.11531600  1
  C  758  1  0.18614900  0.12718300  0.06209500  1
  C  761  1  0.58837600  0.82662800  0.10997100  1
  C  763  1  0.63164900  0.82895800  0.07419700  1
  C  764  1  0.62179200  0.85175100  0.07346400  1
  C  766  1  0.57865800  0.84959100  0.10964700  1
  C  771  1  0.63799000  0.86500000  0.05522700  1
  C  772  1  0.57036200  0.81242300  0.12708900  1
  C  775  1  0.08855000  0.67759800  0.89420800  1
  C  777  1  0.13158000  0.67529100  0.93002400  1
  C  778  1  0.12186800  0.65248900  0.93074000  1
  C  780  1  0.07899200  0.65462400  0.89451300  1
  C  785  1  0.13801300  0.63924700  0.94899000  1
  C  786  1  0.07056200  0.69179300  0.87707800  1
  C  789  1  0.34240200  0.64495700  0.07609800  1
  C  791  1  0.38511400  0.68078200  0.07904900  1
  C  792  1  0.37657000  0.68087200  0.10192300  1
  C  794  1  0.33397600  0.64465000  0.09913100  1
  C  799  1  0.39284400  0.69882200  0.11554500  1
  C  800  1  0.32376200  0.62818700  0.06159200  1
  C  803  1  0.84255800  0.85934800  0.92811600  1
  C  805  1  0.88502400  0.82348200  0.92518100  1
  C  806  1  0.87657800  0.82340400  0.90230000  1
  C  808  1  0.83422900  0.85966800  0.90507800  1
  C  813  1  0.89279000  0.80544000  0.88868700  1
  C  814  1  0.82400600  0.87613700  0.94261800  1
  C  817  1  0.91586300  0.67816400  0.39494000  1
  C  819  1  0.87298800  0.67522700  0.43074000  1
  C  820  1  0.88170400  0.65236100  0.43087200  1
  C  822  1  0.92444600  0.65513800  0.39467000  1
  C  827  1  0.86542800  0.63875200  0.44882800  1
  C  828  1  0.93446000  0.69265600  0.37815000  1
  C  831  1  0.41568100  0.82610800  0.60937300  1
  C  833  1  0.37304100  0.82903000  0.57353200  1
  C  834  1  0.38163800  0.85190100  0.57341600  1
  C  836  1  0.42413000  0.84914100  0.60965900  1
  C  841  1  0.36542400  0.86550600  0.55544700  1
  C  842  1  0.43424600  0.81162100  0.62617200  1
  C  845  1  0.16997500  0.85997900  0.42764600  1
  C  847  1  0.12675700  0.82419700  0.42532100  1
  C  848  1  0.13653900  0.82347400  0.40252200  1
  C  850  1  0.17964600  0.85966000  0.40468000  1
  C  855  1  0.12033900  0.80523900  0.38927200  1
  C  856  1  0.18805300  0.87708100  0.44185400  1
  C  859  1  0.66975400  0.64419300  0.57661700  1
  C  861  1  0.62676600  0.68001500  0.57892600  1
  C  862  1  0.63648700  0.68072900  0.60172700  1
  C  864  1  0.67936600  0.64450400  0.59958600  1
  C  869  1  0.62035200  0.69897900  0.61496800  1
  C  870  1  0.68773200  0.62706800  0.56241400  1
  C  873  1  0.09030000  0.32613200  0.60948100  1
  C  875  1  0.13253200  0.32866800  0.57355300  1
  C  876  1  0.12271200  0.35146900  0.57300000  1
  C  878  1  0.08065900  0.34910300  0.60934000  1
  C  883  1  0.13845100  0.36483500  0.55479800  1
  C  884  1  0.07246400  0.31181600  0.62653000  1
  C  887  1  0.59048300  0.17810300  0.39469800  1
  C  889  1  0.63249600  0.17558000  0.43066300  1
  C  890  1  0.62280600  0.15277200  0.43119600  1
  C  892  1  0.58098900  0.15512300  0.39481900  1
  C  897  1  0.63848800  0.13940900  0.44940900  1
  C  898  1  0.57268200  0.19241400  0.37764000  1
  C  901  1  0.84008800  0.14500900  0.57632300  1
  C  903  1  0.88218000  0.18095000  0.57896900  1
  C  904  1  0.87243200  0.18141600  0.60177600  1
  C  906  1  0.83048600  0.14506800  0.59929500  1
  C  911  1  0.88815800  0.19957600  0.61520200  1
  C  912  1  0.82225000  0.12801200  0.56194700  1
  C  915  1  0.34026000  0.35927000  0.42790800  1
  C  917  1  0.38212300  0.32329200  0.42526700  1
  C  918  1  0.37246700  0.32284400  0.40245500  1
  C  920  1  0.33075700  0.35923000  0.40492900  1
  C  925  1  0.38814500  0.30467400  0.38903400  1
  C  926  1  0.32251200  0.37628400  0.44228200  1
  H  7  1  0.31886700  0.05972100  0.00853200  1
  H  8  1  0.42859400  0.08516300  0.95951100  1
  H  15  1  0.09313500  0.08326900  0.04230200  1
  H  16  1  0.24041200  0.11694700  0.01804200  1
  H  19  1  0.20928500  0.11564000  0.97488500  1
  H  20  1  0.25318200  0.12554200  0.95592700  1
  H  21  1  0.19081200  0.03391400  0.99543000  1
  H  22  1  0.23879800  0.04851300  0.98153600  1
  H  24  1  0.10949300  0.12426500  0.04552400  1
  H  26  1  0.07802700  0.04676200  0.03210600  1
  H  28  1  0.37493300  0.10940200  0.93344300  1
  H  30  1  0.45133800  0.05194800  0.97546300  1
  H  37  1  0.81901400  0.44451600  0.99569500  1
  H  38  1  0.92861400  0.41909800  0.04477000  1
  H  45  1  0.59327900  0.42100400  0.96192400  1
  H  46  1  0.74060300  0.38731500  0.98613900  1
  H  49  1  0.70936400  0.38859900  0.02930700  1
  H  50  1  0.75320000  0.37870300  0.04828800  1
  H  51  1  0.69095800  0.47032100  0.00883400  1
  H  52  1  0.73898000  0.45571700  0.02270400  1
  H  54  1  0.60969200  0.38003400  0.95864900  1
  H  56  1  0.57814800  0.45748500  0.97214700  1
  H  58  1  0.87487200  0.39486100  0.07082000  1
  H  60  1  0.95134600  0.45232400  0.02881700  1
  H  67  1  0.56891400  0.24567900  0.81018000  1
  H  68  1  0.67833100  0.29483200  0.83554800  1
  H  75  1  0.34314900  0.21190700  0.83362500  1
  H  76  1  0.49049600  0.23607400  0.86733700  1
  H  79  1  0.45921000  0.27922600  0.86613700  1
  H  80  1  0.50291100  0.29825300  0.87601600  1
  H  81  1  0.44088400  0.25883600  0.78436700  1
  H  82  1  0.48892300  0.27269700  0.79897400  1
  H  84  1  0.35963700  0.20849700  0.87458900  1
  H  86  1  0.32801100  0.22219800  0.79716700  1
  H  88  1  0.62442000  0.32091000  0.85971500  1
  H  90  1  0.70117300  0.27883400  0.80236200  1
  H  97  1  0.06891600  0.25855800  0.19406200  1
  H  98  1  0.17831400  0.20939500  0.16870300  1
  H  105  1  0.84316400  0.29234000  0.17059000  1
  H  106  1  0.99043200  0.26811200  0.13688300  1
  H  109  1  0.95917800  0.22498800  0.13809500  1
  H  110  1  0.00293800  0.20598600  0.12821400  1
  H  111  1  0.94086600  0.24544100  0.21989000  1
  H  112  1  0.98890200  0.23156600  0.20529600  1
  H  114  1  0.85958200  0.29562000  0.12962100  1
  H  116  1  0.82796600  0.28207100  0.20706800  1
  H  118  1  0.12434900  0.18331600  0.14456000  1
  H  120  1  0.20117700  0.22540300  0.20188000  1
  H  127  1  0.68948300  0.94286700  0.99424800  1
  H  128  1  0.57372600  0.91768800  0.04154300  1
  H  135  1  0.91974800  0.91877900  0.96488200  1
  H  136  1  0.76703600  0.88613600  0.98584200  1
  H  139  1  0.79587400  0.88786600  0.03037100  1
  H  140  1  0.75045800  0.87836000  0.04905000  1
  H  141  1  0.81859600  0.96850600  0.01010400  1
  H  142  1  0.76640800  0.95447000  0.02246200  1
  H  144  1  0.90024400  0.87845800  0.95954500  1
  H  146  1  0.93774500  0.95452800  0.97680800  1
  H  148  1  0.62590200  0.89448200  0.06933300  1
  H  150  1  0.55090400  0.95011400  0.02384100  1
  H  157  1  0.18963000  0.56137800  0.00995900  1
  H  158  1  0.07378700  0.58655900  0.96269000  1
  H  165  1  0.41971600  0.58540100  0.03937800  1
  H  166  1  0.26704000  0.61808700  0.01843500  1
  H  169  1  0.29591100  0.61641500  0.97388200  1
  H  170  1  0.25050100  0.62592100  0.95519900  1
  H  171  1  0.31868100  0.53577600  0.99399800  1
  H  172  1  0.26651300  0.54984300  0.98166600  1
  H  174  1  0.40019900  0.62570800  0.04476600  1
  H  176  1  0.43766900  0.54966300  0.02741700  1
  H  178  1  0.12599300  0.60975500  0.93489200  1
  H  180  1  0.05086100  0.55418100  0.98043100  1
  H  187  1  0.43944800  0.75860100  0.19468400  1
  H  188  1  0.32997500  0.70959800  0.16904600  1
  H  195  1  0.66474300  0.79274100  0.17105700  1
  H  196  1  0.51730800  0.76847000  0.13747700  1
  H  199  1  0.54915500  0.72533500  0.13857900  1
  H  200  1  0.50547100  0.70636100  0.12859400  1
  H  201  1  0.56783200  0.74558100  0.22032600  1
  H  202  1  0.51975200  0.73171000  0.20574500  1
  H  204  1  0.64771000  0.79630100  0.13013100  1
  H  206  1  0.68037600  0.78234300  0.20746600  1
  H  208  1  0.38386300  0.68367400  0.14464200  1
  H  210  1  0.30715200  0.72544900  0.20234300  1
  H  217  1  0.93937600  0.74562700  0.80956400  1
  H  218  1  0.82992200  0.79463800  0.83519500  1
  H  225  1  0.16474800  0.71152300  0.83321000  1
  H  226  1  0.01733800  0.73581600  0.86678100  1
  H  229  1  0.04913200  0.77892600  0.86567400  1
  H  230  1  0.00538200  0.79787400  0.87565800  1
  H  231  1  0.06772900  0.75860400  0.78388800  1
  H  232  1  0.01966400  0.77249100  0.79845600  1
  H  234  1  0.14777600  0.70805600  0.87412600  1
  H  236  1  0.18037900  0.72189500  0.79678800  1
  H  238  1  0.88387200  0.82056800  0.85957200  1
  H  240  1  0.80707100  0.77877700  0.80190800  1
  H  247  1  0.81884400  0.55959400  0.50860800  1
  H  248  1  0.92845600  0.58527500  0.45967200  1
  H  255  1  0.59352600  0.58312500  0.54271700  1
  H  256  1  0.74081800  0.61677200  0.51842200  1
  H  259  1  0.70908400  0.61561400  0.47523900  1
  H  260  1  0.75287600  0.62560000  0.45629300  1
  H  261  1  0.69052800  0.53388900  0.49553000  1
  H  262  1  0.73854000  0.54849900  0.48166200  1
  H  264  1  0.61041400  0.62406000  0.54626400  1
  H  266  1  0.57791800  0.54669400  0.53229500  1
  H  268  1  0.87460600  0.60963900  0.43371800  1
  H  270  1  0.95131500  0.55199200  0.47552400  1
  H  277  1  0.31892600  0.94464400  0.49562600  1
  H  278  1  0.42845400  0.91898800  0.54460400  1
  H  285  1  0.09363800  0.92114200  0.46151200  1
  H  286  1  0.24096900  0.88748700  0.48577300  1
  H  289  1  0.20913700  0.88862300  0.52896500  1
  H  290  1  0.25287900  0.87864600  0.54793300  1
  H  291  1  0.19062000  0.97034400  0.50873900  1
  H  292  1  0.23866500  0.95572900  0.52258700  1
  H  294  1  0.11058700  0.88022500  0.45792800  1
  H  296  1  0.07799800  0.95754700  0.47196100  1
  H  298  1  0.37454700  0.89462600  0.57054800  1
  H  300  1  0.45132200  0.95227000  0.52874300  1
  H  307  1  0.06897900  0.74424900  0.31140600  1
  H  308  1  0.18462100  0.79157000  0.33660200  1
  H  315  1  0.83857600  0.71493700  0.33537400  1
  H  316  1  0.99131800  0.73578200  0.36808200  1
  H  319  1  0.96249800  0.78029300  0.36644900  1
  H  320  1  0.00781800  0.79899100  0.37597700  1
  H  321  1  0.93994200  0.76019500  0.28575900  1
  H  322  1  0.99219000  0.77249800  0.29981600  1
  H  324  1  0.85804900  0.70945300  0.37566800  1
  H  326  1  0.82073900  0.72692400  0.29964800  1
  H  328  1  0.13232700  0.81936000  0.35979400  1
  H  330  1  0.20745000  0.77387000  0.30416400  1
  H  337  1  0.56892200  0.75997600  0.69283600  1
  H  338  1  0.68457600  0.71265800  0.66764200  1
  H  345  1  0.33855800  0.78930400  0.66886500  1
  H  346  1  0.49123000  0.76843000  0.63614000  1
  H  349  1  0.46247600  0.72394500  0.63774300  1
  H  350  1  0.50784900  0.70527200  0.62821600  1
  H  351  1  0.43990900  0.74402300  0.71847700  1
  H  352  1  0.49211900  0.73171000  0.70441300  1
  H  354  1  0.35794700  0.79470600  0.62857400  1
  H  356  1  0.32077900  0.77732800  0.70461900  1
  H  358  1  0.63223800  0.68487100  0.64446300  1
  H  360  1  0.70740000  0.73035600  0.70008000  1
  H  367  1  0.18940700  0.44300200  0.49417800  1
  H  368  1  0.07382400  0.41756700  0.54139800  1
  H  375  1  0.41933800  0.41893400  0.46446000  1
  H  376  1  0.26664100  0.38631900  0.48548200  1
  H  379  1  0.29608000  0.38790700  0.53003000  1
  H  380  1  0.25076800  0.37830200  0.54869400  1
  H  381  1  0.31879700  0.46855000  0.50998900  1
  H  382  1  0.26659200  0.45450700  0.52233000  1
  H  384  1  0.39934600  0.37866200  0.45885200  1
  H  386  1  0.43777500  0.45460300  0.47660000  1
  H  388  1  0.12624700  0.39423500  0.56907800  1
  H  390  1  0.05092900  0.45009500  0.52381600  1
  H  397  1  0.68943800  0.06124500  0.51003900  1
  H  398  1  0.57388200  0.08667000  0.46280200  1
  H  405  1  0.91924100  0.08523200  0.53981000  1
  H  406  1  0.76659200  0.11789900  0.51880500  1
  H  409  1  0.79609200  0.11636700  0.47423800  1
  H  410  1  0.75082000  0.12596500  0.45555800  1
  H  411  1  0.81878800  0.03572400  0.49412400  1
  H  412  1  0.76660100  0.04980000  0.48181200  1
  H  414  1  0.89924800  0.12549600  0.54545900  1
  H  416  1  0.93762000  0.04957200  0.52763300  1
  H  418  1  0.62635800  0.11000300  0.43513000  1
  H  420  1  0.55094800  0.05415600  0.48040500  1
  H  427  1  0.93934500  0.26001300  0.69346200  1
  H  428  1  0.82365200  0.21285200  0.66798300  1
  H  435  1  0.16934400  0.28968800  0.66930800  1
  H  436  1  0.01651500  0.26873000  0.63673400  1
  H  439  1  0.04586600  0.22424200  0.63826600  1
  H  440  1  0.00055000  0.20560600  0.62862000  1
  H  441  1  0.06873000  0.24421100  0.71894100  1
  H  442  1  0.01645500  0.23189000  0.70491500  1
  H  444  1  0.14933300  0.29529000  0.62904000  1
  H  446  1  0.18764300  0.27760100  0.70498200  1
  H  448  1  0.87599600  0.18520100  0.64455600  1
  H  450  1  0.80083500  0.23040700  0.70054400  1
  H  457  1  0.43939400  0.24424000  0.31076800  1
  H  458  1  0.32367300  0.29138700  0.33625400  1
  H  465  1  0.66936600  0.21455100  0.33493100  1
  H  466  1  0.51663200  0.23556600  0.36752000  1
  H  469  1  0.54590200  0.28001800  0.36599600  1
  H  470  1  0.50051500  0.29862200  0.37564800  1
  H  471  1  0.56874400  0.26000500  0.28527100  1
  H  472  1  0.51650400  0.27234700  0.29929400  1
  H  474  1  0.64945300  0.20904500  0.37520000  1
  H  476  1  0.68771200  0.22662000  0.29923400  1
  H  478  1  0.37605600  0.31904200  0.35966400  1
  H  480  1  0.30082900  0.27382700  0.30370400  1
  H  487  1  0.02147300  0.01364100  0.96895400  1
  H  489  1  0.97670800  0.97242000  0.05272200  1
  H  490  1  0.01541000  0.99440800  0.05896900  1
  H  501  1  0.52164800  0.49064600  0.03528300  1
  H  503  1  0.47544400  0.53145400  0.95137300  1
  H  504  1  0.51460100  0.50955600  0.94519500  1
  H  515  1  0.27173000  0.28537900  0.76400100  1
  H  517  1  0.22519800  0.20149600  0.72318300  1
  H  518  1  0.26424600  0.19529700  0.74510100  1
  H  529  1  0.77162400  0.21887400  0.24016100  1
  H  531  1  0.72543800  0.30270200  0.28114100  1
  H  532  1  0.76448000  0.30892400  0.25923000  1
  H  543  1  0.95729400  0.49813600  0.97046500  1
  H  545  1  0.06912200  0.52114800  0.05275200  1
  H  546  1  0.03582100  0.49772300  0.05776500  1
  H  557  1  0.45699200  0.00602500  0.03372700  1
  H  559  1  0.57123000  0.98363800  0.95165200  1
  H  560  1  0.53723800  0.00692400  0.94662600  1
  H  571  1  0.70712400  0.22050800  0.75652100  1
  H  573  1  0.82122800  0.30261700  0.73410900  1
  H  574  1  0.78711800  0.30764000  0.75737100  1
  H  585  1  0.20718100  0.28374600  0.24770200  1
  H  587  1  0.32085000  0.20159200  0.27022100  1
  H  588  1  0.28686900  0.19657400  0.24693300  1
  H  599  1  0.73710000  0.71913900  0.24050200  1
  H  601  1  0.78189100  0.80287200  0.28178800  1
  H  602  1  0.74322600  0.80913800  0.25979700  1
  H  613  1  0.23687800  0.78509700  0.76368400  1
  H  615  1  0.28324200  0.70124600  0.72279200  1
  H  616  1  0.24418600  0.69503100  0.74470300  1
  H  627  1  0.30111600  0.78375900  0.24821900  1
  H  629  1  0.18705600  0.70165300  0.27064800  1
  H  630  1  0.22113400  0.69662200  0.24738100  1
  H  641  1  0.80099000  0.72045400  0.75605100  1
  H  643  1  0.68725200  0.80259100  0.73353800  1
  H  644  1  0.72125000  0.80762100  0.75682200  1
  H  655  1  0.52127700  0.51383000  0.46900400  1
  H  657  1  0.47695300  0.47216500  0.55257900  1
  H  658  1  0.51552600  0.49415800  0.55892500  1
  H  669  1  0.02139700  0.99044500  0.53523600  1
  H  671  1  0.97556600  0.03169200  0.45151600  1
  H  672  1  0.01460600  0.00979400  0.44524200  1
  H  683  1  0.45724900  0.99819700  0.47047400  1
  H  685  1  0.57129400  0.02056100  0.55260300  1
  H  686  1  0.53724800  0.99728100  0.55760700  1
  H  697  1  0.95715100  0.50602400  0.53375800  1
  H  699  1  0.07151700  0.48377000  0.45165500  1
  H  700  1  0.03736200  0.50702700  0.44665200  1
  H  711  1  0.35447000  0.18298200  0.94287800  1
  H  713  1  0.45885400  0.14984600  0.86357600  1
  H  714  1  0.45180400  0.12717000  0.87828800  1
  H  725  1  0.85470800  0.32126000  0.06136400  1
  H  727  1  0.95868600  0.35444000  0.14074300  1
  H  728  1  0.95157000  0.37711700  0.12603800  1
  H  739  1  0.60458800  0.31159700  0.93332900  1
  H  741  1  0.70914700  0.39080100  0.89993900  1
  H  742  1  0.70186400  0.37604700  0.87730200  1
  H  753  1  0.10465700  0.19261000  0.07092600  1
  H  755  1  0.20852800  0.11330400  0.10435700  1
  H  756  1  0.20129800  0.12806700  0.12699100  1
  H  767  1  0.65128400  0.82080200  0.06153500  1
  H  769  1  0.54639000  0.85475000  0.14038600  1
  H  770  1  0.55217300  0.87719500  0.12524900  1
  H  781  1  0.15106500  0.68345900  0.94271000  1
  H  783  1  0.04652800  0.64946200  0.86379500  1
  H  784  1  0.05239100  0.62701400  0.87892200  1
  H  795  1  0.40399000  0.69372400  0.07109300  1
  H  797  1  0.30196300  0.61376800  0.10374400  1
  H  798  1  0.30875300  0.62835200  0.12650900  1
  H  809  1  0.90377300  0.81051800  0.93314400  1
  H  811  1  0.80253600  0.89059200  0.90045100  1
  H  812  1  0.80931600  0.87600700  0.87768600  1
  H  823  1  0.85398600  0.68318400  0.44365800  1
  H  825  1  0.95597800  0.65049700  0.36374600  1
  H  826  1  0.94935500  0.62774500  0.37836100  1
  H  837  1  0.35417700  0.82106400  0.56059400  1
  H  839  1  0.45588400  0.85378100  0.64056200  1
  H  840  1  0.44919800  0.87653600  0.62595500  1
  H  851  1  0.10716900  0.81152600  0.43347900  1
  H  853  1  0.21253500  0.89033200  0.39954100  1
  H  854  1  0.20663500  0.87520500  0.37709500  1
  H  865  1  0.60728000  0.69270000  0.57075900  1
  H  867  1  0.71197600  0.61379400  0.60474400  1
  H  868  1  0.70611100  0.62892800  0.62718600  1
  H  879  1  0.15175100  0.32058300  0.56076000  1
  H  881  1  0.04943500  0.35411500  0.64024600  1
  H  882  1  0.05477500  0.37663400  0.62520400  1
  H  893  1  0.65157300  0.18367400  0.44347900  1
  H  895  1  0.54953300  0.15011800  0.36393200  1
  H  896  1  0.55495100  0.12759300  0.37896100  1
  H  907  1  0.90132600  0.19378300  0.57092200  1
  H  909  1  0.79870200  0.11420000  0.60419100  1
  H  910  1  0.80412200  0.12916500  0.62675800  1
  H  921  1  0.40115100  0.31044000  0.43332000  1
  H  923  1  0.29927100  0.39013900  0.40002500  1
  H  924  1  0.30468800  0.37518100  0.37745300  1
  N  17  1  0.24908300  0.11645400  0.96883600  1
  N  18  1  0.20789000  0.04818300  0.99257400  1
  N  23  1  0.15105800  0.11968700  0.04555600  1
  N  25  1  0.09934300  0.04905000  0.01838700  1
  N  27  1  0.36234600  0.11635200  0.94703500  1
  N  29  1  0.42235300  0.05310500  0.98726900  1
  N  47  1  0.74913700  0.38779100  0.03537600  1
  N  48  1  0.70803600  0.45605100  0.01168000  1
  N  53  1  0.65125800  0.38462800  0.95857100  1
  N  55  1  0.59946600  0.45519900  0.98586600  1
  N  57  1  0.86233800  0.38790400  0.05722600  1
  N  59  1  0.92243700  0.45114000  0.01698900  1
  N  77  1  0.49889800  0.28538600  0.86686400  1
  N  78  1  0.45783600  0.26173000  0.79864900  1
  N  83  1  0.40119500  0.20849700  0.86998900  1
  N  85  1  0.34925200  0.23593200  0.79948100  1
  N  87  1  0.61196000  0.30731800  0.86669300  1
  N  89  1  0.67227400  0.26700200  0.80354500  1
  N  107  1  0.99885700  0.21882000  0.13741300  1
  N  108  1  0.95787600  0.24255600  0.20561500  1
  N  113  1  0.90116000  0.29566100  0.13418400  1
  N  115  1  0.84930600  0.26835900  0.20476600  1
  N  117  1  0.11194300  0.19690600  0.13756100  1
  N  119  1  0.17228100  0.23723500  0.20069800  1
  N  137  1  0.75558600  0.88714200  0.03598200  1
  N  138  1  0.79973700  0.95443500  0.01242100  1
  N  143  1  0.85884400  0.88323200  0.95941300  1
  N  145  1  0.91327200  0.95238300  0.98980900  1
  N  147  1  0.63997400  0.88729700  0.05606700  1
  N  149  1  0.58165600  0.94882300  0.01268800  1
  N  167  1  0.25563100  0.61712800  0.96826100  1
  N  168  1  0.29984100  0.54985500  0.99170900  1
  N  173  1  0.35880300  0.62091400  0.04493900  1
  N  175  1  0.41327900  0.55184000  0.01440000  1
  N  177  1  0.14002600  0.61694800  0.94815800  1
  N  179  1  0.08170100  0.55543400  0.99155500  1
  N  197  1  0.50945400  0.71919200  0.13779800  1
  N  198  1  0.55079000  0.74269700  0.20605800  1
  N  203  1  0.60619800  0.79619300  0.13477900  1
  N  205  1  0.65920200  0.76859800  0.20514200  1
  N  207  1  0.39632800  0.69732600  0.13778300  1
  N  209  1  0.33603500  0.73729000  0.20118800  1
  N  227  1  0.00943900  0.78507700  0.86640700  1
  N  228  1  0.05066600  0.76149000  0.79815300  1
  N  233  1  0.10623500  0.70813300  0.86952000  1
  N  235  1  0.15916400  0.73563500  0.79909700  1
  N  237  1  0.89628800  0.80691900  0.86644900  1
  N  239  1  0.83595400  0.76693800  0.80306400  1
  N  257  1  0.74885700  0.61646600  0.46917400  1
  N  258  1  0.70764400  0.54815700  0.49270400  1
  N  263  1  0.65195100  0.61945500  0.54612800  1
  N  265  1  0.59920400  0.54903100  0.51857700  1
  N  267  1  0.86207400  0.61651000  0.44735600  1
  N  269  1  0.92235200  0.55312000  0.48734100  1
  N  287  1  0.24888800  0.88777800  0.53505000  1
  N  288  1  0.20774100  0.95607400  0.51155600  1
  N  293  1  0.15212300  0.88485400  0.45801100  1
  N  295  1  0.09928300  0.95521200  0.48568000  1
  N  297  1  0.36205800  0.88774900  0.55690700  1
  N  299  1  0.42240500  0.95112700  0.51691400  1
  N  317  1  0.00273000  0.78597500  0.36711600  1
  N  318  1  0.95868000  0.76254000  0.29984700  1
  N  323  1  0.89946200  0.70933800  0.37090000  1
  N  325  1  0.84511900  0.73994500  0.30183200  1
  N  327  1  0.11829400  0.80608700  0.36697500  1
  N  329  1  0.17675700  0.76269800  0.30547700  1
  N  347  1  0.50269800  0.71825000  0.63712800  1
  N  348  1  0.45867200  0.74169600  0.70438900  1
  N  353  1  0.39938900  0.79484700  0.63330000  1
  N  355  1  0.34512700  0.76430200  0.70242000  1
  N  357  1  0.61826800  0.69814600  0.63726500  1
  N  359  1  0.67670400  0.74152800  0.69877000  1
  N  377  1  0.25581300  0.38713500  0.53565500  1
  N  378  1  0.29990200  0.45448100  0.51228000  1
  N  383  1  0.35797800  0.38347400  0.45886000  1
  N  385  1  0.41333300  0.45241600  0.48960100  1
  N  387  1  0.14025100  0.38713000  0.55575900  1
  N  389  1  0.08161100  0.44881200  0.51263700  1
  N  407  1  0.75584000  0.11712700  0.46859400  1
  N  408  1  0.79991500  0.04980000  0.49186200  1
  N  413  1  0.85788400  0.12066200  0.54549500  1
  N  415  1  0.91325400  0.05179300  0.51461700  1
  N  417  1  0.64031400  0.11711300  0.44845200  1
  N  419  1  0.58162400  0.05544200  0.49158600  1
  N  437  1  0.00561800  0.21858100  0.63754000  1
  N  438  1  0.04991900  0.24186900  0.70486600  1
  N  443  1  0.10797400  0.29531800  0.63387100  1
  N  445  1  0.16332900  0.26456500  0.70279300  1
  N  447  1  0.89000800  0.19854100  0.63749400  1
  N  449  1  0.83151800  0.24158500  0.69925400  1
  N  467  1  0.50565800  0.28568300  0.36667400  1
  N  468  1  0.54990200  0.26233800  0.29934200  1
  N  473  1  0.60806200  0.20899800  0.37041400  1
  N  475  1  0.66329600  0.23962900  0.30141400  1
  N  477  1  0.39002100  0.30570400  0.36674100  1
  N  479  1  0.33153500  0.26265500  0.30498300  1
  N  482  1  0.98272600  0.99011800  0.98821900  1
  N  485  1  0.03012500  0.01018400  0.02254700  1
  N  488  1  0.99463400  0.98590200  0.04788000  1
  N  496  1  0.48277600  0.51412200  0.01599600  1
  N  499  1  0.53008600  0.49401700  0.98168200  1
  N  502  1  0.49423000  0.51816500  0.95630600  1
  N  510  1  0.23286500  0.26612000  0.74050100  1
  N  513  1  0.27994400  0.23177500  0.76063000  1
  N  516  1  0.24400800  0.20642400  0.73646900  1
  N  524  1  0.73280700  0.23811000  0.26369100  1
  N  527  1  0.77998900  0.27247000  0.24361900  1
  N  530  1  0.74418600  0.29779300  0.26783700  1
  N  538  1  0.01117800  0.51759500  0.98932300  1
  N  541  1  0.99231400  0.48994700  0.02198800  1
  N  544  1  0.04750200  0.50876100  0.04711100  1
  N  552  1  0.51111200  0.98663800  0.01488900  1
  N  555  1  0.49252400  0.01436500  0.98227700  1
  N  558  1  0.54838600  0.99575600  0.95722000  1
  N  566  1  0.76108800  0.23936800  0.73709700  1
  N  569  1  0.74239600  0.27199100  0.76479900  1
  N  572  1  0.79822400  0.29705400  0.74618800  1
  N  580  1  0.26109800  0.26488100  0.26714100  1
  N  583  1  0.24237200  0.23225100  0.23944600  1
  N  586  1  0.29803000  0.20716800  0.25810200  1
  N  594  1  0.77582400  0.73838200  0.26405000  1
  N  597  1  0.72849800  0.77272800  0.24399500  1
  N  600  1  0.76396800  0.79804100  0.26830200  1
  N  608  1  0.27576600  0.76584800  0.74018100  1
  N  611  1  0.22862000  0.73149600  0.76028000  1
  N  614  1  0.26450100  0.70615600  0.73609800  1
  N  622  1  0.24715500  0.76489800  0.26763800  1
  N  625  1  0.26585300  0.73227300  0.23993700  1
  N  628  1  0.21002800  0.70721200  0.25855900  1
  N  636  1  0.74707400  0.73931900  0.73661800  1
  N  639  1  0.76579200  0.77194800  0.76431400  1
  N  642  1  0.71010400  0.79702400  0.74565300  1
  N  650  1  0.48269200  0.49018600  0.48816500  1
  N  653  1  0.53006000  0.51012200  0.52257700  1
  N  656  1  0.49476600  0.48569100  0.54780100  1
  N  664  1  0.98267400  0.01404200  0.51605400  1
  N  667  1  0.02995700  0.99407000  0.48165500  1
  N  670  1  0.99426100  0.01836500  0.45638900  1
  N  678  1  0.51118600  0.01761300  0.48935200  1
  N  681  1  0.49254100  0.98987200  0.52194900  1
  N  684  1  0.54833700  0.00847600  0.54702900  1
  N  692  1  0.01116500  0.48663600  0.51488200  1
  N  695  1  0.99254400  0.51439500  0.48230000  1
  N  698  1  0.04843900  0.49582600  0.45722300  1
  N  706  1  0.39147300  0.18662600  0.91236300  1
  N  709  1  0.40819200  0.14325600  0.91228100  1
  N  712  1  0.44928000  0.14303600  0.87746500  1
  N  720  1  0.89149200  0.31763400  0.09191700  1
  N  723  1  0.90793800  0.36101700  0.09203700  1
  N  726  1  0.94875500  0.36126000  0.12689200  1
  N  734  1  0.64154400  0.34213200  0.93687400  1
  N  737  1  0.65788900  0.34214000  0.89348500  1
  N  740  1  0.69891500  0.37696300  0.89315300  1
  N  748  1  0.14140700  0.16204000  0.06739600  1
  N  751  1  0.15765000  0.16201900  0.11079000  1
  N  754  1  0.19839100  0.12715300  0.11113800  1
  N  762  1  0.61479200  0.81750700  0.09216000  1
  N  765  1  0.59605200  0.86076200  0.09146200  1
  N  768  1  0.55542800  0.86136400  0.12635300  1
  N  776  1  0.11477400  0.68673400  0.91205000  1
  N  779  1  0.09631500  0.64346300  0.91271300  1
  N  782  1  0.05594100  0.64283500  0.87778700  1
  N  790  1  0.36793400  0.66308100  0.06725200  1
  N  793  1  0.35164800  0.66257900  0.11064100  1
  N  796  1  0.31169000  0.62759500  0.11064900  1
  N  804  1  0.86792600  0.84119600  0.93697000  1
  N  807  1  0.85183500  0.84172500  0.89357300  1
  N  810  1  0.81217400  0.87675400  0.89354900  1
  N  818  1  0.89016800  0.68701300  0.41303300  1
  N  821  1  0.90676900  0.64363900  0.41260600  1
  N  824  1  0.94687600  0.64361800  0.37764300  1
  N  832  1  0.39015900  0.81725000  0.59125200  1
  N  835  1  0.40652800  0.86063400  0.59171000  1
  N  838  1  0.44640400  0.86067400  0.62670500  1
  N  846  1  0.14362600  0.84215700  0.43677400  1
  N  849  1  0.16224000  0.84147900  0.39350900  1
  N  852  1  0.20285400  0.87636800  0.39290600  1
  N  860  1  0.64354600  0.66203800  0.56748200  1
  N  863  1  0.66203800  0.66270000  0.61075300  1
  N  866  1  0.70238000  0.62777000  0.61137400  1
  N  874  1  0.11613400  0.31710900  0.59150400  1
  N  877  1  0.09754500  0.36037700  0.59115500  1
  N  880  1  0.05796900  0.36079400  0.62620300  1
  N  888  1  0.61614600  0.18713400  0.41270400  1
  N  891  1  0.59781200  0.14385300  0.41301200  1
  N  894  1  0.55846200  0.14342100  0.37793400  1
  N  902  1  0.86581400  0.16303200  0.56735200  1
  N  905  1  0.84734200  0.16321800  0.61062900  1
  N  908  1  0.80786200  0.12815900  0.61093400  1
  N  916  1  0.36583500  0.34122000  0.43688200  1
  N  919  1  0.34754900  0.34107100  0.39359600  1
  N  922  1  0.30835200  0.37617300  0.39328000  1
  O  493  1  0.91679600  0.95368300  0.02774700  1
  O  494  1  0.08731700  0.04602400  0.98039500  1
  O  507  1  0.41706300  0.55062800  0.97647400  1
  O  508  1  0.58751000  0.45825500  0.02386000  1
  O  521  1  0.16703200  0.22664400  0.70398000  1
  O  522  1  0.33742400  0.27392200  0.79641900  1
  O  535  1  0.66706200  0.27755700  0.30026400  1
  O  536  1  0.83741600  0.23035900  0.20778300  1
  O  549  1  0.10679200  0.54573200  0.02724700  1
  O  550  1  0.90223000  0.46313900  0.98109300  1
  O  563  1  0.60637400  0.95836100  0.97693300  1
  O  564  1  0.40186200  0.04100500  0.02311300  1
  O  577  1  0.85584600  0.27739300  0.70868600  1
  O  578  1  0.65202600  0.23111800  0.79151000  1
  O  591  1  0.35599600  0.22686700  0.29550300  1
  O  592  1  0.15202600  0.27312500  0.21272600  1
  O  605  1  0.84167800  0.77787300  0.30054500  1
  O  606  1  0.67131700  0.73061300  0.20811000  1
  O  619  1  0.34158900  0.72638000  0.70364600  1
  O  620  1  0.17114200  0.77362300  0.79608700  1
  O  633  1  0.15229700  0.72690000  0.29603600  1
  O  634  1  0.35615200  0.77317500  0.21323100  1
  O  647  1  0.65218600  0.77731700  0.70823300  1
  O  648  1  0.85608600  0.73104800  0.79102200  1
  O  661  1  0.41698700  0.45353700  0.52754100  1
  O  662  1  0.58704800  0.54618400  0.48058000  1
  O  675  1  0.91716100  0.05076100  0.47668800  1
  O  676  1  0.08718600  0.95808800  0.52367900  1
  O  689  1  0.60598200  0.04598500  0.52738900  1
  O  690  1  0.40218600  0.96320300  0.48104400  1
  O  703  1  0.10592400  0.45826000  0.47683300  1
  O  704  1  0.90203500  0.54100700  0.52319500  1
  O  717  1  0.49186800  0.18928600  0.86934700  1
  O  718  1  0.35383900  0.14841200  0.96775700  1
  O  731  1  0.99161000  0.31501600  0.13501000  1
  O  732  1  0.85394200  0.35583700  0.03651000  1
  O  745  1  0.74196300  0.38512400  0.93938700  1
  O  746  1  0.60381600  0.28664600  0.89880200  1
  O  759  1  0.24149200  0.11893700  0.06492600  1
  O  760  1  0.10385800  0.21755500  0.10544000  1
  O  773  1  0.51493400  0.81502500  0.13533400  1
  O  774  1  0.65196600  0.85486900  0.03619900  1
  O  787  1  0.01516100  0.68917000  0.86881500  1
  O  788  1  0.15192400  0.64938500  0.96802000  1
  O  801  1  0.26868500  0.61972500  0.06448100  1
  O  802  1  0.40464000  0.71827800  0.10586400  1
  O  815  1  0.76901400  0.88466300  0.93968600  1
  O  816  1  0.90453300  0.78598500  0.89837700  1
  O  829  1  0.98955000  0.68976400  0.36969600  1
  O  830  1  0.85351100  0.64844700  0.46826700  1
  O  843  1  0.48931600  0.81452100  0.63463900  1
  O  844  1  0.35358300  0.85580600  0.53600500  1
  O  857  1  0.24354600  0.88527500  0.43928700  1
  O  858  1  0.10643200  0.78620200  0.39940200  1
  O  871  1  0.74315900  0.61882100  0.56501300  1
  O  872  1  0.60652400  0.71801800  0.60482900  1
  O  885  1  0.01737400  0.31457000  0.63502800  1
  O  886  1  0.15229700  0.35482600  0.53569300  1
  O  899  1  0.51760400  0.18965400  0.36913200  1
  O  900  1  0.65225800  0.14942100  0.46852000  1
  O  913  1  0.76712400  0.11952700  0.56463600  1
  O  914  1  0.90199000  0.21871500  0.60525400  1
  O  927  1  0.26746400  0.38482800  0.43955500  1
  O  928  1  0.40192000  0.28553300  0.39898500  1
