# generated using pymatgen
data_H15(C5N)4
_symmetry_space_group_name_H-M   'P 1'
_cell_length_a   74.90440000
_cell_length_b   80.66450000
_cell_length_c   80.79150000
_cell_angle_alpha   90.00000000
_cell_angle_beta   90.00000000
_cell_angle_gamma   90.00000000
_symmetry_Int_Tables_number   1
_chemical_formula_structural   H15(C5N)4
_chemical_formula_sum   'H1920 C2560 N512'
_cell_volume   488152.42061226
_cell_formula_units_Z   128
loop_
 _symmetry_equiv_pos_site_id
 _symmetry_equiv_pos_as_xyz
  1  'x, y, z'
loop_
 _atom_site_type_symbol
 _atom_site_label
 _atom_site_symmetry_multiplicity
 _atom_site_fract_x
 _atom_site_fract_y
 _atom_site_fract_z
 _atom_site_occupancy
  H  7  1  0.96259100  0.37161000  0.86999600  1
  H  16  1  0.99809900  0.40238900  0.88297000  1
  H  19  1  0.01978600  0.37579000  0.89406100  1
  H  20  1  0.01661600  0.37270200  0.91404000  1
  H  21  1  0.99344100  0.35119200  0.84048600  1
  H  22  1  0.98937200  0.34917600  0.86045900  1
  H  23  1  0.01680900  0.40412800  0.81886800  1
  H  24  1  0.01893100  0.41997700  0.83150300  1
  H  25  1  0.95683300  0.35724000  0.93469100  1
  H  26  1  0.93999400  0.35680900  0.92169800  1
  H  37  1  0.46256300  0.11556800  0.13426700  1
  H  46  1  0.49806400  0.08477800  0.12126800  1
  H  49  1  0.51976500  0.11137400  0.11021000  1
  H  50  1  0.51660500  0.11447500  0.09023100  1
  H  51  1  0.49344600  0.13598300  0.16375900  1
  H  52  1  0.48936600  0.13799800  0.14378600  1
  H  53  1  0.51674800  0.08301300  0.18538800  1
  H  54  1  0.51886500  0.06717200  0.17274600  1
  H  55  1  0.45682200  0.12993100  0.06956500  1
  H  56  1  0.43998000  0.13036600  0.08255300  1
  H  67  1  0.21266200  0.37577800  0.12991600  1
  H  76  1  0.24802900  0.36252000  0.16069300  1
  H  79  1  0.26980300  0.35157100  0.13413200  1
  H  80  1  0.26661200  0.33157600  0.13097900  1
  H  81  1  0.24389800  0.40527600  0.10969200  1
  H  82  1  0.23973800  0.38529600  0.10759300  1
  H  83  1  0.26656100  0.42677300  0.16286400  1
  H  84  1  0.26863000  0.41403200  0.17863100  1
  H  85  1  0.20679700  0.31101400  0.11545700  1
  H  86  1  0.18998100  0.32405600  0.11500500  1
  H  97  1  0.71265500  0.11142700  0.87427400  1
  H  106  1  0.74804700  0.12466300  0.84355500  1
  H  109  1  0.76982000  0.13561600  0.87011700  1
  H  110  1  0.76662700  0.15561000  0.87327600  1
  H  111  1  0.74381300  0.08190200  0.89454300  1
  H  112  1  0.73964500  0.10187900  0.89664600  1
  H  113  1  0.76669500  0.06045000  0.84144700  1
  H  114  1  0.76876800  0.07318400  0.82567300  1
  H  115  1  0.70682900  0.17616800  0.88883700  1
  H  116  1  0.68999700  0.16314400  0.88923800  1
  H  127  1  0.51622600  0.11714900  0.86970400  1
  H  136  1  0.48246200  0.08350800  0.88249100  1
  H  139  1  0.46030800  0.10825600  0.89472000  1
  H  140  1  0.46396900  0.10974800  0.91479800  1
  H  141  1  0.48483000  0.13563300  0.84096800  1
  H  142  1  0.48885000  0.13747100  0.86096500  1
  H  143  1  0.46321000  0.08246700  0.81855500  1
  H  144  1  0.46158400  0.06636600  0.83093500  1
  H  145  1  0.52448900  0.12246400  0.93547300  1
  H  146  1  0.54052900  0.12599500  0.92216300  1
  H  157  1  0.01626200  0.37002500  0.13455600  1
  H  166  1  0.98252300  0.40368900  0.12174900  1
  H  169  1  0.96033700  0.37895000  0.10956000  1
  H  170  1  0.96398200  0.37744600  0.08948000  1
  H  171  1  0.98482500  0.35155600  0.16327700  1
  H  172  1  0.98885500  0.34971900  0.14328200  1
  H  173  1  0.96329100  0.40476200  0.18570000  1
  H  174  1  0.96167700  0.42085600  0.17331400  1
  H  175  1  0.02448500  0.36468700  0.06877900  1
  H  176  1  0.04052900  0.36114300  0.08208300  1
  H  187  1  0.26615500  0.11102200  0.12840500  1
  H  196  1  0.23248300  0.12409300  0.16195900  1
  H  199  1  0.21027600  0.13618400  0.13722000  1
  H  200  1  0.21395800  0.15628300  0.13567800  1
  H  201  1  0.23441200  0.08229700  0.11005500  1
  H  202  1  0.23852500  0.10230200  0.10813700  1
  H  203  1  0.21343200  0.05999900  0.16341700  1
  H  204  1  0.21183500  0.07248800  0.17943100  1
  H  205  1  0.27446500  0.17686000  0.12269400  1
  H  206  1  0.29050200  0.16350100  0.11925100  1
  H  217  1  0.76615800  0.37617200  0.87585400  1
  H  226  1  0.73250600  0.36308500  0.84231100  1
  H  229  1  0.71028700  0.35097900  0.86700200  1
  H  230  1  0.71398900  0.33088500  0.86856900  1
  H  231  1  0.73445900  0.40490400  0.89419500  1
  H  232  1  0.73858500  0.38490500  0.89613100  1
  H  233  1  0.71331200  0.42713300  0.84087800  1
  H  234  1  0.71173400  0.41464700  0.82485900  1
  H  235  1  0.77448300  0.31034200  0.88162700  1
  H  236  1  0.79052000  0.32370600  0.88505300  1
  H  247  1  0.01601300  0.61417000  0.13429500  1
  H  256  1  0.97881200  0.58431200  0.12149800  1
  H  259  1  0.95876600  0.61139800  0.11005600  1
  H  260  1  0.96210800  0.61439800  0.09009300  1
  H  261  1  0.98629300  0.63566400  0.16359400  1
  H  262  1  0.99073000  0.63729800  0.14366000  1
  H  263  1  0.95809100  0.58484400  0.18506000  1
  H  264  1  0.95514400  0.56902200  0.17250600  1
  H  265  1  0.02229100  0.62860500  0.06965700  1
  H  266  1  0.03909300  0.62869800  0.08270200  1
  H  277  1  0.51603500  0.87301000  0.86992300  1
  H  286  1  0.47883800  0.90288200  0.88274600  1
  H  289  1  0.45878200  0.87580100  0.89415300  1
  H  290  1  0.46211300  0.87278600  0.91411700  1
  H  291  1  0.48628300  0.85152700  0.84063700  1
  H  292  1  0.49072600  0.84989200  0.86056900  1
  H  293  1  0.45817300  0.90240700  0.81915300  1
  H  294  1  0.45523100  0.91821300  0.83172100  1
  H  295  1  0.52229400  0.85857700  0.93456700  1
  H  296  1  0.53909900  0.85847900  0.92152800  1
  H  307  1  0.76770100  0.61192000  0.87420800  1
  H  316  1  0.73072900  0.62471500  0.84407300  1
  H  319  1  0.70998500  0.63504700  0.87059400  1
  H  320  1  0.71279800  0.65509800  0.87373000  1
  H  321  1  0.73870300  0.58150100  0.89428100  1
  H  322  1  0.74115100  0.60168700  0.89667100  1
  H  323  1  0.72299400  0.55881400  0.83926900  1
  H  324  1  0.71897500  0.57170500  0.82399700  1
  H  325  1  0.77230800  0.67667100  0.88893500  1
  H  326  1  0.78938600  0.66392200  0.88921300  1
  H  337  1  0.26770000  0.87525000  0.13008900  1
  H  346  1  0.23070300  0.86248200  0.16016700  1
  H  349  1  0.20996400  0.85213500  0.13364600  1
  H  350  1  0.21278500  0.83208500  0.13050900  1
  H  351  1  0.23878400  0.90568600  0.10996500  1
  H  352  1  0.24125000  0.88550400  0.10757100  1
  H  353  1  0.22294300  0.92837900  0.16493300  1
  H  354  1  0.21893600  0.91549700  0.18021300  1
  H  355  1  0.27228200  0.81052300  0.11526500  1
  H  356  1  0.28937200  0.82325700  0.11503700  1
  H  367  1  0.46366400  0.87120600  0.13461200  1
  H  376  1  0.49905600  0.90415000  0.12189700  1
  H  379  1  0.51969800  0.87895400  0.10936000  1
  H  380  1  0.51588600  0.87755400  0.08930500  1
  H  381  1  0.49417000  0.85184700  0.16315600  1
  H  382  1  0.48982800  0.85029700  0.14320100  1
  H  383  1  0.52027100  0.90322500  0.18527900  1
  H  384  1  0.52265300  0.91930200  0.17295100  1
  H  385  1  0.45502100  0.86596600  0.06888800  1
  H  386  1  0.43898500  0.86268300  0.08226500  1
  H  397  1  0.96363600  0.61599400  0.86961000  1
  H  406  1  0.99900500  0.58302200  0.88234500  1
  H  409  1  0.01967700  0.60821100  0.89484000  1
  H  410  1  0.01588200  0.60962500  0.91489700  1
  H  411  1  0.99418300  0.63533000  0.84107400  1
  H  412  1  0.98983200  0.63688400  0.86102700  1
  H  413  1  0.02017400  0.58389100  0.81893300  1
  H  414  1  0.02254500  0.56782600  0.83127400  1
  H  415  1  0.95503600  0.62126600  0.93534000  1
  H  416  1  0.93899400  0.62456400  0.92197100  1
  H  427  1  0.71217700  0.87582400  0.87569000  1
  H  436  1  0.74735500  0.86300200  0.84270700  1
  H  439  1  0.76859400  0.85147900  0.86751100  1
  H  440  1  0.76521700  0.83132900  0.86906300  1
  H  441  1  0.74197800  0.90537100  0.89392100  1
  H  442  1  0.73950300  0.88516500  0.89609800  1
  H  443  1  0.75569100  0.92883000  0.83876600  1
  H  444  1  0.75914600  0.91613700  0.82321500  1
  H  445  1  0.70485700  0.80996400  0.88156200  1
  H  446  1  0.68863500  0.82314200  0.88494800  1
  H  457  1  0.21218400  0.61134300  0.12853900  1
  H  466  1  0.24734200  0.62417100  0.16151300  1
  H  469  1  0.26859300  0.63572200  0.13675700  1
  H  470  1  0.26519300  0.65586600  0.13518600  1
  H  471  1  0.24193800  0.58179500  0.11030500  1
  H  472  1  0.23944000  0.60199500  0.10811500  1
  H  473  1  0.25573800  0.55835200  0.16543900  1
  H  474  1  0.25915400  0.57104200  0.18100000  1
  H  475  1  0.20484000  0.67719600  0.12262100  1
  H  476  1  0.18862000  0.66401200  0.11925200  1
  H  487  1  0.46171800  0.87258100  0.37046000  1
  H  496  1  0.49876500  0.90269200  0.38314100  1
  H  499  1  0.51940900  0.87607100  0.39361900  1
  H  500  1  0.51654500  0.87300400  0.41364500  1
  H  501  1  0.49047300  0.85234200  0.34013200  1
  H  502  1  0.48807700  0.84999500  0.36029800  1
  H  503  1  0.50631700  0.90736800  0.31734400  1
  H  504  1  0.51038800  0.92267400  0.33019100  1
  H  505  1  0.45694600  0.85805600  0.43514800  1
  H  506  1  0.43988900  0.85781300  0.42239700  1
  H  517  1  0.96168300  0.61460100  0.63379600  1
  H  526  1  0.99872000  0.58448200  0.62109100  1
  H  529  1  0.01938200  0.61109400  0.61064500  1
  H  530  1  0.01652800  0.61417600  0.59062000  1
  H  531  1  0.99046900  0.63484400  0.66410200  1
  H  532  1  0.98806900  0.63718900  0.64393600  1
  H  533  1  0.00630500  0.57981000  0.68689500  1
  H  534  1  0.01037100  0.56450200  0.67405000  1
  H  535  1  0.95693000  0.62912100  0.56910100  1
  H  536  1  0.93987000  0.62936600  0.58184700  1
  H  547  1  0.71310200  0.87581400  0.63197500  1
  H  556  1  0.75013500  0.86293000  0.66187200  1
  H  559  1  0.77033800  0.85152800  0.63483000  1
  H  560  1  0.76700800  0.83153200  0.63184000  1
  H  561  1  0.74328300  0.90502700  0.61046300  1
  H  562  1  0.73868000  0.88508800  0.60887100  1
  H  563  1  0.77100100  0.92657500  0.66142800  1
  H  564  1  0.77379800  0.91400200  0.67724900  1
  H  565  1  0.70680500  0.81103700  0.61771000  1
  H  566  1  0.69000000  0.82409900  0.61759100  1
  H  577  1  0.21308600  0.61139200  0.37222400  1
  H  586  1  0.25011300  0.62424500  0.34235900  1
  H  589  1  0.27034300  0.63565500  0.36938800  1
  H  590  1  0.26701500  0.65565000  0.37238400  1
  H  591  1  0.24320900  0.58215800  0.39376900  1
  H  592  1  0.23859300  0.60209300  0.39536100  1
  H  593  1  0.27113400  0.56066300  0.34289900  1
  H  594  1  0.27390100  0.57322100  0.32705700  1
  H  595  1  0.20683400  0.67615100  0.38657400  1
  H  596  1  0.19001400  0.66310600  0.38665400  1
  H  607  1  0.01693000  0.61654400  0.37003800  1
  H  616  1  0.98196100  0.58322900  0.38273600  1
  H  619  1  0.96061200  0.60792300  0.39438900  1
  H  620  1  0.96402100  0.60943200  0.41450800  1
  H  621  1  0.98723400  0.63461600  0.34054200  1
  H  622  1  0.98962000  0.63678200  0.36072500  1
  H  623  1  0.97386900  0.57932800  0.31701100  1
  H  624  1  0.97048200  0.56372400  0.32966600  1
  H  625  1  0.02435800  0.62204600  0.43581200  1
  H  626  1  0.04051600  0.62564600  0.42264200  1
  H  637  1  0.51697200  0.87062100  0.63421500  1
  H  646  1  0.48203400  0.90396000  0.62149700  1
  H  649  1  0.46064900  0.87928000  0.60988500  1
  H  650  1  0.46404000  0.87775800  0.58976400  1
  H  651  1  0.48723400  0.85255900  0.66369500  1
  H  652  1  0.48962800  0.85039500  0.64351200  1
  H  653  1  0.47389900  0.90786100  0.68722700  1
  H  654  1  0.47052500  0.92346700  0.67457200  1
  H  655  1  0.52435900  0.86509500  0.56843300  1
  H  656  1  0.54052100  0.86148100  0.58159600  1
  H  667  1  0.76556100  0.61084400  0.63024400  1
  H  676  1  0.73038700  0.62376000  0.66319100  1
  H  679  1  0.70964900  0.63633200  0.63807900  1
  H  680  1  0.71352600  0.65640700  0.63667700  1
  H  681  1  0.73452200  0.58249600  0.61086400  1
  H  682  1  0.73907100  0.60244700  0.60934700  1
  H  683  1  0.70893600  0.56032200  0.66239300  1
  H  684  1  0.70673700  0.57267300  0.67846500  1
  H  685  1  0.77440700  0.67663700  0.62479100  1
  H  686  1  0.79040800  0.66319000  0.62154300  1
  H  697  1  0.26557600  0.87634700  0.37401300  1
  H  706  1  0.23044200  0.86342800  0.34106200  1
  H  709  1  0.20967000  0.85083300  0.36611800  1
  H  710  1  0.21356400  0.83076600  0.36754200  1
  H  711  1  0.23456400  0.90469800  0.39338700  1
  H  712  1  0.23913400  0.88475400  0.39491500  1
  H  713  1  0.20880500  0.92679500  0.34192300  1
  H  714  1  0.20665000  0.91445300  0.32583300  1
  H  715  1  0.27443400  0.81055900  0.37951000  1
  H  716  1  0.29043300  0.82401100  0.38274700  1
  H  727  1  0.51678100  0.11451700  0.63397500  1
  H  736  1  0.47814700  0.08548500  0.62149100  1
  H  739  1  0.45908700  0.11260000  0.61058600  1
  H  740  1  0.46215800  0.11551500  0.59056700  1
  H  741  1  0.48914100  0.13581700  0.66412700  1
  H  742  1  0.49203100  0.13783600  0.64398800  1
  H  743  1  0.46743000  0.08254800  0.68708000  1
  H  744  1  0.46268800  0.06742500  0.67421100  1
  H  745  1  0.52221900  0.12906300  0.56933700  1
  H  746  1  0.53921500  0.12890400  0.58216100  1
  H  757  1  0.01681100  0.37265000  0.37025800  1
  H  766  1  0.97817800  0.40169200  0.38277300  1
  H  769  1  0.95910700  0.37458600  0.39363500  1
  H  770  1  0.96216900  0.37165600  0.41365400  1
  H  771  1  0.98914400  0.35136700  0.34011400  1
  H  772  1  0.99203100  0.34934100  0.36025200  1
  H  773  1  0.96751200  0.40467600  0.31717200  1
  H  774  1  0.96276900  0.41979400  0.33004500  1
  H  775  1  0.02222600  0.35810700  0.43490200  1
  H  776  1  0.03922600  0.35826100  0.42208300  1
  H  787  1  0.26680000  0.11164200  0.37188600  1
  H  796  1  0.22832400  0.12435800  0.34273500  1
  H  799  1  0.20917600  0.13522600  0.36975900  1
  H  800  1  0.21228500  0.15525800  0.37272900  1
  H  801  1  0.23863600  0.08162300  0.39309700  1
  H  802  1  0.24176200  0.10176500  0.39508400  1
  H  803  1  0.21681200  0.05875500  0.33993800  1
  H  804  1  0.21222700  0.07164600  0.32479300  1
  H  805  1  0.27235500  0.17636600  0.38647300  1
  H  806  1  0.28931800  0.16348000  0.38640700  1
  H  817  1  0.76680700  0.37553100  0.63240900  1
  H  826  1  0.72834200  0.36285400  0.66153100  1
  H  829  1  0.70916700  0.35196000  0.63452000  1
  H  830  1  0.71228000  0.33192800  0.63155200  1
  H  831  1  0.73870800  0.40556100  0.61115500  1
  H  832  1  0.74186300  0.38542500  0.60917300  1
  H  833  1  0.71669200  0.42843900  0.66423600  1
  H  834  1  0.71217000  0.41556200  0.67940900  1
  H  835  1  0.77233000  0.31082300  0.61774700  1
  H  836  1  0.78930500  0.32369600  0.61785000  1
  H  847  1  0.96302600  0.37117700  0.63445400  1
  H  856  1  0.00003100  0.40310800  0.62189700  1
  H  859  1  0.01957400  0.37764100  0.60984600  1
  H  860  1  0.01597600  0.37630200  0.58974800  1
  H  861  1  0.99157500  0.35171100  0.66376300  1
  H  862  1  0.98868800  0.34985800  0.64361200  1
  H  863  1  0.01135200  0.40530700  0.68738200  1
  H  864  1  0.01553700  0.42072800  0.67470500  1
  H  865  1  0.95504800  0.36595700  0.56871400  1
  H  866  1  0.93882300  0.36294000  0.58195600  1
  H  877  1  0.46299200  0.11603500  0.36978100  1
  H  886  1  0.49997600  0.08407700  0.38236200  1
  H  889  1  0.51954900  0.10953200  0.39436400  1
  H  890  1  0.51596800  0.11088700  0.41446600  1
  H  891  1  0.49157600  0.13547600  0.34047800  1
  H  892  1  0.48868700  0.13733400  0.36062800  1
  H  893  1  0.51126600  0.08184100  0.31686600  1
  H  894  1  0.51544500  0.06642100  0.32954700  1
  H  895  1  0.45505900  0.12128900  0.43552700  1
  H  896  1  0.43883000  0.12432100  0.42229300  1
  H  907  1  0.21287500  0.37595900  0.37356300  1
  H  916  1  0.24958200  0.36330200  0.34137500  1
  H  919  1  0.26938200  0.35133100  0.36665000  1
  H  920  1  0.26582000  0.33120000  0.36802800  1
  H  921  1  0.24194400  0.40520800  0.39283000  1
  H  922  1  0.23889500  0.38504400  0.39466000  1
  H  923  1  0.26147300  0.42882600  0.33926500  1
  H  924  1  0.26546100  0.41614600  0.32380300  1
  H  925  1  0.20505100  0.31011800  0.37909100  1
  H  926  1  0.18882600  0.32336400  0.38218600  1
  H  937  1  0.71287100  0.11120800  0.63067300  1
  H  946  1  0.74953000  0.12385600  0.66287200  1
  H  949  1  0.76937100  0.13586400  0.63765200  1
  H  950  1  0.76578700  0.15598800  0.63625700  1
  H  951  1  0.74190800  0.08196200  0.61140100  1
  H  952  1  0.73882300  0.10211900  0.60956500  1
  H  953  1  0.76160100  0.05835800  0.66491400  1
  H  954  1  0.76550400  0.07102700  0.68040200  1
  H  955  1  0.70502500  0.17704400  0.62512300  1
  H  956  1  0.68880500  0.16379300  0.62203800  1
  H  967  1  0.97731900  0.38995200  0.75957700  1
  H  968  1  0.97337400  0.39376200  0.78837100  1
  H  975  1  0.02853900  0.36805900  0.74436500  1
  H  976  1  0.03371400  0.36797700  0.71542900  1
  H  977  1  0.97834200  0.37218500  0.70681700  1
  H  978  1  0.01322100  0.35807000  0.79796600  1
  H  979  1  0.97313800  0.37179600  0.73584500  1
  H  980  1  0.01681500  0.35388200  0.76893000  1
  H  983  1  0.98092400  0.38747900  0.81644800  1
  H  984  1  0.02315900  0.37167700  0.68744200  1
  H  991  1  0.47728600  0.09723500  0.24466600  1
  H  992  1  0.47333700  0.09343500  0.21587200  1
  H  999  1  0.52853500  0.11906400  0.25988600  1
  H  1000  1  0.53370400  0.11914000  0.28882400  1
  H  1001  1  0.47832400  0.11500300  0.29742600  1
  H  1002  1  0.51323600  0.12907900  0.20628300  1
  H  1003  1  0.47312700  0.11539800  0.26839800  1
  H  1004  1  0.51683300  0.13325800  0.23532100  1
  H  1007  1  0.48089400  0.09971200  0.18779600  1
  H  1008  1  0.52314200  0.11545300  0.31679700  1
  H  1015  1  0.22631600  0.48584300  0.14818000  1
  H  1016  1  0.22250800  0.45695300  0.15173700  1
  H  1023  1  0.27813900  0.50149200  0.12820900  1
  H  1024  1  0.28307800  0.53051200  0.12866600  1
  H  1025  1  0.22747900  0.53871000  0.13076400  1
  H  1026  1  0.26360000  0.44783300  0.11719000  1
  H  1027  1  0.22254200  0.50961700  0.12984400  1
  H  1028  1  0.26707900  0.47696300  0.11326500  1
  H  1031  1  0.23059300  0.42893400  0.14559700  1
  H  1032  1  0.27210400  0.55831500  0.13291900  1
  H  1039  1  0.72627400  0.00134300  0.85610400  1
  H  1040  1  0.72247700  0.03023400  0.85253600  1
  H  1047  1  0.77813500  0.98568900  0.87598200  1
  H  1048  1  0.78307000  0.95666900  0.87550200  1
  H  1049  1  0.72746600  0.94847800  0.87349800  1
  H  1050  1  0.76364800  0.03934900  0.88700500  1
  H  1051  1  0.72253400  0.97757000  0.87444200  1
  H  1052  1  0.76711500  0.01021900  0.89094100  1
  H  1055  1  0.73064200  0.05825400  0.85859000  1
  H  1056  1  0.77208600  0.92889200  0.87122000  1
  H  1063  1  0.50211600  0.09722600  0.75954400  1
  H  1064  1  0.50610900  0.09328400  0.78831100  1
  H  1071  1  0.45100200  0.11949400  0.74448400  1
  H  1072  1  0.44580400  0.11979300  0.71555300  1
  H  1073  1  0.50113100  0.11524900  0.70686600  1
  H  1074  1  0.46645500  0.12909400  0.79814100  1
  H  1075  1  0.50636400  0.11542900  0.73589300  1
  H  1076  1  0.46281800  0.13342300  0.76912400  1
  H  1079  1  0.49885100  0.09968200  0.81643000  1
  H  1080  1  0.45632000  0.11643200  0.68751300  1
  H  1087  1  0.00215300  0.38995500  0.24470100  1
  H  1088  1  0.00615300  0.39388700  0.21593500  1
  H  1095  1  0.95100800  0.36775200  0.25976700  1
  H  1096  1  0.94581400  0.36745800  0.28869900  1
  H  1097  1  0.00114700  0.37193200  0.29738000  1
  H  1098  1  0.96644800  0.35812300  0.20611000  1
  H  1099  1  0.00637700  0.37174700  0.26835200  1
  H  1100  1  0.96280300  0.35380500  0.23512700  1
  H  1103  1  0.99889200  0.38748800  0.18781700  1
  H  1104  1  0.95633500  0.37080800  0.31672600  1
  H  1111  1  0.25312500  0.00122000  0.14822300  1
  H  1112  1  0.25698400  0.03008800  0.15189300  1
  H  1119  1  0.20139500  0.98570900  0.12787700  1
  H  1120  1  0.19642000  0.95669100  0.12813400  1
  H  1121  1  0.25198800  0.94842000  0.13058400  1
  H  1122  1  0.21608500  0.03941800  0.11720700  1
  H  1123  1  0.25696800  0.97751500  0.12986000  1
  H  1124  1  0.21256200  0.01030300  0.11316000  1
  H  1127  1  0.24916600  0.05814500  0.14563000  1
  H  1128  1  0.20732200  0.92881700  0.13202000  1
  H  1135  1  0.75315900  0.48596100  0.85606800  1
  H  1136  1  0.75700900  0.45709300  0.85239200  1
  H  1143  1  0.70137900  0.50147700  0.87629500  1
  H  1144  1  0.69640800  0.53049400  0.87601400  1
  H  1145  1  0.75198400  0.53875800  0.87369100  1
  H  1146  1  0.71601700  0.44776700  0.88698400  1
  H  1147  1  0.75695800  0.50966400  0.87444200  1
  H  1148  1  0.71250200  0.47688200  0.89103900  1
  H  1151  1  0.74911900  0.42903500  0.85857800  1
  H  1152  1  0.70732400  0.55834600  0.87211100  1
  H  1159  1  0.00214600  0.59666800  0.24428900  1
  H  1160  1  0.00550200  0.59305000  0.21541600  1
  H  1167  1  0.95069500  0.61719400  0.26042100  1
  H  1168  1  0.94597900  0.61660500  0.28941900  1
  H  1169  1  0.00159400  0.61367300  0.29720900  1
  H  1170  1  0.96465900  0.62802200  0.20678500  1
  H  1171  1  0.00631800  0.61474400  0.26813600  1
  H  1172  1  0.96166600  0.63202500  0.23589500  1
  H  1175  1  0.99608300  0.59810300  0.18770900  1
  H  1176  1  0.95708700  0.61162900  0.31700500  1
  H  1183  1  0.50216900  0.89051500  0.75994600  1
  H  1184  1  0.50552800  0.89412700  0.78881900  1
  H  1191  1  0.45070400  0.87002200  0.74380700  1
  H  1192  1  0.44599500  0.87060900  0.71480800  1
  H  1193  1  0.50161300  0.87350100  0.70702700  1
  H  1194  1  0.46465800  0.85918200  0.79744800  1
  H  1195  1  0.50633100  0.87243200  0.73610200  1
  H  1196  1  0.46165900  0.85518600  0.76833800  1
  H  1199  1  0.49612200  0.88906400  0.81652800  1
  H  1200  1  0.45711100  0.87556900  0.68723300  1
  H  1207  1  0.47701300  0.89067100  0.24433500  1
  H  1208  1  0.47357300  0.89441500  0.21549000  1
  H  1215  1  0.52834500  0.86968000  0.26027200  1
  H  1216  1  0.53312000  0.87003200  0.28926600  1
  H  1217  1  0.47755300  0.87338400  0.29717200  1
  H  1218  1  0.51414500  0.85924300  0.20658500  1
  H  1219  1  0.47276300  0.87254500  0.26809900  1
  H  1220  1  0.51722200  0.85510900  0.23567300  1
  H  1223  1  0.48254400  0.88912600  0.18771000  1
  H  1224  1  0.52211900  0.87456700  0.31695000  1
  H  1231  1  0.97699100  0.59651400  0.75989700  1
  H  1232  1  0.97354400  0.59277500  0.78874100  1
  H  1239  1  0.02833800  0.61747300  0.74395700  1
  H  1240  1  0.03310700  0.61712400  0.71496300  1
  H  1241  1  0.97753700  0.61381000  0.70706200  1
  H  1242  1  0.01414100  0.62792100  0.79764800  1
  H  1243  1  0.97275200  0.61464500  0.73613600  1
  H  1244  1  0.01722500  0.63205000  0.76855800  1
  H  1247  1  0.98249600  0.59807700  0.81652300  1
  H  1248  1  0.02210200  0.61260800  0.68728600  1
  H  1255  1  0.72834000  0.98608100  0.64947000  1
  H  1256  1  0.72476300  0.95721400  0.65337600  1
  H  1263  1  0.77915500  0.00159900  0.62729500  1
  H  1264  1  0.78412900  0.03061900  0.62732500  1
  H  1265  1  0.72869400  0.03888200  0.63166500  1
  H  1266  1  0.76416200  0.94791400  0.61721600  1
  H  1267  1  0.72369700  0.00977900  0.63118900  1
  H  1268  1  0.76738200  0.97701500  0.61295200  1
  H  1271  1  0.73311700  0.92926300  0.64767200  1
  H  1272  1  0.77334000  0.05859300  0.63104200  1
  H  1279  1  0.22829400  0.50110400  0.35481700  1
  H  1280  1  0.22472400  0.52997100  0.35090400  1
  H  1287  1  0.27915700  0.48558400  0.37689000  1
  H  1288  1  0.28413300  0.45656700  0.37682400  1
  H  1289  1  0.22868800  0.44830400  0.37258900  1
  H  1290  1  0.26421100  0.53926700  0.38698200  1
  H  1291  1  0.22369000  0.47740600  0.37310200  1
  H  1292  1  0.26742400  0.51016800  0.39125600  1
  H  1295  1  0.23316100  0.55792000  0.35652600  1
  H  1296  1  0.27334300  0.42862200  0.37305300  1
  H  1303  1  0.75077700  0.50096800  0.64964700  1
  H  1304  1  0.75442300  0.52980200  0.65370900  1
  H  1311  1  0.70012200  0.48563900  0.62699200  1
  H  1312  1  0.69512900  0.45662100  0.62675300  1
  H  1313  1  0.75051100  0.44828400  0.63148800  1
  H  1314  1  0.71531600  0.53939700  0.61735400  1
  H  1315  1  0.75553500  0.47738900  0.63127800  1
  H  1316  1  0.71202800  0.51032000  0.61293100  1
  H  1319  1  0.74653800  0.55782500  0.64776700  1
  H  1320  1  0.70589000  0.42858000  0.63004600  1
  H  1327  1  0.25081000  0.98621500  0.35464700  1
  H  1328  1  0.25445400  0.95738200  0.35058100  1
  H  1335  1  0.20009600  0.00154400  0.37718100  1
  H  1336  1  0.19510100  0.03056000  0.37738500  1
  H  1337  1  0.25049800  0.03889700  0.37278200  1
  H  1338  1  0.21524600  0.94778800  0.38684400  1
  H  1339  1  0.25552200  0.00979300  0.37302900  1
  H  1340  1  0.21196200  0.97686500  0.39127500  1
  H  1343  1  0.24649300  0.92936000  0.35644800  1
  H  1344  1  0.20586500  0.05857500  0.37404500  1
  H  1351  1  0.99811200  0.49940600  0.83850800  1
  H  1352  1  0.99372800  0.52834200  0.83429300  1
  H  1359  1  0.03616200  0.48396000  0.87549100  1
  H  1360  1  0.03830400  0.45461200  0.87947100  1
  H  1361  1  0.98581400  0.44894500  0.86102600  1
  H  1362  1  0.01375000  0.53797400  0.88228900  1
  H  1363  1  0.98361600  0.47811500  0.85727900  1
  H  1364  1  0.01786900  0.50891400  0.88660200  1
  H  1367  1  0.98887800  0.55559400  0.84905000  1
  H  1368  1  0.01880400  0.42718400  0.88248400  1
  H  1375  1  0.49812300  0.98776800  0.16573800  1
  H  1376  1  0.49376800  0.95883200  0.16997000  1
  H  1383  1  0.53616900  0.00321800  0.12875600  1
  H  1384  1  0.53829500  0.03256700  0.12477300  1
  H  1385  1  0.48579500  0.03821100  0.14319900  1
  H  1386  1  0.51380000  0.94918500  0.12197900  1
  H  1387  1  0.48361400  0.00904000  0.14695000  1
  H  1388  1  0.51789100  0.97824600  0.11765000  1
  H  1391  1  0.48895300  0.93156400  0.15524500  1
  H  1392  1  0.51877600  0.05998700  0.12175100  1
  H  1399  1  0.24472400  0.40525600  0.25761400  1
  H  1400  1  0.23961700  0.40895800  0.28648400  1
  H  1407  1  0.28563700  0.37070200  0.24242500  1
  H  1408  1  0.28848800  0.36711900  0.21312000  1
  H  1409  1  0.23496800  0.38261600  0.20689800  1
  H  1410  1  0.26320600  0.36229900  0.29606200  1
  H  1411  1  0.23206200  0.38593300  0.23602000  1
  H  1412  1  0.26799200  0.35843500  0.26704500  1
  H  1415  1  0.23516400  0.39262600  0.31358000  1
  H  1416  1  0.26926200  0.36313500  0.18541400  1
  H  1423  1  0.74474300  0.08184900  0.74663000  1
  H  1424  1  0.73963300  0.07814000  0.71776200  1
  H  1431  1  0.78560100  0.11647500  0.76180300  1
  H  1432  1  0.78845600  0.12007700  0.79110400  1
  H  1433  1  0.73497400  0.10447900  0.79735400  1
  H  1434  1  0.76314100  0.12483100  0.70817600  1
  H  1435  1  0.73206200  0.10114600  0.76823400  1
  H  1436  1  0.76792800  0.12870500  0.73719100  1
  H  1439  1  0.73514800  0.09446100  0.69066400  1
  H  1440  1  0.76921900  0.12405500  0.81880900  1
  H  1447  1  0.48060700  0.98638200  0.83848400  1
  H  1448  1  0.48456000  0.95736600  0.83450700  1
  H  1455  1  0.44293900  0.00266700  0.87539600  1
  H  1456  1  0.44129200  0.03207300  0.87909600  1
  H  1457  1  0.49384100  0.03682100  0.86053700  1
  H  1458  1  0.46454400  0.94837200  0.88262900  1
  H  1459  1  0.49554600  0.00758700  0.85706800  1
  H  1460  1  0.46085900  0.97752700  0.88670700  1
  H  1463  1  0.48928500  0.93030700  0.84960900  1
  H  1464  1  0.46082900  0.05920700  0.88170400  1
  H  1471  1  0.98062300  0.50080800  0.16576100  1
  H  1472  1  0.98454700  0.52982600  0.16975900  1
  H  1479  1  0.94295800  0.48452200  0.12885300  1
  H  1480  1  0.94132500  0.45511600  0.12514800  1
  H  1481  1  0.99388700  0.45038900  0.14368600  1
  H  1482  1  0.96451600  0.53883600  0.12164400  1
  H  1483  1  0.99557600  0.47962500  0.14716000  1
  H  1484  1  0.96085900  0.50967900  0.11754700  1
  H  1487  1  0.98922900  0.55690100  0.15469300  1
  H  1488  1  0.96088100  0.42798900  0.12253000  1
  H  1495  1  0.23387100  0.08192700  0.25908700  1
  H  1496  1  0.23858300  0.07854400  0.28804600  1
  H  1503  1  0.19343600  0.11648200  0.24297500  1
  H  1504  1  0.19106200  0.11970400  0.21359700  1
  H  1505  1  0.24460600  0.10393100  0.20828700  1
  H  1506  1  0.21518400  0.12544100  0.29683100  1
  H  1507  1  0.24703400  0.10097100  0.23748300  1
  H  1508  1  0.21079700  0.12899000  0.26770500  1
  H  1511  1  0.24298700  0.09530000  0.31486600  1
  H  1512  1  0.21030100  0.12315200  0.18616900  1
  H  1519  1  0.73385900  0.40532300  0.74517700  1
  H  1520  1  0.73855700  0.40872900  0.71621800  1
  H  1527  1  0.69347700  0.37070200  0.76127800  1
  H  1528  1  0.69111600  0.36745400  0.79065200  1
  H  1529  1  0.74463200  0.38330400  0.79596600  1
  H  1530  1  0.71521800  0.36180900  0.70741500  1
  H  1531  1  0.74705000  0.38629000  0.76677100  1
  H  1532  1  0.71084600  0.35823800  0.73653800  1
  H  1535  1  0.74298000  0.39198400  0.68939100  1
  H  1536  1  0.71037900  0.36400400  0.81807100  1
  H  1543  1  0.73291600  0.58052600  0.74673800  1
  H  1544  1  0.73700600  0.57622300  0.71782500  1
  H  1551  1  0.69348500  0.61601200  0.76239000  1
  H  1552  1  0.69149600  0.61985000  0.79171900  1
  H  1553  1  0.74498000  0.60381500  0.79678100  1
  H  1554  1  0.71489700  0.62348800  0.70812600  1
  H  1555  1  0.74699600  0.60017200  0.76763100  1
  H  1556  1  0.71104000  0.62788000  0.73716200  1
  H  1559  1  0.74068300  0.59069600  0.69043600  1
  H  1560  1  0.71060700  0.62327100  0.81903300  1
  H  1567  1  0.23285800  0.90674200  0.25751000  1
  H  1568  1  0.23695300  0.91104400  0.28642100  1
  H  1575  1  0.19352400  0.87115500  0.24186800  1
  H  1576  1  0.19152800  0.86730700  0.21254000  1
  H  1577  1  0.24495800  0.88349400  0.20745000  1
  H  1578  1  0.21498600  0.86372100  0.29611300  1
  H  1579  1  0.24697900  0.88714400  0.23659700  1
  H  1580  1  0.21112500  0.85933000  0.26707900  1
  H  1583  1  0.24067300  0.89658700  0.31380500  1
  H  1584  1  0.21063800  0.86392300  0.18522500  1
  H  1591  1  0.74688100  0.90675500  0.74525300  1
  H  1592  1  0.74314900  0.91076600  0.71626300  1
  H  1599  1  0.78589600  0.87128600  0.76171400  1
  H  1600  1  0.78747000  0.86776700  0.79109800  1
  H  1601  1  0.73398900  0.88405100  0.79536600  1
  H  1602  1  0.76512300  0.86330900  0.70726500  1
  H  1603  1  0.73238800  0.88737300  0.76615600  1
  H  1604  1  0.76862000  0.85920300  0.73639300  1
  H  1607  1  0.73950700  0.89589000  0.68910600  1
  H  1608  1  0.76837900  0.86484400  0.81816600  1
  H  1615  1  0.24695100  0.58034100  0.25897600  1
  H  1616  1  0.24322900  0.57632100  0.28796700  1
  H  1623  1  0.28585500  0.61592300  0.24251800  1
  H  1624  1  0.28741300  0.61946100  0.21313600  1
  H  1625  1  0.23398800  0.60302300  0.20886500  1
  H  1626  1  0.26505800  0.62383500  0.29696600  1
  H  1627  1  0.23240200  0.59968000  0.23807200  1
  H  1628  1  0.26854200  0.62794900  0.26783800  1
  H  1631  1  0.23953900  0.59118500  0.31512100  1
  H  1632  1  0.26831100  0.62235100  0.18607600  1
  H  1639  1  0.49356500  0.00026100  0.34080700  1
  H  1640  1  0.48868200  0.02922200  0.33722000  1
  H  1647  1  0.53556000  0.98464900  0.37381900  1
  H  1648  1  0.53823000  0.95525800  0.37714400  1
  H  1649  1  0.48397200  0.94963900  0.36377700  1
  H  1650  1  0.51401000  0.03862900  0.38305400  1
  H  1651  1  0.48127600  0.97884200  0.36068300  1
  H  1652  1  0.51860100  0.00951900  0.38680100  1
  H  1655  1  0.48515300  0.05639300  0.35345400  1
  H  1656  1  0.51952600  0.92760500  0.38129700  1
  H  1663  1  0.99351600  0.48692800  0.66341700  1
  H  1664  1  0.98866600  0.45796700  0.66703400  1
  H  1671  1  0.03555700  0.50253200  0.63046000  1
  H  1672  1  0.03822100  0.53192400  0.62713300  1
  H  1673  1  0.98393600  0.53752800  0.64041100  1
  H  1674  1  0.01407900  0.44853200  0.62124700  1
  H  1675  1  0.98124500  0.50832300  0.64350700  1
  H  1676  1  0.01863700  0.47764100  0.61747000  1
  H  1679  1  0.98521500  0.43076500  0.65085600  1
  H  1680  1  0.01949700  0.55957200  0.62294000  1
  H  1687  1  0.98547500  0.48542300  0.34080300  1
  H  1688  1  0.98994200  0.45637700  0.33749200  1
  H  1695  1  0.94402500  0.50188000  0.37396500  1
  H  1696  1  0.94178600  0.53132800  0.37696500  1
  H  1697  1  0.99599100  0.53616400  0.36310600  1
  H  1698  1  0.96490700  0.44773200  0.38361500  1
  H  1699  1  0.99825900  0.50689500  0.36033700  1
  H  1700  1  0.96074200  0.47694400  0.38708900  1
  H  1703  1  0.99342800  0.42944900  0.35414900  1
  H  1704  1  0.96043000  0.55873300  0.38048800  1
  H  1711  1  0.48556600  0.00174600  0.66342000  1
  H  1712  1  0.48999500  0.03079200  0.66676800  1
  H  1719  1  0.44405400  0.98530400  0.63032600  1
  H  1720  1  0.44181900  0.95585600  0.62732200  1
  H  1721  1  0.49605900  0.95103300  0.64107000  1
  H  1722  1  0.46485000  0.03947600  0.62070500  1
  H  1723  1  0.49832200  0.98030300  0.64384100  1
  H  1724  1  0.46072200  0.01026600  0.61719400  1
  H  1727  1  0.49338200  0.05776000  0.65018600  1
  H  1728  1  0.46048000  0.92845300  0.62375200  1
  H  1735  1  0.85652900  0.38476300  0.88056900  1
  H  1736  1  0.82495200  0.38857700  0.88004200  1
  H  1743  1  0.87613400  0.34399300  0.91087900  1
  H  1744  1  0.90761600  0.33965400  0.91087400  1
  H  1745  1  0.91174400  0.36522300  0.86534700  1
  H  1746  1  0.81789100  0.33894100  0.89560500  1
  H  1747  1  0.88009800  0.36908900  0.86504400  1
  H  1748  1  0.84924800  0.33494900  0.89539500  1
  H  1751  1  0.79473700  0.37755700  0.88835000  1
  H  1752  1  0.93636700  0.33933500  0.89018000  1
  H  1759  1  0.35651300  0.10243900  0.12364700  1
  H  1760  1  0.32493700  0.09862300  0.12417900  1
  H  1767  1  0.37611500  0.14322500  0.09336100  1
  H  1768  1  0.40759700  0.14756300  0.09336700  1
  H  1769  1  0.41172300  0.12197400  0.13888300  1
  H  1770  1  0.31786800  0.14826800  0.10865000  1
  H  1771  1  0.38007800  0.11810800  0.13918500  1
  H  1772  1  0.34922600  0.15226200  0.10885400  1
  H  1775  1  0.29471600  0.10965300  0.11587600  1
  H  1776  1  0.43635000  0.14786700  0.11403700  1
  H  1783  1  0.10658000  0.36508900  0.14302900  1
  H  1784  1  0.07500500  0.36562900  0.14685200  1
  H  1791  1  0.12614200  0.33492600  0.10217200  1
  H  1792  1  0.15762000  0.33493800  0.09782200  1
  H  1793  1  0.16178400  0.38042400  0.12354600  1
  H  1794  1  0.06789800  0.35031800  0.09721400  1
  H  1795  1  0.13014200  0.38071900  0.12743000  1
  H  1796  1  0.09925800  0.35051100  0.09321700  1
  H  1799  1  0.04477200  0.35736100  0.13580600  1
  H  1800  1  0.18635000  0.35553700  0.09756800  1
  H  1807  1  0.60655700  0.12205100  0.86118700  1
  H  1808  1  0.57498200  0.12151500  0.85737400  1
  H  1815  1  0.62611800  0.15216500  0.90208100  1
  H  1816  1  0.65760000  0.15217900  0.90640300  1
  H  1817  1  0.66179600  0.10674500  0.88059300  1
  H  1818  1  0.56789700  0.13675900  0.90703600  1
  H  1819  1  0.63014900  0.10642100  0.87673800  1
  H  1820  1  0.59925600  0.13655700  0.91102100  1
  H  1823  1  0.54475700  0.12975500  0.86843500  1
  H  1824  1  0.68635900  0.13149400  0.90659800  1
  H  1831  1  0.12261800  0.60202100  0.12260800  1
  H  1832  1  0.15425400  0.59861200  0.12284200  1
  H  1839  1  0.10236800  0.64374600  0.09419100  1
  H  1840  1  0.07080100  0.64750400  0.09427200  1
  H  1841  1  0.06709000  0.62002800  0.13871300  1
  H  1842  1  0.16048300  0.64906400  0.10977600  1
  H  1843  1  0.09881300  0.61670800  0.13894300  1
  H  1844  1  0.12905600  0.65260600  0.11024500  1
  H  1847  1  0.18419700  0.61041400  0.11479800  1
  H  1848  1  0.04204100  0.64646200  0.11453200  1
  H  1855  1  0.62262700  0.88513400  0.88165800  1
  H  1856  1  0.65426300  0.88854600  0.88142300  1
  H  1863  1  0.60237700  0.84340000  0.91005600  1
  H  1864  1  0.57081000  0.83964100  0.90997100  1
  H  1865  1  0.56710700  0.86712800  0.86553500  1
  H  1866  1  0.66049800  0.83808900  0.89446700  1
  H  1867  1  0.59882900  0.87044800  0.86531100  1
  H  1868  1  0.62907000  0.83454500  0.89400000  1
  H  1871  1  0.68421100  0.87673800  0.88946700  1
  H  1872  1  0.54205200  0.84069200  0.88972700  1
  H  1879  1  0.87330500  0.62208300  0.86091000  1
  H  1880  1  0.90487900  0.62096700  0.85715200  1
  H  1887  1  0.85414900  0.65293100  0.90140900  1
  H  1888  1  0.82267500  0.65326000  0.90585600  1
  H  1889  1  0.81795600  0.60748100  0.88073500  1
  H  1890  1  0.91218100  0.63666200  0.90664800  1
  H  1891  1  0.84957100  0.60685700  0.87674600  1
  H  1892  1  0.88081100  0.63705400  0.91058300  1
  H  1895  1  0.93527100  0.62907200  0.86824600  1
  H  1896  1  0.79377300  0.63263800  0.90655200  1
  H  1903  1  0.37332300  0.86515800  0.14335900  1
  H  1904  1  0.40489700  0.86626700  0.14710500  1
  H  1911  1  0.35415900  0.83435100  0.10283000  1
  H  1912  1  0.32268300  0.83399900  0.09841200  1
  H  1913  1  0.31793900  0.87973500  0.12360900  1
  H  1914  1  0.41217200  0.85063100  0.09758600  1
  H  1915  1  0.34956000  0.88038400  0.12756800  1
  H  1916  1  0.38080000  0.85024900  0.09366400  1
  H  1919  1  0.43527900  0.85818400  0.13599400  1
  H  1920  1  0.29375300  0.85471300  0.09777200  1
  H  1927  1  0.35587000  0.88561400  0.38036300  1
  H  1928  1  0.32427500  0.88917600  0.37913600  1
  H  1935  1  0.37513700  0.84498800  0.41101700  1
  H  1936  1  0.40664000  0.84073800  0.41151600  1
  H  1937  1  0.41149900  0.86623400  0.36600600  1
  H  1938  1  0.31728000  0.83944800  0.39443700  1
  H  1939  1  0.37985900  0.87002700  0.36521200  1
  H  1940  1  0.34867500  0.83571500  0.39494000  1
  H  1943  1  0.29395700  0.87786100  0.38697500  1
  H  1944  1  0.43567900  0.84032500  0.39109900  1
  H  1951  1  0.85584800  0.60158700  0.62385900  1
  H  1952  1  0.82425500  0.59802300  0.62509300  1
  H  1959  1  0.87510700  0.64222700  0.59321800  1
  H  1960  1  0.90661000  0.64647700  0.59271800  1
  H  1961  1  0.91147500  0.62096800  0.63822100  1
  H  1962  1  0.81725100  0.64775700  0.60981500  1
  H  1963  1  0.87983500  0.61717400  0.63901600  1
  H  1964  1  0.84864600  0.65149200  0.60930500  1
  H  1967  1  0.79393200  0.60934300  0.61726200  1
  H  1968  1  0.93565400  0.64688000  0.61311000  1
  H  1975  1  0.60624500  0.86355700  0.64395100  1
  H  1976  1  0.57458400  0.86392100  0.64715300  1
  H  1983  1  0.62666700  0.83576200  0.60192700  1
  H  1984  1  0.65825200  0.83583100  0.59830400  1
  H  1985  1  0.66194800  0.87987200  0.62648700  1
  H  1986  1  0.56865000  0.85180600  0.59650800  1
  H  1987  1  0.63021400  0.88011000  0.62968700  1
  H  1988  1  0.60011000  0.85213600  0.59319000  1
  H  1991  1  0.54467200  0.85626800  0.63502100  1
  H  1992  1  0.68698800  0.85577100  0.59973400  1
  H  1999  1  0.10622500  0.62358600  0.36026900  1
  H  2000  1  0.07456400  0.62322000  0.35707200  1
  H  2007  1  0.12662900  0.65133100  0.40233600  1
  H  2008  1  0.15821600  0.65129800  0.40593700  1
  H  2009  1  0.16196100  0.60732100  0.37766300  1
  H  2010  1  0.06863800  0.63525900  0.40773600  1
  H  2011  1  0.13022500  0.60704200  0.37448700  1
  H  2012  1  0.10009700  0.63492600  0.41105100  1
  H  2015  1  0.04465500  0.63083400  0.36921200  1
  H  2016  1  0.18698500  0.63132000  0.40444700  1
  H  2023  1  0.62308600  0.10174500  0.62350000  1
  H  2024  1  0.65471200  0.09836100  0.62454700  1
  H  2031  1  0.60357100  0.14320700  0.59426000  1
  H  2032  1  0.57201800  0.14712500  0.59372700  1
  H  2033  1  0.56721900  0.12013000  0.63837400  1
  H  2034  1  0.66127600  0.14870400  0.61120000  1
  H  2035  1  0.59890200  0.11664400  0.63920700  1
  H  2036  1  0.62984600  0.15222300  0.61085400  1
  H  2039  1  0.68486400  0.11014300  0.61693600  1
  H  2040  1  0.54291500  0.14659500  0.61376400  1
  H  2047  1  0.12309800  0.38540500  0.38076400  1
  H  2048  1  0.15472300  0.38879400  0.37971300  1
  H  2055  1  0.10359000  0.34393700  0.40999900  1
  H  2056  1  0.07203900  0.34001500  0.41053100  1
  H  2057  1  0.06723800  0.36701000  0.36588400  1
  H  2058  1  0.16130000  0.33845100  0.39305100  1
  H  2059  1  0.09892100  0.37050000  0.36505200  1
  H  2060  1  0.12987000  0.33492600  0.39340300  1
  H  2063  1  0.18488100  0.37701200  0.38732000  1
  H  2064  1  0.04293400  0.34054800  0.39051100  1
  H  2071  1  0.37333300  0.12271100  0.35995000  1
  H  2072  1  0.40499100  0.12195600  0.35676000  1
  H  2079  1  0.35331000  0.15144100  0.40149000  1
  H  2080  1  0.32172100  0.15180700  0.40513500  1
  H  2081  1  0.31740500  0.10732900  0.37772000  1
  H  2082  1  0.41107100  0.13477300  0.40721900  1
  H  2083  1  0.34912800  0.10666300  0.37449900  1
  H  2084  1  0.37960800  0.13484000  0.41053400  1
  H  2087  1  0.43496100  0.12971900  0.36877800  1
  H  2088  1  0.29274800  0.13178900  0.40416400  1
  H  2095  1  0.87334800  0.36453100  0.64432300  1
  H  2096  1  0.90500600  0.36528800  0.64750600  1
  H  2103  1  0.85333400  0.33584400  0.60274900  1
  H  2104  1  0.82174500  0.33544500  0.59912700  1
  H  2105  1  0.81738700  0.37986900  0.62662300  1
  H  2106  1  0.91106900  0.35253800  0.59702800  1
  H  2107  1  0.84911300  0.38057300  0.62981700  1
  H  2108  1  0.87960800  0.35247400  0.59372100  1
  H  2111  1  0.93497000  0.35755800  0.63547900  1
  H  2112  1  0.79273800  0.35551300  0.60015600  1
  H  2119  1  0.98787100  0.39799900  0.99280500  1
  H  2120  1  0.98748800  0.40124200  0.96360500  1
  H  2127  1  0.97082600  0.34906100  0.01131000  1
  H  2128  1  0.97055200  0.34519000  0.04051300  1
  H  2129  1  0.00519400  0.38603600  0.04615900  1
  H  2130  1  0.98934200  0.34929300  0.95777600  1
  H  2131  1  0.00583000  0.38963900  0.01697400  1
  H  2132  1  0.99025200  0.34607200  0.98703100  1
  H  2135  1  0.97912500  0.38814500  0.93721000  1
  H  2136  1  0.98911300  0.34979100  0.06653800  1
  H  2143  1  0.48785700  0.08917900  0.01146400  1
  H  2144  1  0.48747600  0.08593800  0.04066300  1
  H  2151  1  0.47082500  0.13812300  0.99295300  1
  H  2152  1  0.47055700  0.14199200  0.96375100  1
  H  2153  1  0.50517900  0.10113200  0.95810800  1
  H  2154  1  0.48934200  0.13788700  0.04648700  1
  H  2155  1  0.50581100  0.09753000  0.98729300  1
  H  2156  1  0.49024900  0.14110500  0.01723300  1
  H  2159  1  0.47912300  0.09903600  0.06705800  1
  H  2160  1  0.48909800  0.13738100  0.93771400  1
  H  2167  1  0.23788900  0.25285200  0.15615500  1
  H  2168  1  0.23755200  0.28209900  0.15941800  1
  H  2175  1  0.22059700  0.23440700  0.10740000  1
  H  2176  1  0.22031000  0.20515700  0.10350100  1
  H  2177  1  0.25530900  0.19948600  0.14402900  1
  H  2178  1  0.23931000  0.28796600  0.10754000  1
  H  2179  1  0.25595300  0.22870800  0.14765700  1
  H  2180  1  0.24016900  0.25867000  0.10430300  1
  H  2183  1  0.22927900  0.30856000  0.14639000  1
  H  2184  1  0.23889400  0.17907800  0.10796700  1
  H  2191  1  0.73793000  0.23434400  0.84812000  1
  H  2192  1  0.73758800  0.20509800  0.84485400  1
  H  2199  1  0.72061600  0.25277400  0.89686900  1
  H  2200  1  0.72031700  0.28202400  0.90077200  1
  H  2201  1  0.75533900  0.28771200  0.86026200  1
  H  2202  1  0.73934000  0.19922400  0.89673200  1
  H  2203  1  0.75599400  0.25848900  0.85663100  1
  H  2204  1  0.74020400  0.22851800  0.89997200  1
  H  2207  1  0.72931400  0.17862600  0.85787400  1
  H  2208  1  0.73884200  0.30813100  0.89631400  1
  H  2215  1  0.99124600  0.58839300  0.01136800  1
  H  2216  1  0.99144800  0.58508700  0.04055400  1
  H  2223  1  0.00839100  0.63737600  0.99300700  1
  H  2224  1  0.00879700  0.64126200  0.96380200  1
  H  2225  1  0.97421900  0.60038900  0.95800300  1
  H  2226  1  0.98964700  0.63702900  0.04648900  1
  H  2227  1  0.97343400  0.59678200  0.98717700  1
  H  2228  1  0.98890300  0.64031300  0.01723700  1
  H  2231  1  0.99953800  0.59803400  0.06702500  1
  H  2232  1  0.99022200  0.63662800  0.93770100  1
  H  2239  1  0.49126100  0.89879500  0.99284100  1
  H  2240  1  0.49146100  0.90209700  0.96365600  1
  H  2247  1  0.50838000  0.84980500  0.01121300  1
  H  2248  1  0.50877800  0.84592100  0.04041800  1
  H  2249  1  0.47422800  0.88681500  0.04620900  1
  H  2250  1  0.48963700  0.85015400  0.95772900  1
  H  2251  1  0.47345000  0.89042000  0.01703400  1
  H  2252  1  0.48889500  0.84687500  0.98698200  1
  H  2255  1  0.49953800  0.88914500  0.93718500  1
  H  2256  1  0.49022500  0.85057100  0.06653000  1
  H  2263  1  0.74134600  0.73435400  0.84820700  1
  H  2264  1  0.74161700  0.70511500  0.84493800  1
  H  2271  1  0.75841600  0.75274600  0.89708700  1
  H  2272  1  0.75878100  0.78199400  0.90099200  1
  H  2273  1  0.72414800  0.78778200  0.86021200  1
  H  2274  1  0.73961700  0.69923600  0.89680600  1
  H  2275  1  0.72341400  0.75856800  0.85658300  1
  H  2276  1  0.73881000  0.72853000  0.90004600  1
  H  2279  1  0.74993500  0.67870800  0.85799900  1
  H  2280  1  0.74014300  0.80807200  0.89644200  1
  H  2287  1  0.24131300  0.75282000  0.15601300  1
  H  2288  1  0.24159100  0.78205800  0.15928300  1
  H  2295  1  0.25839100  0.73443900  0.10713400  1
  H  2296  1  0.25876700  0.70519100  0.10322600  1
  H  2297  1  0.22412800  0.69938800  0.14399900  1
  H  2298  1  0.23958700  0.78794200  0.10741600  1
  H  2299  1  0.22338300  0.72860200  0.14763100  1
  H  2300  1  0.23877400  0.75864700  0.10417300  1
  H  2303  1  0.24990700  0.80847700  0.14622900  1
  H  2304  1  0.24019400  0.67908500  0.10777300  1
  H  2311  1  0.48804100  0.89871200  0.49283300  1
  H  2312  1  0.48776300  0.90197900  0.46363700  1
  H  2319  1  0.47084400  0.84976900  0.51120200  1
  H  2320  1  0.47045400  0.84583800  0.54039600  1
  H  2321  1  0.50511500  0.88664600  0.54623600  1
  H  2322  1  0.48958800  0.85003100  0.45777200  1
  H  2323  1  0.50587100  0.89030400  0.51706400  1
  H  2324  1  0.49039800  0.84678500  0.48702100  1
  H  2327  1  0.47936000  0.88890700  0.43726400  1
  H  2328  1  0.48906700  0.85032800  0.56643300  1
  H  2335  1  0.98801800  0.58846600  0.51143100  1
  H  2336  1  0.98774300  0.58520200  0.54062700  1
  H  2343  1  0.97084000  0.63741300  0.49305300  1
  H  2344  1  0.97045600  0.64134200  0.46385800  1
  H  2345  1  0.00509200  0.60051600  0.45802700  1
  H  2346  1  0.98958400  0.63715000  0.54648300  1
  H  2347  1  0.00584500  0.59686000  0.48719700  1
  H  2348  1  0.99039200  0.64039100  0.51723400  1
  H  2351  1  0.97935200  0.59827700  0.56699900  1
  H  2352  1  0.98904700  0.63683700  0.43780700  1
  H  2359  1  0.73817200  0.75277200  0.65775500  1
  H  2360  1  0.73793500  0.78200600  0.66107400  1
  H  2367  1  0.72074300  0.73441500  0.60897500  1
  H  2368  1  0.72037600  0.70516300  0.60507300  1
  H  2369  1  0.75536300  0.69940600  0.64559800  1
  H  2370  1  0.73950500  0.78797100  0.60920100  1
  H  2371  1  0.75610100  0.72862400  0.64921900  1
  H  2372  1  0.74027800  0.75868000  0.60590600  1
  H  2375  1  0.72981600  0.80852100  0.64820100  1
  H  2376  1  0.73901700  0.67903400  0.60956700  1
  H  2383  1  0.23820600  0.73442200  0.34650500  1
  H  2384  1  0.23796500  0.70518900  0.34318300  1
  H  2391  1  0.22076700  0.75276600  0.39528200  1
  H  2392  1  0.22039000  0.78201700  0.39918800  1
  H  2393  1  0.25539200  0.78778900  0.35867600  1
  H  2394  1  0.23953700  0.69921700  0.39505500  1
  H  2395  1  0.25614000  0.75857200  0.35505100  1
  H  2396  1  0.24031700  0.72850800  0.39835400  1
  H  2399  1  0.22984200  0.67866300  0.35605200  1
  H  2400  1  0.23897500  0.80817100  0.39470200  1
  H  2407  1  0.49125300  0.08901400  0.51137700  1
  H  2408  1  0.49139400  0.08572200  0.54055400  1
  H  2415  1  0.50799200  0.13819800  0.49298600  1
  H  2416  1  0.50842400  0.14207500  0.46378300  1
  H  2417  1  0.47448200  0.10076500  0.45791600  1
  H  2418  1  0.48930600  0.13764900  0.54647300  1
  H  2419  1  0.47364500  0.09717400  0.48708600  1
  H  2420  1  0.48860300  0.14092000  0.51721900  1
  H  2423  1  0.49943500  0.09868800  0.56699300  1
  H  2424  1  0.48974300  0.13723600  0.43770300  1
  H  2431  1  0.99127000  0.39817200  0.49284100  1
  H  2432  1  0.99141200  0.40145400  0.46366300  1
  H  2439  1  0.00798200  0.34898100  0.51124900  1
  H  2440  1  0.00840800  0.34511200  0.54045300  1
  H  2441  1  0.97449700  0.38644600  0.54630500  1
  H  2442  1  0.98930200  0.34952600  0.45776100  1
  H  2443  1  0.97366500  0.39003000  0.51713500  1
  H  2444  1  0.98859900  0.34626500  0.48701700  1
  H  2447  1  0.99943900  0.38848100  0.43722800  1
  H  2448  1  0.98974600  0.34997300  0.56654500  1
  H  2455  1  0.24131400  0.23436600  0.34639900  1
  H  2456  1  0.24144100  0.20513900  0.34308800  1
  H  2463  1  0.25836300  0.25269500  0.39535800  1
  H  2464  1  0.25878100  0.28194400  0.39927100  1
  H  2465  1  0.22433300  0.28781200  0.35837200  1
  H  2466  1  0.23947600  0.19918400  0.39494900  1
  H  2467  1  0.22352600  0.25860300  0.35474400  1
  H  2468  1  0.23879500  0.22847900  0.39823400  1
  H  2471  1  0.24943300  0.17864200  0.35599900  1
  H  2472  1  0.24007000  0.30805600  0.39463800  1
  H  2479  1  0.74128600  0.25280800  0.65784100  1
  H  2480  1  0.74142200  0.28203500  0.66115500  1
  H  2487  1  0.75833200  0.23448700  0.60888200  1
  H  2488  1  0.75875800  0.20523900  0.60496600  1
  H  2489  1  0.72431400  0.19935900  0.64586600  1
  H  2490  1  0.73944800  0.28799400  0.60929700  1
  H  2491  1  0.72350000  0.22856800  0.64949600  1
  H  2492  1  0.73875900  0.25870000  0.60600900  1
  H  2495  1  0.74941700  0.30854200  0.64824800  1
  H  2496  1  0.74010700  0.17910100  0.60959700  1
  H  2503  1  0.06939380  0.48318300  0.99377100  1
  H  2512  1  0.10490200  0.51396200  0.00674540  1
  H  2515  1  0.12658900  0.48736300  0.01783640  1
  H  2516  1  0.12341900  0.48427500  0.03781540  1
  H  2517  1  0.10024400  0.46276500  0.96426100  1
  H  2518  1  0.09617480  0.46074900  0.98423400  1
  H  2519  1  0.12361200  0.51570100  0.94264300  1
  H  2520  1  0.12573400  0.53155000  0.95527800  1
  H  2521  1  0.06363580  0.46881300  0.05846640  1
  H  2522  1  0.04679680  0.46838200  0.04547340  1
  H  2533  1  0.56936600  0.22714100  0.25804200  1
  H  2542  1  0.60486700  0.19635100  0.24504300  1
  H  2545  1  0.62656800  0.22294700  0.23398500  1
  H  2546  1  0.62340800  0.22604800  0.21400600  1
  H  2547  1  0.60024900  0.24755600  0.28753400  1
  H  2548  1  0.59616900  0.24957100  0.26756100  1
  H  2549  1  0.62355100  0.19458600  0.30916300  1
  H  2550  1  0.62566800  0.17874500  0.29652100  1
  H  2551  1  0.56362500  0.24150400  0.19334000  1
  H  2552  1  0.54678300  0.24193900  0.20632800  1
  H  2563  1  0.31946500  0.48735100  0.25369100  1
  H  2572  1  0.35483200  0.47409300  0.28446800  1
  H  2575  1  0.37660600  0.46314400  0.25790700  1
  H  2576  1  0.37341500  0.44314900  0.25475400  1
  H  2577  1  0.35070100  0.51684900  0.23346700  1
  H  2578  1  0.34654100  0.49686900  0.23136800  1
  H  2579  1  0.37336400  0.53834600  0.28663900  1
  H  2580  1  0.37543300  0.52560500  0.30240600  1
  H  2581  1  0.31360000  0.42258700  0.23923200  1
  H  2582  1  0.29678400  0.43562900  0.23878000  1
  H  2593  1  0.81945800  0.22300000  0.99804900  1
  H  2602  1  0.85485000  0.23623600  0.96733000  1
  H  2605  1  0.87662300  0.24718900  0.99389200  1
  H  2606  1  0.87343000  0.26718300  0.99705100  1
  H  2607  1  0.85061600  0.19347500  0.01831840  1
  H  2608  1  0.84644800  0.21345200  0.02042140  1
  H  2609  1  0.87349800  0.17202300  0.96522200  1
  H  2610  1  0.87557100  0.18475700  0.94944800  1
  H  2611  1  0.81363200  0.28774100  0.01261240  1
  H  2612  1  0.79680000  0.27471700  0.01301340  1
  H  2623  1  0.62302900  0.22872200  0.99347900  1
  H  2632  1  0.58926500  0.19508100  0.00626640  1
  H  2635  1  0.56711100  0.21982900  0.01849540  1
  H  2636  1  0.57077200  0.22132100  0.03857340  1
  H  2637  1  0.59163300  0.24720600  0.96474300  1
  H  2638  1  0.59565300  0.24904400  0.98474000  1
  H  2639  1  0.57001300  0.19404000  0.94233000  1
  H  2640  1  0.56838700  0.17793900  0.95471000  1
  H  2641  1  0.63129200  0.23403700  0.05924840  1
  H  2642  1  0.64733200  0.23756800  0.04593840  1
  H  2653  1  0.12306500  0.48159800  0.25833100  1
  H  2662  1  0.08932580  0.51526200  0.24552400  1
  H  2665  1  0.06713980  0.49052300  0.23333500  1
  H  2666  1  0.07078480  0.48901900  0.21325500  1
  H  2667  1  0.09162780  0.46312900  0.28705200  1
  H  2668  1  0.09565780  0.46129200  0.26705700  1
  H  2669  1  0.07009380  0.51633500  0.30947500  1
  H  2670  1  0.06847980  0.53242900  0.29708900  1
  H  2671  1  0.13128800  0.47626000  0.19255400  1
  H  2672  1  0.14733200  0.47271600  0.20585800  1
  H  2683  1  0.37295800  0.22259500  0.25218000  1
  H  2692  1  0.33928600  0.23566600  0.28573400  1
  H  2695  1  0.31707900  0.24775700  0.26099500  1
  H  2696  1  0.32076100  0.26785600  0.25945300  1
  H  2697  1  0.34121500  0.19387000  0.23383000  1
  H  2698  1  0.34532800  0.21387500  0.23191200  1
  H  2699  1  0.32023500  0.17157200  0.28719200  1
  H  2700  1  0.31863800  0.18406100  0.30320600  1
  H  2701  1  0.38126800  0.28843300  0.24646900  1
  H  2702  1  0.39730500  0.27507400  0.24302600  1
  H  2713  1  0.87296100  0.48774500  0.99962900  1
  H  2722  1  0.83930900  0.47465800  0.96608600  1
  H  2725  1  0.81709000  0.46255200  0.99077700  1
  H  2726  1  0.82079200  0.44245800  0.99234400  1
  H  2727  1  0.84126200  0.51647700  0.01797040  1
  H  2728  1  0.84538800  0.49647800  0.01990640  1
  H  2729  1  0.82011500  0.53870600  0.96465300  1
  H  2730  1  0.81853700  0.52622000  0.94863400  1
  H  2731  1  0.88128600  0.42191500  0.00540240  1
  H  2732  1  0.89732300  0.43527900  0.00882840  1
  H  2743  1  0.12281600  0.72574300  0.25807000  1
  H  2752  1  0.08561480  0.69588500  0.24527300  1
  H  2755  1  0.06556880  0.72297100  0.23383100  1
  H  2756  1  0.06891080  0.72597100  0.21386800  1
  H  2757  1  0.09309580  0.74723700  0.28736900  1
  H  2758  1  0.09753280  0.74887100  0.26743500  1
  H  2759  1  0.06489380  0.69641700  0.30883500  1
  H  2760  1  0.06194680  0.68059500  0.29628100  1
  H  2761  1  0.12909400  0.74017800  0.19343200  1
  H  2762  1  0.14589600  0.74027100  0.20647700  1
  H  2773  1  0.62283800  0.98458300  0.99369800  1
  H  2782  1  0.58564100  0.01445520  0.00652140  1
  H  2785  1  0.56558500  0.98737400  0.01792840  1
  H  2786  1  0.56891600  0.98435900  0.03789240  1
  H  2787  1  0.59308600  0.96310000  0.96441200  1
  H  2788  1  0.59752900  0.96146500  0.98434400  1
  H  2789  1  0.56497600  0.01398020  0.94292800  1
  H  2790  1  0.56203400  0.02978620  0.95549600  1
  H  2791  1  0.62909700  0.97015000  0.05834240  1
  H  2792  1  0.64590200  0.97005200  0.04530340  1
  H  2803  1  0.87450400  0.72349300  0.99798300  1
  H  2812  1  0.83753200  0.73628800  0.96784800  1
  H  2815  1  0.81678800  0.74662000  0.99436900  1
  H  2816  1  0.81960100  0.76667100  0.99750500  1
  H  2817  1  0.84550600  0.69307400  0.01805640  1
  H  2818  1  0.84795400  0.71326000  0.02044640  1
  H  2819  1  0.82979700  0.67038700  0.96304400  1
  H  2820  1  0.82577800  0.68327800  0.94777200  1
  H  2821  1  0.87911100  0.78824400  0.01271040  1
  H  2822  1  0.89618900  0.77549500  0.01298840  1
  H  2833  1  0.37450300  0.98682300  0.25386400  1
  H  2842  1  0.33750600  0.97405500  0.28394200  1
  H  2845  1  0.31676700  0.96370800  0.25742100  1
  H  2846  1  0.31958800  0.94365800  0.25428400  1
  H  2847  1  0.34558700  0.01725920  0.23374000  1
  H  2848  1  0.34805300  0.99707700  0.23134600  1
  H  2849  1  0.32974600  0.03995220  0.28870800  1
  H  2850  1  0.32573900  0.02707020  0.30398800  1
  H  2851  1  0.37908500  0.92209600  0.23904000  1
  H  2852  1  0.39617500  0.93483000  0.23881200  1
  H  2863  1  0.57046700  0.98277900  0.25838700  1
  H  2872  1  0.60585900  0.01572320  0.24567200  1
  H  2875  1  0.62650100  0.99052700  0.23313500  1
  H  2876  1  0.62268900  0.98912700  0.21308000  1
  H  2877  1  0.60097300  0.96342000  0.28693100  1
  H  2878  1  0.59663100  0.96187000  0.26697600  1
  H  2879  1  0.62707400  0.01479820  0.30905400  1
  H  2880  1  0.62945600  0.03087520  0.29672600  1
  H  2881  1  0.56182400  0.97753900  0.19266300  1
  H  2882  1  0.54578800  0.97425600  0.20604000  1
  H  2893  1  0.07043880  0.72756700  0.99338500  1
  H  2902  1  0.10580800  0.69459500  0.00612040  1
  H  2905  1  0.12648000  0.71978400  0.01861540  1
  H  2906  1  0.12268500  0.72119800  0.03867240  1
  H  2907  1  0.10098600  0.74690300  0.96484900  1
  H  2908  1  0.09663480  0.74845700  0.98480200  1
  H  2909  1  0.12697700  0.69546400  0.94270800  1
  H  2910  1  0.12934800  0.67939900  0.95504900  1
  H  2911  1  0.06183880  0.73283900  0.05911540  1
  H  2912  1  0.04579680  0.73613700  0.04574640  1
  H  2923  1  0.81898000  0.98739700  0.99946500  1
  H  2932  1  0.85415800  0.97457500  0.96648200  1
  H  2935  1  0.87539700  0.96305200  0.99128600  1
  H  2936  1  0.87202000  0.94290200  0.99283800  1
  H  2937  1  0.84878100  0.01694420  0.01769640  1
  H  2938  1  0.84630600  0.99673800  0.01987340  1
  H  2939  1  0.86249400  0.04040320  0.96254100  1
  H  2940  1  0.86594900  0.02771020  0.94699000  1
  H  2941  1  0.81166000  0.92153700  0.00533740  1
  H  2942  1  0.79543800  0.93471500  0.00872340  1
  H  2953  1  0.31898700  0.72291600  0.25231400  1
  H  2962  1  0.35414500  0.73574400  0.28528800  1
  H  2965  1  0.37539600  0.74729500  0.26053200  1
  H  2966  1  0.37199600  0.76743900  0.25896100  1
  H  2967  1  0.34874100  0.69336800  0.23408000  1
  H  2968  1  0.34624300  0.71356800  0.23189000  1
  H  2969  1  0.36254100  0.66992500  0.28921400  1
  H  2970  1  0.36595700  0.68261500  0.30477500  1
  H  2971  1  0.31164300  0.78876900  0.24639600  1
  H  2972  1  0.29542300  0.77558500  0.24302700  1
  H  2983  1  0.56852100  0.98415400  0.49423500  1
  H  2992  1  0.60556800  0.01426520  0.50691600  1
  H  2995  1  0.62621200  0.98764400  0.51739400  1
  H  2996  1  0.62334800  0.98457700  0.53742000  1
  H  2997  1  0.59727600  0.96391500  0.46390700  1
  H  2998  1  0.59488000  0.96156800  0.48407300  1
  H  2999  1  0.61312000  0.01894120  0.44111900  1
  H  3000  1  0.61719100  0.03424720  0.45396600  1
  H  3001  1  0.56374900  0.96962900  0.55892300  1
  H  3002  1  0.54669200  0.96938600  0.54617200  1
  H  3013  1  0.06848580  0.72617400  0.75757100  1
  H  3022  1  0.10552300  0.69605500  0.74486600  1
  H  3025  1  0.12618500  0.72266700  0.73442000  1
  H  3026  1  0.12333100  0.72574900  0.71439500  1
  H  3027  1  0.09727180  0.74641700  0.78787700  1
  H  3028  1  0.09487180  0.74876200  0.76771100  1
  H  3029  1  0.11310800  0.69138300  0.81067000  1
  H  3030  1  0.11717400  0.67607500  0.79782500  1
  H  3031  1  0.06373280  0.74069400  0.69287600  1
  H  3032  1  0.04667280  0.74093900  0.70562200  1
  H  3043  1  0.81990500  0.98738700  0.75575000  1
  H  3052  1  0.85693800  0.97450300  0.78564700  1
  H  3055  1  0.87714100  0.96310100  0.75860500  1
  H  3056  1  0.87381100  0.94310500  0.75561500  1
  H  3057  1  0.85008600  0.01660020  0.73423800  1
  H  3058  1  0.84548300  0.99666100  0.73264600  1
  H  3059  1  0.87780400  0.03814820  0.78520300  1
  H  3060  1  0.88060100  0.02557520  0.80102400  1
  H  3061  1  0.81360800  0.92261000  0.74148500  1
  H  3062  1  0.79680300  0.93567200  0.74136600  1
  H  3073  1  0.31988900  0.72296500  0.49599900  1
  H  3082  1  0.35691600  0.73581800  0.46613400  1
  H  3085  1  0.37714600  0.74722800  0.49316300  1
  H  3086  1  0.37381800  0.76722300  0.49615900  1
  H  3087  1  0.35001200  0.69373100  0.51754400  1
  H  3088  1  0.34539600  0.71366600  0.51913600  1
  H  3089  1  0.37793700  0.67223600  0.46667400  1
  H  3090  1  0.38070400  0.68479400  0.45083200  1
  H  3091  1  0.31363700  0.78772400  0.51034900  1
  H  3092  1  0.29681700  0.77467900  0.51042900  1
  H  3103  1  0.12373300  0.72811700  0.49381300  1
  H  3112  1  0.08876380  0.69480200  0.50651100  1
  H  3115  1  0.06741480  0.71949600  0.51816400  1
  H  3116  1  0.07082380  0.72100500  0.53828300  1
  H  3117  1  0.09403680  0.74618900  0.46431700  1
  H  3118  1  0.09642280  0.74835500  0.48450000  1
  H  3119  1  0.08067180  0.69090100  0.44078600  1
  H  3120  1  0.07728480  0.67529700  0.45344100  1
  H  3121  1  0.13116100  0.73361900  0.55958700  1
  H  3122  1  0.14731900  0.73721900  0.54641700  1
  H  3133  1  0.62377500  0.98219400  0.75799000  1
  H  3142  1  0.58883700  0.01553320  0.74527200  1
  H  3145  1  0.56745200  0.99085300  0.73366000  1
  H  3146  1  0.57084300  0.98933100  0.71353900  1
  H  3147  1  0.59403700  0.96413200  0.78747000  1
  H  3148  1  0.59643100  0.96196800  0.76728700  1
  H  3149  1  0.58070200  0.01943420  0.81100200  1
  H  3150  1  0.57732800  0.03504020  0.79834700  1
  H  3151  1  0.63116200  0.97666800  0.69220800  1
  H  3152  1  0.64732400  0.97305400  0.70537100  1
  H  3163  1  0.87236400  0.72241700  0.75401900  1
  H  3172  1  0.83719000  0.73533300  0.78696600  1
  H  3175  1  0.81645200  0.74790500  0.76185400  1
  H  3176  1  0.82032900  0.76798000  0.76045200  1
  H  3177  1  0.84132500  0.69406900  0.73463900  1
  H  3178  1  0.84587400  0.71402000  0.73312200  1
  H  3179  1  0.81573900  0.67189500  0.78616800  1
  H  3180  1  0.81354000  0.68424600  0.80224000  1
  H  3181  1  0.88121000  0.78821000  0.74856600  1
  H  3182  1  0.89721100  0.77476300  0.74531800  1
  H  3193  1  0.37237900  0.98792000  0.49778800  1
  H  3202  1  0.33724500  0.97500100  0.46483700  1
  H  3205  1  0.31647300  0.96240600  0.48989300  1
  H  3206  1  0.32036700  0.94233900  0.49131700  1
  H  3207  1  0.34136700  0.01627120  0.51716200  1
  H  3208  1  0.34593700  0.99632700  0.51869000  1
  H  3209  1  0.31560800  0.03836820  0.46569800  1
  H  3210  1  0.31345300  0.02602620  0.44960800  1
  H  3211  1  0.38123700  0.92213200  0.50328500  1
  H  3212  1  0.39723600  0.93558400  0.50652200  1
  H  3223  1  0.62358400  0.22609000  0.75775000  1
  H  3232  1  0.58495000  0.19705800  0.74526600  1
  H  3235  1  0.56589000  0.22417300  0.73436100  1
  H  3236  1  0.56896100  0.22708800  0.71434200  1
  H  3237  1  0.59594400  0.24739000  0.78790200  1
  H  3238  1  0.59883400  0.24940900  0.76776300  1
  H  3239  1  0.57423300  0.19412100  0.81085500  1
  H  3240  1  0.56949100  0.17899800  0.79798600  1
  H  3241  1  0.62902200  0.24063600  0.69311200  1
  H  3242  1  0.64601800  0.24047700  0.70593600  1
  H  3253  1  0.12361400  0.48422300  0.49403300  1
  H  3262  1  0.08498080  0.51326500  0.50654800  1
  H  3265  1  0.06590980  0.48615900  0.51741000  1
  H  3266  1  0.06897180  0.48322900  0.53742900  1
  H  3267  1  0.09594680  0.46294000  0.46388900  1
  H  3268  1  0.09883380  0.46091400  0.48402700  1
  H  3269  1  0.07431480  0.51624900  0.44094700  1
  H  3270  1  0.06957180  0.53136700  0.45382000  1
  H  3271  1  0.12902900  0.46968000  0.55867700  1
  H  3272  1  0.14602900  0.46983400  0.54585800  1
  H  3283  1  0.37360300  0.22321500  0.49566100  1
  H  3292  1  0.33512700  0.23593100  0.46651000  1
  H  3295  1  0.31597900  0.24679900  0.49353400  1
  H  3296  1  0.31908800  0.26683100  0.49650400  1
  H  3297  1  0.34543900  0.19319600  0.51687200  1
  H  3298  1  0.34856500  0.21333800  0.51885900  1
  H  3299  1  0.32361500  0.17032800  0.46371300  1
  H  3300  1  0.31903000  0.18321900  0.44856800  1
  H  3301  1  0.37915800  0.28793900  0.51024800  1
  H  3302  1  0.39612100  0.27505300  0.51018200  1
  H  3313  1  0.87361000  0.48710400  0.75618400  1
  H  3322  1  0.83514500  0.47442700  0.78530600  1
  H  3325  1  0.81597000  0.46353300  0.75829500  1
  H  3326  1  0.81908300  0.44350100  0.75532700  1
  H  3327  1  0.84551100  0.51713400  0.73493000  1
  H  3328  1  0.84866600  0.49699800  0.73294800  1
  H  3329  1  0.82349500  0.54001200  0.78801100  1
  H  3330  1  0.81897300  0.52713500  0.80318400  1
  H  3331  1  0.87913300  0.42239600  0.74152200  1
  H  3332  1  0.89610800  0.43526900  0.74162500  1
  H  3343  1  0.06982880  0.48275000  0.75822900  1
  H  3352  1  0.10683400  0.51468100  0.74567200  1
  H  3355  1  0.12637700  0.48921400  0.73362100  1
  H  3356  1  0.12277900  0.48787500  0.71352300  1
  H  3357  1  0.09837780  0.46328400  0.78753800  1
  H  3358  1  0.09549080  0.46143100  0.76738700  1
  H  3359  1  0.11815500  0.51688000  0.81115700  1
  H  3360  1  0.12234000  0.53230100  0.79848000  1
  H  3361  1  0.06185080  0.47753000  0.69248900  1
  H  3362  1  0.04562580  0.47451300  0.70573100  1
  H  3373  1  0.56979500  0.22760800  0.49355600  1
  H  3382  1  0.60677900  0.19565000  0.50613700  1
  H  3385  1  0.62635200  0.22110500  0.51813900  1
  H  3386  1  0.62277100  0.22246000  0.53824100  1
  H  3387  1  0.59837900  0.24704900  0.46425300  1
  H  3388  1  0.59549000  0.24890700  0.48440300  1
  H  3389  1  0.61806900  0.19341400  0.44064100  1
  H  3390  1  0.62224800  0.17799400  0.45332200  1
  H  3391  1  0.56186200  0.23286200  0.55930200  1
  H  3392  1  0.54563300  0.23589400  0.54606800  1
  H  3403  1  0.31967800  0.48753200  0.49733800  1
  H  3412  1  0.35638500  0.47487500  0.46515000  1
  H  3415  1  0.37618500  0.46290400  0.49042500  1
  H  3416  1  0.37262300  0.44277300  0.49180300  1
  H  3417  1  0.34874700  0.51678100  0.51660500  1
  H  3418  1  0.34569800  0.49661700  0.51843500  1
  H  3419  1  0.36827600  0.54039900  0.46304000  1
  H  3420  1  0.37226400  0.52771900  0.44757800  1
  H  3421  1  0.31185400  0.42169100  0.50286600  1
  H  3422  1  0.29562900  0.43493700  0.50596100  1
  H  3433  1  0.81967400  0.22278100  0.75444800  1
  H  3442  1  0.85633300  0.23542900  0.78664700  1
  H  3445  1  0.87617400  0.24743700  0.76142700  1
  H  3446  1  0.87259000  0.26756100  0.76003200  1
  H  3447  1  0.84871100  0.19353500  0.73517600  1
  H  3448  1  0.84562600  0.21369200  0.73334000  1
  H  3449  1  0.86840400  0.16993100  0.78868900  1
  H  3450  1  0.87230700  0.18260000  0.80417700  1
  H  3451  1  0.81182800  0.28861700  0.74889800  1
  H  3452  1  0.79560800  0.27536600  0.74581300  1
  H  3463  1  0.08412180  0.50152500  0.88335200  1
  H  3464  1  0.08017680  0.50533500  0.91214600  1
  H  3471  1  0.13534200  0.47963200  0.86814000  1
  H  3472  1  0.14051700  0.47955000  0.83920400  1
  H  3473  1  0.08514480  0.48375800  0.83059200  1
  H  3474  1  0.12002400  0.46964300  0.92174100  1
  H  3475  1  0.07994080  0.48336900  0.85962000  1
  H  3476  1  0.12361800  0.46545500  0.89270500  1
  H  3479  1  0.08772680  0.49905200  0.94022300  1
  H  3480  1  0.12996200  0.48325000  0.81121700  1
  H  3487  1  0.58408900  0.20880800  0.36844100  1
  H  3488  1  0.58014000  0.20500800  0.33964700  1
  H  3495  1  0.63533800  0.23063700  0.38366100  1
  H  3496  1  0.64050700  0.23071300  0.41259900  1
  H  3497  1  0.58512700  0.22657600  0.42120100  1
  H  3498  1  0.62003900  0.24065200  0.33005800  1
  H  3499  1  0.57993000  0.22697100  0.39217300  1
  H  3500  1  0.62363600  0.24483100  0.35909600  1
  H  3503  1  0.58769700  0.21128500  0.31157100  1
  H  3504  1  0.62994500  0.22702600  0.44057200  1
  H  3511  1  0.33311900  0.59741600  0.27195500  1
  H  3512  1  0.32931100  0.56852600  0.27551200  1
  H  3519  1  0.38494200  0.61306500  0.25198400  1
  H  3520  1  0.38988100  0.64208500  0.25244100  1
  H  3521  1  0.33428200  0.65028300  0.25453900  1
  H  3522  1  0.37040300  0.55940600  0.24096500  1
  H  3523  1  0.32934500  0.62119000  0.25361900  1
  H  3524  1  0.37388200  0.58853600  0.23704000  1
  H  3527  1  0.33739600  0.54050700  0.26937200  1
  H  3528  1  0.37890700  0.66988800  0.25669400  1
  H  3535  1  0.83307700  0.11291600  0.97987900  1
  H  3536  1  0.82928000  0.14180700  0.97631100  1
  H  3543  1  0.88493800  0.09726220  0.99975700  1
  H  3544  1  0.88987300  0.06824220  0.99927700  1
  H  3545  1  0.83426900  0.06005120  0.99727300  1
  H  3546  1  0.87045100  0.15092200  0.01078040  1
  H  3547  1  0.82933700  0.08914320  0.99821700  1
  H  3548  1  0.87391800  0.12179200  0.01471640  1
  H  3551  1  0.83744500  0.16982700  0.98236500  1
  H  3552  1  0.87888900  0.04046520  0.99499500  1
  H  3559  1  0.60891900  0.20879900  0.88331900  1
  H  3560  1  0.61291200  0.20485700  0.91208600  1
  H  3567  1  0.55780500  0.23106700  0.86825900  1
  H  3568  1  0.55260700  0.23136600  0.83932800  1
  H  3569  1  0.60793400  0.22682200  0.83064100  1
  H  3570  1  0.57325800  0.24066700  0.92191600  1
  H  3571  1  0.61316700  0.22700200  0.85966800  1
  H  3572  1  0.56962100  0.24499600  0.89289900  1
  H  3575  1  0.60565400  0.21125500  0.94020500  1
  H  3576  1  0.56312300  0.22800500  0.81128800  1
  H  3583  1  0.10895600  0.50152800  0.36847600  1
  H  3584  1  0.11295600  0.50546000  0.33971000  1
  H  3591  1  0.05781080  0.47932500  0.38354200  1
  H  3592  1  0.05261680  0.47903100  0.41247400  1
  H  3593  1  0.10795000  0.48350500  0.42115500  1
  H  3594  1  0.07325080  0.46969600  0.32988500  1
  H  3595  1  0.11318000  0.48332000  0.39212700  1
  H  3596  1  0.06960580  0.46537800  0.35890200  1
  H  3599  1  0.10569500  0.49906100  0.31159200  1
  H  3600  1  0.06313780  0.48238100  0.44050100  1
  H  3607  1  0.35992800  0.11279300  0.27199800  1
  H  3608  1  0.36378700  0.14166100  0.27566800  1
  H  3615  1  0.30819800  0.09728220  0.25165200  1
  H  3616  1  0.30322300  0.06826420  0.25190900  1
  H  3617  1  0.35879100  0.05999320  0.25435900  1
  H  3618  1  0.32288800  0.15099100  0.24098200  1
  H  3619  1  0.36377100  0.08908820  0.25363500  1
  H  3620  1  0.31936500  0.12187600  0.23693500  1
  H  3623  1  0.35596900  0.16971800  0.26940500  1
  H  3624  1  0.31412500  0.04039020  0.25579500  1
  H  3631  1  0.85996200  0.59753400  0.97984300  1
  H  3632  1  0.86381200  0.56866600  0.97616700  1
  H  3639  1  0.80818200  0.61305000  0.00007040  1
  H  3640  1  0.80321100  0.64206700  0.99978900  1
  H  3641  1  0.85878700  0.65033100  0.99746600  1
  H  3642  1  0.82282000  0.55934000  0.01075940  1
  H  3643  1  0.86376100  0.62123700  0.99821700  1
  H  3644  1  0.81930500  0.58845500  0.01481440  1
  H  3647  1  0.85592200  0.54060800  0.98235300  1
  H  3648  1  0.81412700  0.66991900  0.99588600  1
  H  3655  1  0.10894900  0.70824100  0.36806400  1
  H  3656  1  0.11230500  0.70462300  0.33919100  1
  H  3663  1  0.05749780  0.72876700  0.38419600  1
  H  3664  1  0.05278180  0.72817800  0.41319400  1
  H  3665  1  0.10839700  0.72524600  0.42098400  1
  H  3666  1  0.07146180  0.73959500  0.33056000  1
  H  3667  1  0.11312100  0.72631700  0.39191100  1
  H  3668  1  0.06846880  0.74359800  0.35967000  1
  H  3671  1  0.10288600  0.70967600  0.31148400  1
  H  3672  1  0.06388980  0.72320200  0.44078000  1
  H  3679  1  0.60897200  0.00208824  0.88372100  1
  H  3680  1  0.61233100  0.00570024  0.91259400  1
  H  3687  1  0.55750700  0.98159500  0.86758200  1
  H  3688  1  0.55279800  0.98218200  0.83858300  1
  H  3689  1  0.60841600  0.98507400  0.83080200  1
  H  3690  1  0.57146100  0.97075500  0.92122300  1
  H  3691  1  0.61313400  0.98400500  0.85987700  1
  H  3692  1  0.56846200  0.96675900  0.89211300  1
  H  3695  1  0.60292500  0.00063725  0.94030300  1
  H  3696  1  0.56391400  0.98714200  0.81100800  1
  H  3703  1  0.58381600  0.00224424  0.36811000  1
  H  3704  1  0.58037600  0.00598824  0.33926500  1
  H  3711  1  0.63514800  0.98125300  0.38404700  1
  H  3712  1  0.63992300  0.98160500  0.41304100  1
  H  3713  1  0.58435600  0.98495700  0.42094700  1
  H  3714  1  0.62094800  0.97081600  0.33036000  1
  H  3715  1  0.57956600  0.98411800  0.39187400  1
  H  3716  1  0.62402500  0.96668200  0.35944800  1
  H  3719  1  0.58934700  0.00069925  0.31148500  1
  H  3720  1  0.62892200  0.98614000  0.44072500  1
  H  3727  1  0.08379380  0.70808700  0.88367200  1
  H  3728  1  0.08034680  0.70434800  0.91251600  1
  H  3735  1  0.13514100  0.72904600  0.86773200  1
  H  3736  1  0.13991000  0.72869700  0.83873800  1
  H  3737  1  0.08433980  0.72538300  0.83083700  1
  H  3738  1  0.12094400  0.73949400  0.92142300  1
  H  3739  1  0.07955480  0.72621800  0.85991100  1
  H  3740  1  0.12402800  0.74362300  0.89233300  1
  H  3743  1  0.08929880  0.70965000  0.94029800  1
  H  3744  1  0.12890500  0.72418100  0.81106100  1
  H  3751  1  0.83514300  0.09765420  0.77324500  1
  H  3752  1  0.83156600  0.06878720  0.77715100  1
  H  3759  1  0.88595800  0.11317200  0.75107000  1
  H  3760  1  0.89093200  0.14219200  0.75110000  1
  H  3761  1  0.83549700  0.15045500  0.75544000  1
  H  3762  1  0.87096500  0.05948720  0.74099100  1
  H  3763  1  0.83050000  0.12135200  0.75496400  1
  H  3764  1  0.87418500  0.08858820  0.73672700  1
  H  3767  1  0.83992000  0.04083620  0.77144700  1
  H  3768  1  0.88014300  0.17016600  0.75481700  1
  H  3775  1  0.33509700  0.61267700  0.47859200  1
  H  3776  1  0.33152700  0.64154400  0.47467900  1
  H  3783  1  0.38596000  0.59715700  0.50066500  1
  H  3784  1  0.39093600  0.56814000  0.50059900  1
  H  3785  1  0.33549100  0.55987700  0.49636400  1
  H  3786  1  0.37101400  0.65084000  0.51075700  1
  H  3787  1  0.33049300  0.58897900  0.49687700  1
  H  3788  1  0.37422700  0.62174100  0.51503100  1
  H  3791  1  0.33996400  0.66949300  0.48030100  1
  H  3792  1  0.38014600  0.54019500  0.49682800  1
  H  3799  1  0.85758000  0.61254100  0.77342200  1
  H  3800  1  0.86122600  0.64137500  0.77748400  1
  H  3807  1  0.80692500  0.59721200  0.75076700  1
  H  3808  1  0.80193200  0.56819400  0.75052800  1
  H  3809  1  0.85731400  0.55985700  0.75526300  1
  H  3810  1  0.82211900  0.65097000  0.74112900  1
  H  3811  1  0.86233800  0.58896200  0.75505300  1
  H  3812  1  0.81883100  0.62189300  0.73670600  1
  H  3815  1  0.85334100  0.66939800  0.77154200  1
  H  3816  1  0.81269300  0.54015300  0.75382100  1
  H  3823  1  0.35761300  0.09778820  0.47842200  1
  H  3824  1  0.36125700  0.06895520  0.47435600  1
  H  3831  1  0.30689900  0.11311700  0.50095600  1
  H  3832  1  0.30190400  0.14213300  0.50116000  1
  H  3833  1  0.35730100  0.15047000  0.49655700  1
  H  3834  1  0.32204900  0.05936120  0.51061900  1
  H  3835  1  0.36232500  0.12136600  0.49680400  1
  H  3836  1  0.31876500  0.08843820  0.51505000  1
  H  3839  1  0.35329600  0.04093320  0.48022300  1
  H  3840  1  0.31266800  0.17014800  0.49782000  1
  H  3847  1  0.10491500  0.61097900  0.96228300  1
  H  3848  1  0.10053100  0.63991500  0.95806800  1
  H  3855  1  0.14296500  0.59553300  0.99926600  1
  H  3856  1  0.14510700  0.56618500  0.00324640  1
  H  3857  1  0.09261680  0.56051800  0.98480100  1
  H  3858  1  0.12055300  0.64954700  0.00606440  1
  H  3859  1  0.09041880  0.58968800  0.98105400  1
  H  3860  1  0.12467200  0.62048700  0.01037740  1
  H  3863  1  0.09568080  0.66716700  0.97282500  1
  H  3864  1  0.12560700  0.53875700  0.00625940  1
  H  3871  1  0.60492600  0.09934120  0.28951300  1
  H  3872  1  0.60057100  0.07040520  0.29374500  1
  H  3879  1  0.64297200  0.11479100  0.25253100  1
  H  3880  1  0.64509800  0.14414000  0.24854800  1
  H  3881  1  0.59259800  0.14978400  0.26697400  1
  H  3882  1  0.62060300  0.06075820  0.24575400  1
  H  3883  1  0.59041700  0.12061300  0.27072500  1
  H  3884  1  0.62469400  0.08981920  0.24142500  1
  H  3887  1  0.59575600  0.04313720  0.27902000  1
  H  3888  1  0.62557900  0.17156000  0.24552600  1
  H  3895  1  0.35152700  0.51682900  0.38138900  1
  H  3896  1  0.34642000  0.52053100  0.41025900  1
  H  3903  1  0.39244000  0.48227500  0.36620000  1
  H  3904  1  0.39529100  0.47869200  0.33689500  1
  H  3905  1  0.34177100  0.49418900  0.33067300  1
  H  3906  1  0.37000900  0.47387200  0.41983700  1
  H  3907  1  0.33886500  0.49750600  0.35979500  1
  H  3908  1  0.37479500  0.47000800  0.39082000  1
  H  3911  1  0.34196700  0.50419900  0.43735500  1
  H  3912  1  0.37606500  0.47470800  0.30918900  1
  H  3919  1  0.85154600  0.19342200  0.87040500  1
  H  3920  1  0.84643600  0.18971300  0.84153700  1
  H  3927  1  0.89240400  0.22804800  0.88557800  1
  H  3928  1  0.89525900  0.23165000  0.91487900  1
  H  3929  1  0.84177700  0.21605200  0.92112900  1
  H  3930  1  0.86994400  0.23640400  0.83195100  1
  H  3931  1  0.83886500  0.21271900  0.89200900  1
  H  3932  1  0.87473100  0.24027800  0.86096600  1
  H  3935  1  0.84195100  0.20603400  0.81443900  1
  H  3936  1  0.87602200  0.23562800  0.94258400  1
  H  3943  1  0.58741000  0.09795520  0.96225900  1
  H  3944  1  0.59136300  0.06893920  0.95828200  1
  H  3951  1  0.54974200  0.11424000  0.99917100  1
  H  3952  1  0.54809500  0.14364600  0.00287140  1
  H  3953  1  0.60064400  0.14839400  0.98431200  1
  H  3954  1  0.57134700  0.05994520  0.00640440  1
  H  3955  1  0.60234900  0.11916000  0.98084300  1
  H  3956  1  0.56766200  0.08910020  0.01048240  1
  H  3959  1  0.59608800  0.04188020  0.97338400  1
  H  3960  1  0.56763200  0.17078000  0.00547940  1
  H  3967  1  0.08742580  0.61238100  0.28953600  1
  H  3968  1  0.09134980  0.64139900  0.29353400  1
  H  3975  1  0.04976080  0.59609500  0.25262800  1
  H  3976  1  0.04812780  0.56668900  0.24892300  1
  H  3977  1  0.10069000  0.56196200  0.26746100  1
  H  3978  1  0.07131880  0.65040900  0.24541900  1
  H  3979  1  0.10237900  0.59119800  0.27093500  1
  H  3980  1  0.06766180  0.62125200  0.24132200  1
  H  3983  1  0.09603180  0.66847400  0.27846800  1
  H  3984  1  0.06768380  0.53956200  0.24630500  1
  H  3991  1  0.34067400  0.19350000  0.38286200  1
  H  3992  1  0.34538600  0.19011700  0.41182100  1
  H  3999  1  0.30023900  0.22805500  0.36675000  1
  H  4000  1  0.29786500  0.23127700  0.33737200  1
  H  4001  1  0.35140900  0.21550400  0.33206200  1
  H  4002  1  0.32198700  0.23701400  0.42060600  1
  H  4003  1  0.35383700  0.21254400  0.36125800  1
  H  4004  1  0.31760000  0.24056300  0.39148000  1
  H  4007  1  0.34979000  0.20687300  0.43864100  1
  H  4008  1  0.31710400  0.23472500  0.30994400  1
  H  4015  1  0.84066200  0.51689600  0.86895200  1
  H  4016  1  0.84536000  0.52030200  0.83999300  1
  H  4023  1  0.80028000  0.48227500  0.88505300  1
  H  4024  1  0.79791900  0.47902700  0.91442700  1
  H  4025  1  0.85143500  0.49487700  0.91974100  1
  H  4026  1  0.82202100  0.47338200  0.83119000  1
  H  4027  1  0.85385300  0.49786300  0.89054600  1
  H  4028  1  0.81764900  0.46981100  0.86031300  1
  H  4031  1  0.84978300  0.50355700  0.81316600  1
  H  4032  1  0.81718200  0.47557700  0.94184600  1
  H  4039  1  0.83971900  0.69209900  0.87051300  1
  H  4040  1  0.84380900  0.68779600  0.84160000  1
  H  4047  1  0.80028800  0.72758500  0.88616500  1
  H  4048  1  0.79829900  0.73142300  0.91549400  1
  H  4049  1  0.85178300  0.71538800  0.92055600  1
  H  4050  1  0.82170000  0.73506100  0.83190100  1
  H  4051  1  0.85379900  0.71174500  0.89140600  1
  H  4052  1  0.81784300  0.73945300  0.86093700  1
  H  4055  1  0.84748600  0.70226900  0.81421100  1
  H  4056  1  0.81741000  0.73484400  0.94280800  1
  H  4063  1  0.33966100  0.01831520  0.38128500  1
  H  4064  1  0.34375600  0.02261720  0.41019600  1
  H  4071  1  0.30032700  0.98272800  0.36564300  1
  H  4072  1  0.29833100  0.97888000  0.33631500  1
  H  4073  1  0.35176100  0.99506700  0.33122500  1
  H  4074  1  0.32178900  0.97529400  0.41988800  1
  H  4075  1  0.35378200  0.99871700  0.36037200  1
  H  4076  1  0.31792800  0.97090300  0.39085400  1
  H  4079  1  0.34747600  0.00816024  0.43758000  1
  H  4080  1  0.31744100  0.97549600  0.30900000  1
  H  4087  1  0.85368400  0.01832820  0.86902800  1
  H  4088  1  0.84995200  0.02233920  0.84003800  1
  H  4095  1  0.89269900  0.98285900  0.88548900  1
  H  4096  1  0.89427300  0.97934000  0.91487300  1
  H  4097  1  0.84079200  0.99562400  0.91914100  1
  H  4098  1  0.87192600  0.97488200  0.83104000  1
  H  4099  1  0.83919100  0.99894600  0.88993100  1
  H  4100  1  0.87542300  0.97077600  0.86016800  1
  H  4103  1  0.84631000  0.00746324  0.81288100  1
  H  4104  1  0.87518200  0.97641700  0.94194100  1
  H  4111  1  0.35375400  0.69191400  0.38275100  1
  H  4112  1  0.35003200  0.68789400  0.41174200  1
  H  4119  1  0.39265800  0.72749600  0.36629300  1
  H  4120  1  0.39421600  0.73103400  0.33691100  1
  H  4121  1  0.34079100  0.71459600  0.33264000  1
  H  4122  1  0.37186100  0.73540800  0.42074100  1
  H  4123  1  0.33920500  0.71125300  0.36184700  1
  H  4124  1  0.37534500  0.73952200  0.39161300  1
  H  4127  1  0.34634200  0.70275800  0.43889600  1
  H  4128  1  0.37511400  0.73392400  0.30985100  1
  H  4135  1  0.60036800  0.11183400  0.46458200  1
  H  4136  1  0.59548500  0.14079500  0.46099500  1
  H  4143  1  0.64236300  0.09622220  0.49759400  1
  H  4144  1  0.64503300  0.06683120  0.50091900  1
  H  4145  1  0.59077500  0.06121220  0.48755200  1
  H  4146  1  0.62081300  0.15020200  0.50682900  1
  H  4147  1  0.58807900  0.09041520  0.48445800  1
  H  4148  1  0.62540400  0.12109200  0.51057600  1
  H  4151  1  0.59195600  0.16796600  0.47722900  1
  H  4152  1  0.62632900  0.03917820  0.50507200  1
  H  4159  1  0.10031900  0.59850100  0.78719200  1
  H  4160  1  0.09546880  0.56954000  0.79080900  1
  H  4167  1  0.14236000  0.61410500  0.75423500  1
  H  4168  1  0.14502400  0.64349700  0.75090800  1
  H  4169  1  0.09073880  0.64910100  0.76418600  1
  H  4170  1  0.12088200  0.56010500  0.74502200  1
  H  4171  1  0.08804780  0.61989600  0.76728200  1
  H  4172  1  0.12544000  0.58921400  0.74124500  1
  H  4175  1  0.09201780  0.54233800  0.77463100  1
  H  4176  1  0.12630000  0.67114500  0.74671500  1
  H  4183  1  0.09227780  0.59699600  0.46457800  1
  H  4184  1  0.09674480  0.56795000  0.46126700  1
  H  4191  1  0.05082780  0.61345300  0.49774000  1
  H  4192  1  0.04858880  0.64290100  0.50074000  1
  H  4193  1  0.10279400  0.64773700  0.48688100  1
  H  4194  1  0.07170980  0.55930500  0.50739000  1
  H  4195  1  0.10506200  0.61846800  0.48411200  1
  H  4196  1  0.06754480  0.58851700  0.51086400  1
  H  4199  1  0.10023100  0.54102200  0.47792400  1
  H  4200  1  0.06723280  0.67030600  0.50426300  1
  H  4207  1  0.59236900  0.11331900  0.78719500  1
  H  4208  1  0.59679800  0.14236500  0.79054300  1
  H  4215  1  0.55085700  0.09687720  0.75410100  1
  H  4216  1  0.54862200  0.06742920  0.75109700  1
  H  4217  1  0.60286200  0.06260620  0.76484500  1
  H  4218  1  0.57165300  0.15104900  0.74448000  1
  H  4219  1  0.60512500  0.09187620  0.76761600  1
  H  4220  1  0.56752500  0.12183900  0.74096900  1
  H  4223  1  0.60018500  0.16933300  0.77396100  1
  H  4224  1  0.56728300  0.04002620  0.74752700  1
  H  4231  1  0.96333200  0.49633600  0.00434440  1
  H  4232  1  0.93175500  0.50015000  0.00381740  1
  H  4239  1  0.98293700  0.45556600  0.03465440  1
  H  4240  1  0.01441880  0.45122700  0.03464940  1
  H  4241  1  0.01854680  0.47679600  0.98912200  1
  H  4242  1  0.92469400  0.45051400  0.01938040  1
  H  4243  1  0.98690100  0.48066200  0.98881900  1
  H  4244  1  0.95605100  0.44652200  0.01917040  1
  H  4247  1  0.90154000  0.48913000  0.01212540  1
  H  4248  1  0.04316980  0.45090800  0.01395540  1
  H  4255  1  0.46331600  0.21401200  0.24742200  1
  H  4256  1  0.43174000  0.21019600  0.24795400  1
  H  4263  1  0.48291800  0.25479800  0.21713600  1
  H  4264  1  0.51440000  0.25913600  0.21714200  1
  H  4265  1  0.51852600  0.23354700  0.26265800  1
  H  4266  1  0.42467100  0.25984100  0.23242500  1
  H  4267  1  0.48688100  0.22968100  0.26296000  1
  H  4268  1  0.45602900  0.26383500  0.23262900  1
  H  4271  1  0.40151900  0.22122600  0.23965100  1
  H  4272  1  0.54315300  0.25944000  0.23781200  1
  H  4279  1  0.21338300  0.47666200  0.26680400  1
  H  4280  1  0.18180800  0.47720200  0.27062700  1
  H  4287  1  0.23294500  0.44649900  0.22594700  1
  H  4288  1  0.26442300  0.44651100  0.22159700  1
  H  4289  1  0.26858700  0.49199700  0.24732100  1
  H  4290  1  0.17470100  0.46189100  0.22098900  1
  H  4291  1  0.23694500  0.49229200  0.25120500  1
  H  4292  1  0.20606100  0.46208400  0.21699200  1
  H  4295  1  0.15157500  0.46893400  0.25958100  1
  H  4296  1  0.29315300  0.46711000  0.22134300  1
  H  4303  1  0.71336000  0.23362400  0.98496200  1
  H  4304  1  0.68178500  0.23308800  0.98114900  1
  H  4311  1  0.73292100  0.26373800  0.02585640  1
  H  4312  1  0.76440300  0.26375200  0.03017840  1
  H  4313  1  0.76859900  0.21831800  0.00436840  1
  H  4314  1  0.67470000  0.24833200  0.03081140  1
  H  4315  1  0.73695200  0.21799400  0.00051340  1
  H  4316  1  0.70605900  0.24813000  0.03479640  1
  H  4319  1  0.65156000  0.24132800  0.99221000  1
  H  4320  1  0.79316200  0.24306700  0.03037340  1
  H  4327  1  0.22942100  0.71359400  0.24638300  1
  H  4328  1  0.26105700  0.71018500  0.24661700  1
  H  4335  1  0.20917100  0.75531900  0.21796600  1
  H  4336  1  0.17760400  0.75907700  0.21804700  1
  H  4337  1  0.17389300  0.73160100  0.26248800  1
  H  4338  1  0.26728600  0.76063700  0.23355100  1
  H  4339  1  0.20561600  0.72828100  0.26271800  1
  H  4340  1  0.23585900  0.76417900  0.23402000  1
  H  4343  1  0.29100000  0.72198700  0.23857300  1
  H  4344  1  0.14884400  0.75803500  0.23830700  1
  H  4351  1  0.72943000  0.99670700  0.00543340  1
  H  4352  1  0.76106600  0.00011924  0.00519840  1
  H  4359  1  0.70918000  0.95497300  0.03383140  1
  H  4360  1  0.67761300  0.95121400  0.03374640  1
  H  4361  1  0.67391000  0.97870100  0.98931000  1
  H  4362  1  0.76730100  0.94966200  0.01824240  1
  H  4363  1  0.70563200  0.98202100  0.98908600  1
  H  4364  1  0.73587300  0.94611800  0.01777540  1
  H  4367  1  0.79101400  0.98831100  0.01324240  1
  H  4368  1  0.64885500  0.95226500  0.01350240  1
  H  4375  1  0.98010800  0.73365600  0.98468500  1
  H  4376  1  0.01168180  0.73254000  0.98092700  1
  H  4383  1  0.96095200  0.76450400  0.02518440  1
  H  4384  1  0.92947800  0.76483300  0.02963140  1
  H  4385  1  0.92475900  0.71905400  0.00451040  1
  H  4386  1  0.01898380  0.74823500  0.03042340  1
  H  4387  1  0.95637400  0.71843000  0.00052140  1
  H  4388  1  0.98761400  0.74862700  0.03435840  1
  H  4391  1  0.04207380  0.74064500  0.99202100  1
  H  4392  1  0.90057600  0.74421100  0.03032740  1
  H  4399  1  0.48012600  0.97673100  0.26713400  1
  H  4400  1  0.51170000  0.97784000  0.27088000  1
  H  4407  1  0.46096200  0.94592400  0.22660500  1
  H  4408  1  0.42948600  0.94557200  0.22218700  1
  H  4409  1  0.42474200  0.99130800  0.24738400  1
  H  4410  1  0.51897500  0.96220400  0.22136100  1
  H  4411  1  0.45636300  0.99195700  0.25134300  1
  H  4412  1  0.48760300  0.96182200  0.21743900  1
  H  4415  1  0.54208200  0.96975700  0.25976900  1
  H  4416  1  0.40055600  0.96628600  0.22154700  1
  H  4423  1  0.46267300  0.99718700  0.50413800  1
  H  4424  1  0.43107800  0.00074925  0.50291100  1
  H  4431  1  0.48194000  0.95656100  0.53479200  1
  H  4432  1  0.51344300  0.95231100  0.53529100  1
  H  4433  1  0.51830200  0.97780700  0.48978100  1
  H  4434  1  0.42408300  0.95102100  0.51821200  1
  H  4435  1  0.48666200  0.98160000  0.48898700  1
  H  4436  1  0.45547800  0.94728800  0.51871500  1
  H  4439  1  0.40076000  0.98943400  0.51075000  1
  H  4440  1  0.54248200  0.95189800  0.51487400  1
  H  4447  1  0.96265100  0.71316000  0.74763400  1
  H  4448  1  0.93105800  0.70959600  0.74886800  1
  H  4455  1  0.98191000  0.75380000  0.71699300  1
  H  4456  1  0.01341280  0.75805000  0.71649300  1
  H  4457  1  0.01827780  0.73254100  0.76199600  1
  H  4458  1  0.92405400  0.75933000  0.73359000  1
  H  4459  1  0.98663800  0.72874700  0.76279100  1
  H  4460  1  0.95544900  0.76306500  0.73308000  1
  H  4463  1  0.90073500  0.72091600  0.74103700  1
  H  4464  1  0.04245680  0.75845300  0.73688500  1
  H  4471  1  0.71304800  0.97513000  0.76772600  1
  H  4472  1  0.68138700  0.97549400  0.77092800  1
  H  4479  1  0.73347000  0.94733500  0.72570200  1
  H  4480  1  0.76505500  0.94740400  0.72207900  1
  H  4481  1  0.76875100  0.99144500  0.75026200  1
  H  4482  1  0.67545300  0.96337900  0.72028300  1
  H  4483  1  0.73701700  0.99168300  0.75346200  1
  H  4484  1  0.70691300  0.96370900  0.71696500  1
  H  4487  1  0.65147500  0.96784100  0.75879600  1
  H  4488  1  0.79379100  0.96734400  0.72350900  1
  H  4495  1  0.21302800  0.73515900  0.48404400  1
  H  4496  1  0.18136700  0.73479300  0.48084700  1
  H  4503  1  0.23343200  0.76290400  0.52611100  1
  H  4504  1  0.26501900  0.76287100  0.52971200  1
  H  4505  1  0.26876400  0.71889400  0.50143800  1
  H  4506  1  0.17544100  0.74683200  0.53151100  1
  H  4507  1  0.23702800  0.71861500  0.49826200  1
  H  4508  1  0.20690000  0.74649900  0.53482600  1
  H  4511  1  0.15145800  0.74240700  0.49298700  1
  H  4512  1  0.29378800  0.74289300  0.52822200  1
  H  4519  1  0.72988900  0.21331800  0.74727500  1
  H  4520  1  0.76151500  0.20993400  0.74832200  1
  H  4527  1  0.71037400  0.25478000  0.71803500  1
  H  4528  1  0.67882100  0.25869800  0.71750200  1
  H  4529  1  0.67402200  0.23170300  0.76214900  1
  H  4530  1  0.76807900  0.26027700  0.73497500  1
  H  4531  1  0.70570500  0.22821700  0.76298200  1
  H  4532  1  0.73664900  0.26379600  0.73462900  1
  H  4535  1  0.79166700  0.22171600  0.74071100  1
  H  4536  1  0.64971800  0.25816800  0.73753900  1
  H  4543  1  0.22990100  0.49697800  0.50453900  1
  H  4544  1  0.26152600  0.50036700  0.50348800  1
  H  4551  1  0.21039300  0.45551000  0.53377400  1
  H  4552  1  0.17884200  0.45158800  0.53430600  1
  H  4553  1  0.17404100  0.47858300  0.48965900  1
  H  4554  1  0.26810300  0.45002400  0.51682600  1
  H  4555  1  0.20572400  0.48207300  0.48882700  1
  H  4556  1  0.23667300  0.44649900  0.51717800  1
  H  4559  1  0.29168400  0.48858500  0.51109500  1
  H  4560  1  0.14973700  0.45212100  0.51428600  1
  H  4567  1  0.48013600  0.23428400  0.48372500  1
  H  4568  1  0.51179400  0.23352900  0.48053500  1
  H  4575  1  0.46011300  0.26301400  0.52526500  1
  H  4576  1  0.42852400  0.26338000  0.52891000  1
  H  4577  1  0.42420800  0.21890200  0.50149500  1
  H  4578  1  0.51787400  0.24634600  0.53099400  1
  H  4579  1  0.45593100  0.21823600  0.49827400  1
  H  4580  1  0.48641100  0.24641300  0.53430900  1
  H  4583  1  0.54176400  0.24129200  0.49255300  1
  H  4584  1  0.39955100  0.24336200  0.52793900  1
  H  4591  1  0.98015100  0.47610400  0.76809800  1
  H  4592  1  0.01180880  0.47686100  0.77128100  1
  H  4599  1  0.96013700  0.44741700  0.72652400  1
  H  4600  1  0.92854800  0.44701800  0.72290200  1
  H  4601  1  0.92419000  0.49144200  0.75039800  1
  H  4602  1  0.01787180  0.46411100  0.72080300  1
  H  4603  1  0.95591600  0.49214600  0.75359200  1
  H  4604  1  0.98641100  0.46404700  0.71749600  1
  H  4607  1  0.04177280  0.46913100  0.75925400  1
  H  4608  1  0.89954100  0.46708600  0.72393100  1
  H  4615  1  0.09467380  0.50957200  0.11658000  1
  H  4616  1  0.09429080  0.51281500  0.08738040  1
  H  4623  1  0.07762880  0.46063400  0.13508500  1
  H  4624  1  0.07735480  0.45676300  0.16428800  1
  H  4625  1  0.11199700  0.49760900  0.16993400  1
  H  4626  1  0.09614480  0.46086600  0.08155140  1
  H  4627  1  0.11263300  0.50121200  0.14074900  1
  H  4628  1  0.09705480  0.45764500  0.11080600  1
  H  4631  1  0.08592780  0.49971800  0.06098540  1
  H  4632  1  0.09591580  0.46136400  0.19031300  1
  H  4639  1  0.59466000  0.20075200  0.13523900  1
  H  4640  1  0.59427900  0.19751100  0.16443800  1
  H  4647  1  0.57762800  0.24969600  0.11672800  1
  H  4648  1  0.57736000  0.25356500  0.08752640  1
  H  4649  1  0.61198200  0.21270500  0.08188340  1
  H  4650  1  0.59614500  0.24946000  0.17026200  1
  H  4651  1  0.61261400  0.20910300  0.11106800  1
  H  4652  1  0.59705200  0.25267800  0.14100800  1
  H  4655  1  0.58592600  0.21060900  0.19083300  1
  H  4656  1  0.59590100  0.24895400  0.06148940  1
  H  4663  1  0.34469200  0.36442500  0.27993000  1
  H  4664  1  0.34435500  0.39367200  0.28319300  1
  H  4671  1  0.32740000  0.34598000  0.23117500  1
  H  4672  1  0.32711300  0.31673000  0.22727600  1
  H  4673  1  0.36211200  0.31105900  0.26780400  1
  H  4674  1  0.34611300  0.39953900  0.23131500  1
  H  4675  1  0.36275600  0.34028100  0.27143200  1
  H  4676  1  0.34697200  0.37024300  0.22807800  1
  H  4679  1  0.33608200  0.42013300  0.27016500  1
  H  4680  1  0.34569700  0.29065100  0.23174200  1
  H  4687  1  0.84473300  0.34591700  0.97189500  1
  H  4688  1  0.84439100  0.31667100  0.96862900  1
  H  4695  1  0.82741900  0.36434700  0.02064440  1
  H  4696  1  0.82712000  0.39359700  0.02454740  1
  H  4697  1  0.86214200  0.39928500  0.98403700  1
  H  4698  1  0.84614300  0.31079700  0.02050740  1
  H  4699  1  0.86279700  0.37006200  0.98040600  1
  H  4700  1  0.84700700  0.34009100  0.02374740  1
  H  4703  1  0.83611700  0.29019900  0.98164900  1
  H  4704  1  0.84564500  0.41970400  0.02008940  1
  H  4711  1  0.09804880  0.69996600  0.13514300  1
  H  4712  1  0.09825080  0.69666000  0.16432900  1
  H  4719  1  0.11519400  0.74894900  0.11678200  1
  H  4720  1  0.11560000  0.75283500  0.08757740  1
  H  4721  1  0.08102180  0.71196200  0.08177840  1
  H  4722  1  0.09644980  0.74860200  0.17026400  1
  H  4723  1  0.08023680  0.70835500  0.11095200  1
  H  4724  1  0.09570580  0.75188600  0.14101200  1
  H  4727  1  0.10634100  0.70960700  0.19080000  1
  H  4728  1  0.09702480  0.74820100  0.06147640  1
  H  4735  1  0.59806400  0.01036820  0.11661600  1
  H  4736  1  0.59826400  0.01367020  0.08743140  1
  H  4743  1  0.61518300  0.96137800  0.13498800  1
  H  4744  1  0.61558100  0.95749400  0.16419300  1
  H  4745  1  0.58103100  0.99838800  0.16998400  1
  H  4746  1  0.59644000  0.96172700  0.08150440  1
  H  4747  1  0.58025300  0.00199324  0.14080900  1
  H  4748  1  0.59569800  0.95844800  0.11075700  1
  H  4751  1  0.60634100  0.00071824  0.06096040  1
  H  4752  1  0.59702800  0.96214400  0.19030500  1
  H  4759  1  0.84814900  0.84592700  0.97198200  1
  H  4760  1  0.84842000  0.81668800  0.96871300  1
  H  4767  1  0.86521900  0.86431900  0.02086240  1
  H  4768  1  0.86558400  0.89356700  0.02476740  1
  H  4769  1  0.83095100  0.89935500  0.98398700  1
  H  4770  1  0.84642000  0.81080900  0.02058140  1
  H  4771  1  0.83021700  0.87014100  0.98035800  1
  H  4772  1  0.84561300  0.84010300  0.02382140  1
  H  4775  1  0.85673800  0.79028100  0.98177400  1
  H  4776  1  0.84694600  0.91964500  0.02021740  1
  H  4783  1  0.34811600  0.86439300  0.27978800  1
  H  4784  1  0.34839400  0.89363100  0.28305800  1
  H  4791  1  0.36519400  0.84601200  0.23090900  1
  H  4792  1  0.36557000  0.81676400  0.22700100  1
  H  4793  1  0.33093100  0.81096100  0.26777400  1
  H  4794  1  0.34639000  0.89951500  0.23119100  1
  H  4795  1  0.33018600  0.84017500  0.27140600  1
  H  4796  1  0.34557700  0.87022000  0.22794800  1
  H  4799  1  0.35671000  0.92005000  0.27000400  1
  H  4800  1  0.34699700  0.79065800  0.23154800  1
  H  4807  1  0.59484400  0.01028520  0.61660800  1
  H  4808  1  0.59456600  0.01355220  0.58741200  1
  H  4815  1  0.57764700  0.96134200  0.63497700  1
  H  4816  1  0.57725700  0.95741100  0.66417100  1
  H  4817  1  0.61191800  0.99821900  0.67001100  1
  H  4818  1  0.59639100  0.96160400  0.58154700  1
  H  4819  1  0.61267400  0.00187724  0.64083900  1
  H  4820  1  0.59720100  0.95835800  0.61079600  1
  H  4823  1  0.58616300  0.00048024  0.56103900  1
  H  4824  1  0.59587000  0.96190100  0.69020800  1
  H  4831  1  0.09482080  0.70003900  0.63520600  1
  H  4832  1  0.09454580  0.69677500  0.66440200  1
  H  4839  1  0.07764280  0.74898600  0.61682800  1
  H  4840  1  0.07725880  0.75291500  0.58763300  1
  H  4841  1  0.11189500  0.71208900  0.58180200  1
  H  4842  1  0.09638680  0.74872300  0.67025800  1
  H  4843  1  0.11264800  0.70843300  0.61097200  1
  H  4844  1  0.09719480  0.75196400  0.64100900  1
  H  4847  1  0.08615480  0.70985000  0.69077400  1
  H  4848  1  0.09584980  0.74841000  0.56158200  1
  H  4855  1  0.84497500  0.86434500  0.78153000  1
  H  4856  1  0.84473800  0.89357900  0.78484900  1
  H  4863  1  0.82754600  0.84598800  0.73275000  1
  H  4864  1  0.82717900  0.81673600  0.72884800  1
  H  4865  1  0.86216600  0.81097900  0.76937300  1
  H  4866  1  0.84630800  0.89954400  0.73297600  1
  H  4867  1  0.86290400  0.84019700  0.77299400  1
  H  4868  1  0.84708100  0.87025300  0.72968100  1
  H  4871  1  0.83661900  0.92009400  0.77197600  1
  H  4872  1  0.84582000  0.79060700  0.73334200  1
  H  4879  1  0.34500900  0.84599500  0.47028000  1
  H  4880  1  0.34476800  0.81676200  0.46695800  1
  H  4887  1  0.32757000  0.86433900  0.51905700  1
  H  4888  1  0.32719300  0.89359000  0.52296300  1
  H  4889  1  0.36219500  0.89936200  0.48245100  1
  H  4890  1  0.34634000  0.81079000  0.51883000  1
  H  4891  1  0.36294300  0.87014500  0.47882600  1
  H  4892  1  0.34712000  0.84008100  0.52212900  1
  H  4895  1  0.33664500  0.79023600  0.47982700  1
  H  4896  1  0.34577800  0.91974400  0.51847700  1
  H  4903  1  0.59805600  0.20058700  0.63515200  1
  H  4904  1  0.59819700  0.19729500  0.66432900  1
  H  4911  1  0.61479500  0.24977100  0.61676100  1
  H  4912  1  0.61522700  0.25364800  0.58755800  1
  H  4913  1  0.58128500  0.21233800  0.58169100  1
  H  4914  1  0.59610900  0.24922200  0.67024800  1
  H  4915  1  0.58044800  0.20874700  0.61086100  1
  H  4916  1  0.59540600  0.25249300  0.64099400  1
  H  4919  1  0.60623800  0.21026100  0.69076800  1
  H  4920  1  0.59654600  0.24880900  0.56147800  1
  H  4927  1  0.09807280  0.50974500  0.61661600  1
  H  4928  1  0.09821480  0.51302700  0.58743800  1
  H  4935  1  0.11478500  0.46055400  0.63502400  1
  H  4936  1  0.11521100  0.45668500  0.66422800  1
  H  4937  1  0.08129980  0.49801900  0.67008000  1
  H  4938  1  0.09610480  0.46109900  0.58153600  1
  H  4939  1  0.08046780  0.50160300  0.64091000  1
  H  4940  1  0.09540180  0.45783800  0.61079200  1
  H  4943  1  0.10624200  0.50005400  0.56100300  1
  H  4944  1  0.09654880  0.46154600  0.69032000  1
  H  4951  1  0.34811700  0.34593900  0.47017400  1
  H  4952  1  0.34824400  0.31671200  0.46686300  1
  H  4959  1  0.36516600  0.36426800  0.51913300  1
  H  4960  1  0.36558400  0.39351700  0.52304600  1
  H  4961  1  0.33113600  0.39938500  0.48214700  1
  H  4962  1  0.34627900  0.31075700  0.51872400  1
  H  4963  1  0.33032900  0.37017600  0.47851900  1
  H  4964  1  0.34559800  0.34005200  0.52200900  1
  H  4967  1  0.35623600  0.29021500  0.47977400  1
  H  4968  1  0.34687300  0.41962900  0.51841300  1
  H  4975  1  0.84808900  0.36438100  0.78161600  1
  H  4976  1  0.84822500  0.39360800  0.78493000  1
  H  4983  1  0.86513500  0.34606000  0.73265700  1
  H  4984  1  0.86556100  0.31681200  0.72874100  1
  H  4985  1  0.83111700  0.31093200  0.76964100  1
  H  4986  1  0.84625100  0.39956700  0.73307200  1
  H  4987  1  0.83030300  0.34014100  0.77327100  1
  H  4988  1  0.84556200  0.37027300  0.72978400  1
  H  4991  1  0.85622000  0.42011500  0.77202300  1
  H  4992  1  0.84691000  0.29067400  0.73337200  1
  C  1  1  0.98662400  0.37246300  0.88378100  1
  C  2  1  0.96819400  0.36971900  0.88143900  1
  C  3  1  0.95700100  0.36497800  0.89453300  1
  C  4  1  0.96375600  0.36354200  0.91087400  1
  C  5  1  0.98217700  0.36703800  0.91372800  1
  C  6  1  0.99374400  0.37115600  0.90021800  1
  C  9  1  0.99589700  0.37978600  0.86994300  1
  C  10  1  0.99701000  0.37260400  0.85373600  1
  C  11  1  0.00283400  0.38249400  0.84003900  1
  C  12  1  0.00822700  0.39928700  0.84254200  1
  C  13  1  0.00676400  0.40630300  0.85858500  1
  C  14  1  0.00044200  0.39664900  0.87185000  1
  C  31  1  0.48659200  0.11470500  0.12047400  1
  C  32  1  0.46816700  0.11746600  0.12282500  1
  C  33  1  0.45698400  0.12221300  0.10972700  1
  C  34  1  0.46374300  0.12364600  0.09338800  1
  C  35  1  0.48216500  0.12014700  0.09053600  1
  C  36  1  0.49372800  0.11601900  0.10404500  1
  C  39  1  0.49586400  0.10737100  0.13431400  1
  C  40  1  0.49698800  0.11456600  0.15051200  1
  C  41  1  0.50281200  0.10467000  0.16420500  1
  C  42  1  0.50819800  0.08787500  0.16170100  1
  C  43  1  0.50673300  0.08086000  0.14565600  1
  C  44  1  0.50039500  0.09050800  0.13239500  1
  C  61  1  0.23667400  0.36192300  0.13072400  1
  C  62  1  0.21824900  0.36432000  0.12796900  1
  C  63  1  0.20704100  0.35124600  0.12315100  1
  C  64  1  0.21376700  0.33487200  0.12169900  1
  C  65  1  0.23217900  0.33198400  0.12519900  1
  C  66  1  0.24376700  0.34546400  0.12939000  1
  C  69  1  0.24590400  0.37570600  0.13819900  1
  C  70  1  0.24714600  0.39194000  0.13106500  1
  C  71  1  0.25293400  0.40559200  0.14103800  1
  C  72  1  0.25819400  0.40303100  0.15783000  1
  C  73  1  0.25671100  0.38692500  0.16473800  1
  C  74  1  0.25040900  0.37368600  0.15502900  1
  C  91  1  0.73667900  0.12526800  0.87351800  1
  C  92  1  0.71824800  0.12288000  0.87623600  1
  C  93  1  0.70703500  0.13595900  0.88102700  1
  C  94  1  0.71377400  0.15232600  0.88252000  1
  C  95  1  0.73219300  0.15520600  0.87905000  1
  C  96  1  0.74378000  0.14172300  0.87486800  1
  C  99  1  0.74591700  0.11148500  0.86605300  1
  C  100  1  0.74714700  0.09525100  0.87318700  1
  C  101  1  0.75295400  0.08160100  0.86322100  1
  C  102  1  0.75822700  0.08416200  0.84643200  1
  C  103  1  0.75673900  0.10026800  0.83951600  1
  C  104  1  0.75044500  0.11350600  0.84922900  1
  C  121  1  0.49291500  0.11377600  0.88394300  1
  C  122  1  0.51100200  0.11794600  0.88139100  1
  C  123  1  0.52258300  0.12175500  0.89457000  1
  C  124  1  0.51636400  0.12087500  0.91115600  1
  C  125  1  0.49805200  0.11698300  0.91412300  1
  C  126  1  0.48630400  0.11341100  0.90060900  1
  C  129  1  0.48384300  0.10645300  0.86993800  1
  C  130  1  0.48232800  0.11387500  0.85385700  1
  C  131  1  0.47682100  0.10404000  0.84000200  1
  C  132  1  0.47184100  0.08710200  0.84225300  1
  C  133  1  0.47355300  0.07987600  0.85817600  1
  C  134  1  0.47987000  0.08942200  0.87151200  1
  C  151  1  0.99295800  0.37341500  0.12031100  1
  C  152  1  0.01103500  0.36921300  0.12287100  1
  C  153  1  0.02260300  0.36540000  0.10968300  1
  C  154  1  0.01637500  0.36628800  0.09310000  1
  C  155  1  0.99806400  0.37019100  0.09013900  1
  C  156  1  0.98632400  0.37377700  0.10365600  1
  C  159  1  0.98389700  0.38075400  0.13432100  1
  C  160  1  0.98236200  0.37331900  0.15039300  1
  C  161  1  0.97685900  0.38316200  0.16424500  1
  C  162  1  0.97189100  0.40010300  0.16199000  1
  C  163  1  0.97360800  0.40732900  0.14606600  1
  C  164  1  0.97994000  0.39778600  0.13273400  1
  C  181  1  0.24285200  0.12533900  0.13166100  1
  C  182  1  0.26094100  0.12272500  0.12751700  1
  C  183  1  0.27254600  0.13589700  0.12367500  1
  C  184  1  0.26634200  0.15251600  0.12446600  1
  C  185  1  0.24804000  0.15552000  0.12835600  1
  C  186  1  0.23626800  0.14202900  0.13198500  1
  C  189  1  0.23382700  0.11138000  0.13912600  1
  C  190  1  0.23219700  0.09527100  0.13175600  1
  C  191  1  0.22671600  0.08145900  0.14166800  1
  C  192  1  0.22184500  0.08376900  0.15859700  1
  C  193  1  0.22356400  0.09975500  0.16571700  1
  C  194  1  0.22986900  0.11306600  0.15611900  1
  C  211  1  0.74285800  0.36184800  0.87261400  1
  C  212  1  0.76094700  0.36446800  0.87675300  1
  C  213  1  0.77255700  0.35130500  0.88061600  1
  C  214  1  0.76635700  0.33468300  0.87983300  1
  C  215  1  0.74805400  0.33167500  0.87595100  1
  C  216  1  0.73627900  0.34515700  0.87230000  1
  C  219  1  0.73382700  0.37580100  0.86514400  1
  C  220  1  0.73219100  0.39191000  0.87250900  1
  C  221  1  0.72669600  0.40571500  0.86259300  1
  C  222  1  0.72183200  0.40339800  0.84566300  1
  C  223  1  0.72356800  0.38741100  0.83854400  1
  C  224  1  0.72986600  0.37410600  0.84815200  1
  C  241  1  0.99201000  0.61377700  0.12043400  1
  C  242  1  0.01050100  0.61610800  0.12282400  1
  C  243  1  0.02182500  0.62072200  0.10978200  1
  C  244  1  0.01516600  0.62230600  0.09342400  1
  C  245  1  0.99669300  0.61912400  0.09050700  1
  C  246  1  0.98497400  0.61527200  0.10398100  1
  C  249  1  0.98239500  0.60696100  0.13433200  1
  C  250  1  0.98158300  0.61436600  0.15047000  1
  C  251  1  0.97487500  0.60500200  0.16418900  1
  C  252  1  0.96819400  0.58862100  0.16175200  1
  C  253  1  0.96996700  0.58121700  0.14590800  1
  C  254  1  0.97690400  0.59031600  0.13256300  1
  C  271  1  0.49203400  0.87341500  0.88379000  1
  C  272  1  0.51052100  0.87106700  0.88139300  1
  C  273  1  0.52183700  0.86644300  0.89443700  1
  C  274  1  0.51517300  0.86486100  0.91079400  1
  C  275  1  0.49670000  0.86805000  0.91371000  1
  C  276  1  0.48498400  0.87191200  0.90023600  1
  C  279  1  0.48242300  0.88024500  0.86989000  1
  C  280  1  0.48160100  0.87283000  0.85375900  1
  C  281  1  0.47489700  0.88220400  0.84004500  1
  C  282  1  0.46822600  0.89858800  0.84248500  1
  C  283  1  0.46999500  0.90598600  0.85833300  1
  C  284  1  0.47694500  0.89689000  0.87167200  1
  C  301  1  0.74334800  0.62528100  0.87364100  1
  C  302  1  0.76185600  0.62325300  0.87624100  1
  C  303  1  0.77282400  0.63649300  0.88105700  1
  C  304  1  0.76577500  0.65273300  0.88259900  1
  C  305  1  0.74728700  0.65530100  0.87918300  1
  C  306  1  0.73593700  0.64161700  0.87506600  1
  C  309  1  0.73443100  0.61126800  0.86621100  1
  C  310  1  0.73445600  0.59486900  0.87306700  1
  C  311  1  0.72981300  0.58100200  0.86287900  1
  C  312  1  0.72537900  0.58337200  0.84585400  1
  C  313  1  0.72470000  0.59974600  0.83943800  1
  C  314  1  0.72941400  0.61328900  0.84950600  1
  C  331  1  0.24333600  0.86190000  0.13060400  1
  C  332  1  0.26185200  0.86392100  0.12804400  1
  C  333  1  0.27282600  0.85067600  0.12326000  1
  C  334  1  0.26576800  0.83444300  0.12167700  1
  C  335  1  0.24727400  0.83188000  0.12506100  1
  C  336  1  0.23592200  0.84556700  0.12916800  1
  C  339  1  0.23441100  0.87591700  0.13801900  1
  C  340  1  0.23444600  0.89231300  0.13116100  1
  C  341  1  0.22977300  0.90618100  0.14133400  1
  C  342  1  0.22534700  0.90381700  0.15836300  1
  C  343  1  0.22466600  0.88744300  0.16478800  1
  C  344  1  0.22936400  0.87389800  0.15471600  1
  C  361  1  0.48697900  0.87425300  0.12028800  1
  C  362  1  0.46882300  0.87038100  0.12290200  1
  C  363  1  0.45715300  0.86661600  0.10978000  1
  C  364  1  0.46329100  0.86744700  0.09317000  1
  C  365  1  0.48164100  0.87111300  0.09013300  1
  C  366  1  0.49353000  0.87446400  0.10359800  1
  C  369  1  0.49638600  0.88115200  0.13432400  1
  C  370  1  0.49764600  0.87353800  0.15035000  1
  C  371  1  0.50396400  0.88294600  0.16420300  1
  C  372  1  0.51012600  0.89953100  0.16197500  1
  C  373  1  0.50805800  0.90708700  0.14624200  1
  C  374  1  0.50122200  0.89801200  0.13284600  1
  C  391  1  0.98694600  0.61292700  0.88393700  1
  C  392  1  0.96879900  0.61683200  0.88131700  1
  C  393  1  0.95714300  0.62060500  0.89444700  1
  C  394  1  0.96328800  0.61976700  0.91105500  1
  C  395  1  0.98163800  0.61608700  0.91408600  1
  C  396  1  0.99351800  0.61272100  0.90061800  1
  C  399  1  0.99634100  0.60601000  0.86989700  1
  C  400  1  0.99762000  0.61363400  0.85387800  1
  C  401  1  0.00393000  0.60421600  0.84002900  1
  C  402  1  0.01007800  0.58762700  0.84226200  1
  C  403  1  0.00800800  0.58007600  0.85799700  1
  C  404  1  0.00116200  0.58915000  0.87138900  1
  C  421  1  0.73580100  0.86188900  0.87268700  1
  C  422  1  0.71762900  0.86422400  0.87670600  1
  C  423  1  0.70621900  0.85092500  0.88058500  1
  C  424  1  0.71267400  0.83439600  0.87982900  1
  C  425  1  0.73104800  0.83163600  0.87603800  1
  C  426  1  0.74264400  0.84528300  0.87247300  1
  C  429  1  0.74455800  0.87602600  0.86522800  1
  C  430  1  0.74502400  0.89231800  0.87234300  1
  C  431  1  0.74935300  0.90632500  0.86221800  1
  C  432  1  0.75329500  0.90419700  0.84505800  1
  C  433  1  0.75369800  0.88792200  0.83839500  1
  C  434  1  0.74897200  0.87429600  0.84833700  1
  C  451  1  0.23580500  0.62528500  0.13152600  1
  C  452  1  0.21763200  0.62294500  0.12751500  1
  C  453  1  0.20621600  0.63623400  0.12362000  1
  C  454  1  0.21266600  0.65276800  0.12437000  1
  C  455  1  0.23104100  0.65553300  0.12815100  1
  C  456  1  0.24264000  0.64189300  0.13173300  1
  C  459  1  0.24457000  0.61115300  0.13898400  1
  C  460  1  0.24504400  0.59486200  0.13187000  1
  C  461  1  0.24939700  0.58085900  0.14198900  1
  C  462  1  0.25331400  0.58298600  0.15915500  1
  C  463  1  0.25370200  0.59926300  0.16582300  1
  C  464  1  0.24899200  0.61288700  0.15587300  1
  C  481  1  0.48604200  0.87317100  0.38383500  1
  C  482  1  0.46753200  0.87060300  0.38179800  1
  C  483  1  0.45652200  0.86589500  0.39502800  1
  C  484  1  0.46353800  0.86437600  0.41125700  1
  C  485  1  0.48203400  0.86774000  0.41383900  1
  C  486  1  0.49342200  0.87175900  0.40016600  1
  C  489  1  0.49505900  0.88045600  0.36980700  1
  C  490  1  0.49495400  0.87358400  0.35343400  1
  C  491  1  0.49961600  0.88373000  0.33954800  1
  C  492  1  0.50403600  0.90079200  0.34187800  1
  C  493  1  0.50476900  0.90725700  0.35820800  1
  C  494  1  0.50009100  0.89719400  0.37175800  1
  C  511  1  0.98600400  0.61400100  0.62041300  1
  C  512  1  0.96749900  0.61658600  0.62245900  1
  C  513  1  0.95649700  0.62129900  0.60922600  1
  C  514  1  0.96351900  0.62281800  0.59299800  1
  C  515  1  0.98201700  0.61944900  0.59041700  1
  C  516  1  0.99340000  0.61542100  0.60409100  1
  C  519  1  0.99502000  0.60670700  0.63444200  1
  C  520  1  0.99492400  0.61359700  0.65080500  1
  C  521  1  0.99958100  0.60344300  0.66468500  1
  C  522  1  0.00400500  0.58638100  0.66236000  1
  C  523  1  0.00473100  0.57991100  0.64603100  1
  C  524  1  0.00002700  0.58996500  0.63248200  1
  C  541  1  0.73710200  0.86191800  0.63235600  1
  C  542  1  0.71861100  0.86432500  0.63003000  1
  C  543  1  0.70728300  0.85126300  0.62541800  1
  C  544  1  0.71394300  0.83487700  0.62386100  1
  C  545  1  0.73241900  0.83196600  0.62702300  1
  C  546  1  0.74414100  0.84544800  0.63088300  1
  C  549  1  0.74667600  0.87580400  0.63925800  1
  C  550  1  0.74766400  0.89192800  0.63180800  1
  C  551  1  0.75440000  0.90564000  0.64117400  1
  C  552  1  0.76094700  0.90321200  0.65757700  1
  C  553  1  0.75907600  0.88735500  0.66497200  1
  C  554  1  0.75210700  0.87400800  0.65588600  1
  C  571  1  0.23709800  0.62527300  0.37187800  1
  C  572  1  0.21860000  0.62287600  0.37417800  1
  C  573  1  0.20727400  0.63594400  0.37877100  1
  C  574  1  0.21394600  0.65232400  0.38035800  1
  C  575  1  0.23242800  0.65522500  0.37721700  1
  C  576  1  0.24414500  0.64174000  0.37336000  1
  C  579  1  0.24667000  0.61138300  0.36498400  1
  C  580  1  0.24765400  0.59526300  0.37243800  1
  C  581  1  0.25440600  0.58155000  0.36308100  1
  C  582  1  0.26094900  0.58397300  0.34667500  1
  C  583  1  0.25904400  0.59982000  0.33926300  1
  C  584  1  0.25210500  0.61317700  0.34835500  1
  C  601  1  0.99336800  0.61325800  0.38396200  1
  C  602  1  0.01149600  0.61743700  0.38163700  1
  C  603  1  0.02289200  0.62135900  0.39491300  1
  C  604  1  0.01648300  0.62045200  0.41142600  1
  C  605  1  0.99814200  0.61652500  0.41419500  1
  C  606  1  0.98655000  0.61295600  0.40055900  1
  C  609  1  0.98458400  0.60586000  0.36981600  1
  C  610  1  0.98414400  0.61298100  0.35354500  1
  C  611  1  0.97989400  0.60285900  0.33952200  1
  C  612  1  0.97610000  0.58563700  0.34161600  1
  C  613  1  0.97568500  0.57893300  0.35785200  1
  C  614  1  0.98030000  0.58890400  0.37148100  1
  C  631  1  0.49341800  0.87392600  0.62028400  1
  C  632  1  0.51153500  0.86971600  0.62261900  1
  C  633  1  0.52291700  0.86578800  0.60933400  1
  C  634  1  0.51650000  0.86670100  0.59282300  1
  C  635  1  0.49815900  0.87064100  0.59006100  1
  C  636  1  0.48657500  0.87422400  0.60369800  1
  C  639  1  0.48464300  0.88134000  0.63443500  1
  C  640  1  0.48418400  0.87420000  0.65069700  1
  C  641  1  0.47994100  0.88433300  0.66471200  1
  C  642  1  0.47615000  0.90155700  0.66262200  1
  C  643  1  0.47574800  0.90826500  0.64638600  1
  C  644  1  0.48038700  0.89829900  0.63276000  1
  C  661  1  0.74230100  0.62528500  0.63324800  1
  C  662  1  0.76044700  0.62258600  0.62937700  1
  C  663  1  0.77217200  0.63568600  0.62561200  1
  C  664  1  0.76608900  0.65234200  0.62640200  1
  C  665  1  0.74775800  0.65544300  0.63008700  1
  C  666  1  0.73581900  0.64201400  0.63347600  1
  C  669  1  0.73290100  0.61128400  0.64023400  1
  C  670  1  0.73142600  0.59527700  0.63258600  1
  C  671  1  0.72506000  0.58144100  0.64200300  1
  C  672  1  0.71905000  0.58367300  0.65860900  1
  C  673  1  0.72124300  0.59941700  0.66614900  1
  C  674  1  0.72813100  0.61280300  0.65707500  1
  C  691  1  0.24231800  0.86190200  0.37101800  1
  C  692  1  0.26046400  0.86460500  0.37488700  1
  C  693  1  0.27219100  0.85151100  0.37867200  1
  C  694  1  0.26611100  0.83485300  0.37788600  1
  C  695  1  0.24777900  0.83174900  0.37420500  1
  C  696  1  0.23583900  0.84517100  0.37079400  1
  C  699  1  0.23291600  0.87589900  0.36402600  1
  C  700  1  0.23142700  0.89190300  0.37167500  1
  C  701  1  0.22505100  0.90573400  0.36226000  1
  C  702  1  0.21905700  0.90350200  0.34564800  1
  C  703  1  0.22129400  0.88776600  0.33810000  1
  C  704  1  0.22815700  0.87437700  0.34718300  1
  C  721  1  0.49250200  0.11448600  0.62051300  1
  C  722  1  0.51107800  0.11656200  0.62260300  1
  C  723  1  0.52225900  0.12106400  0.60942400  1
  C  724  1  0.51536600  0.12274500  0.59316500  1
  C  725  1  0.49680900  0.11975000  0.59049200  1
  C  726  1  0.48524700  0.11606800  0.60414100  1
  C  729  1  0.48311800  0.10772300  0.63461100  1
  C  730  1  0.48347500  0.11475100  0.65093700  1
  C  731  1  0.47779200  0.10511900  0.66487400  1
  C  732  1  0.47196300  0.08842400  0.66265100  1
  C  733  1  0.47172400  0.08166800  0.64642300  1
  C  734  1  0.47715900  0.09122600  0.63279500  1
  C  751  1  0.99253500  0.37269600  0.38372500  1
  C  752  1  0.01110500  0.37060100  0.38162800  1
  C  753  1  0.02227600  0.36608800  0.39481000  1
  C  754  1  0.01537700  0.36440800  0.41106700  1
  C  755  1  0.99682100  0.36741100  0.41373800  1
  C  756  1  0.98526300  0.37110400  0.40008800  1
  C  759  1  0.98315500  0.37947300  0.36962500  1
  C  760  1  0.98350400  0.37243500  0.35330600  1
  C  761  1  0.97783400  0.38208500  0.33937800  1
  C  762  1  0.97200800  0.39878100  0.34160100  1
  C  763  1  0.97176100  0.40552900  0.35783300  1
  C  764  1  0.97721400  0.39597200  0.37145600  1
  C  781  1  0.24256300  0.12520300  0.37179900  1
  C  782  1  0.26112400  0.12304300  0.37393800  1
  C  783  1  0.27231600  0.13619500  0.37854700  1
  C  784  1  0.26546200  0.15249500  0.38021200  1
  C  785  1  0.24692800  0.15521200  0.37715500  1
  C  786  1  0.23533900  0.14160000  0.37338200  1
  C  789  1  0.23318900  0.11115700  0.36491800  1
  C  790  1  0.23332000  0.09483800  0.37199800  1
  C  791  1  0.22752200  0.08093900  0.36236600  1
  C  792  1  0.22168800  0.08318500  0.34570500  1
  C  793  1  0.22163300  0.09943000  0.33893900  1
  C  794  1  0.22725600  0.11303300  0.34845000  1
  C  811  1  0.74256100  0.36198200  0.63246100  1
  C  812  1  0.76112800  0.36413300  0.63035100  1
  C  813  1  0.77232300  0.35097400  0.62576500  1
  C  814  1  0.76545800  0.33468100  0.62407200  1
  C  815  1  0.74692000  0.33197000  0.62710800  1
  C  816  1  0.73533300  0.34558700  0.63087300  1
  C  819  1  0.73318500  0.37603200  0.63932800  1
  C  820  1  0.73331700  0.39234600  0.63223800  1
  C  821  1  0.72748900  0.40624800  0.64184800  1
  C  822  1  0.72167300  0.40401700  0.65851700  1
  C  823  1  0.72165900  0.38777900  0.66530800  1
  C  824  1  0.72724400  0.37416500  0.65579400  1
  C  841  1  0.98664300  0.37367400  0.62044100  1
  C  842  1  0.96835800  0.37016200  0.62282700  1
  C  843  1  0.95676900  0.36655300  0.60960600  1
  C  844  1  0.96311600  0.36727400  0.59306400  1
  C  845  1  0.98157800  0.37060200  0.59020900  1
  C  846  1  0.99338200  0.37372200  0.60380700  1
  C  849  1  0.99591200  0.38048300  0.63463400  1
  C  850  1  0.99603800  0.37319800  0.65085900  1
  C  851  1  0.00140700  0.38281900  0.66491500  1
  C  852  1  0.00675200  0.39967900  0.66290900  1
  C  853  1  0.00670200  0.40665100  0.64678000  1
  C  854  1  0.00129000  0.39719000  0.63308500  1
  C  871  1  0.48660300  0.11351700  0.38379700  1
  C  872  1  0.46832900  0.11706100  0.38140500  1
  C  873  1  0.45675400  0.12068100  0.39463400  1
  C  874  1  0.46311000  0.11995300  0.41117400  1
  C  875  1  0.48157100  0.11661000  0.41402100  1
  C  876  1  0.49336600  0.11347400  0.40042100  1
  C  879  1  0.49586100  0.10668700  0.36959900  1
  C  880  1  0.49600000  0.11398500  0.35338200  1
  C  881  1  0.50135600  0.10434700  0.33933500  1
  C  882  1  0.50669400  0.08748400  0.34134200  1
  C  883  1  0.50664400  0.08051700  0.35747300  1
  C  884  1  0.50121500  0.08997800  0.37116400  1
  C  901  1  0.23648100  0.36191800  0.37092900  1
  C  902  1  0.21822900  0.36432100  0.37457600  1
  C  903  1  0.20668600  0.35107800  0.37830600  1
  C  904  1  0.21304400  0.33451400  0.37757800  1
  C  905  1  0.23147100  0.33167300  0.37408800  1
  C  906  1  0.24323800  0.34527500  0.37083700  1
  C  909  1  0.24564200  0.37609700  0.36396500  1
  C  910  1  0.24598000  0.39231000  0.37130100  1
  C  911  1  0.25136800  0.40634900  0.36165800  1
  C  912  1  0.25663400  0.40434000  0.34480600  1
  C  913  1  0.25641200  0.38819800  0.33782100  1
  C  914  1  0.25091100  0.37451200  0.34726300  1
  C  931  1  0.73647300  0.12525500  0.63330000  1
  C  932  1  0.71822000  0.12284700  0.62965500  1
  C  933  1  0.70667400  0.13608500  0.62591200  1
  C  934  1  0.71302800  0.15265000  0.62663900  1
  C  935  1  0.73145600  0.15549500  0.63012300  1
  C  936  1  0.74322300  0.14189900  0.63339200  1
  C  939  1  0.74563800  0.11107700  0.64026300  1
  C  940  1  0.74599200  0.09486800  0.63292000  1
  C  941  1  0.75141100  0.08083100  0.64254800  1
  C  942  1  0.75664400  0.08283200  0.65941200  1
  C  943  1  0.75636500  0.09896500  0.66641500  1
  C  944  1  0.75089700  0.11265900  0.65696800  1
  C  961  1  0.99273300  0.37618000  0.79632900  1
  C  962  1  0.00531600  0.36469200  0.79003000  1
  C  963  1  0.00753200  0.36233400  0.77280200  1
  C  964  1  0.99735300  0.37133200  0.76100100  1
  C  965  1  0.98466300  0.38267800  0.76740100  1
  C  966  1  0.98239800  0.38501200  0.78456300  1
  C  969  1  0.00025600  0.36985700  0.74336500  1
  C  970  1  0.01767900  0.36835000  0.73669400  1
  C  971  1  0.02075700  0.36838000  0.71946100  1
  C  972  1  0.00658600  0.36991300  0.70792600  1
  C  973  1  0.98909000  0.37090200  0.71453200  1
  C  974  1  0.98603600  0.37086000  0.73179000  1
  C  981  1  0.01043400  0.37199000  0.69101800  1
  C  982  1  0.99095200  0.38001500  0.81320200  1
  C  985  1  0.49272300  0.11099400  0.20791700  1
  C  986  1  0.50532000  0.12246500  0.21421800  1
  C  987  1  0.50753900  0.12481700  0.23144800  1
  C  988  1  0.49734600  0.11583100  0.24324600  1
  C  989  1  0.48464200  0.10450200  0.23684300  1
  C  990  1  0.48237200  0.10217200  0.21968200  1
  C  993  1  0.50024800  0.11730200  0.26088100  1
  C  994  1  0.51767300  0.11878600  0.26755700  1
  C  995  1  0.52074800  0.11875300  0.28479000  1
  C  996  1  0.50657200  0.11723900  0.29632300  1
  C  997  1  0.48907500  0.11627100  0.28971400  1
  C  998  1  0.48602600  0.11631700  0.27245600  1
  C  1005  1  0.51041100  0.11516200  0.31323500  1
  C  1006  1  0.49093500  0.10716300  0.19104400  1
  C  1009  1  0.24251000  0.44923500  0.13469600  1
  C  1010  1  0.25540300  0.45568600  0.12360700  1
  C  1011  1  0.25754600  0.47296400  0.12140200  1
  C  1012  1  0.24696700  0.48464100  0.13016000  1
  C  1013  1  0.23396000  0.47809400  0.14108900  1
  C  1014  1  0.23177100  0.46088300  0.14327400  1
  C  1017  1  0.24979200  0.50231200  0.12889600  1
  C  1018  1  0.26721800  0.50910800  0.12814100  1
  C  1019  1  0.27015000  0.52638200  0.12849200  1
  C  1020  1  0.25581800  0.53781000  0.12960400  1
  C  1021  1  0.23834200  0.53107900  0.12979300  1
  C  1022  1  0.23543500  0.51378300  0.12944100  1
  C  1029  1  0.25940500  0.55472200  0.13212400  1
  C  1030  1  0.24079800  0.43231500  0.13841100  1
  C  1033  1  0.74252000  0.03795000  0.86953900  1
  C  1034  1  0.75543000  0.03149800  0.88061000  1
  C  1035  1  0.75756600  0.01422000  0.88282000  1
  C  1036  1  0.74696100  0.00254400  0.87408700  1
  C  1037  1  0.73393600  0.00909300  0.86317900  1
  C  1038  1  0.73175400  0.02630400  0.86098900  1
  C  1041  1  0.74978600  0.98487300  0.87534600  1
  C  1042  1  0.76721300  0.97807500  0.87606900  1
  C  1043  1  0.77014300  0.96080100  0.87570300  1
  C  1044  1  0.75580700  0.94937300  0.87461000  1
  C  1045  1  0.73833200  0.95610700  0.87445700  1
  C  1046  1  0.73542700  0.97340400  0.87482500  1
  C  1053  1  0.75938000  0.93246200  0.87205700  1
  C  1054  1  0.74082300  0.05486600  0.86580500  1
  C  1057  1  0.48685300  0.11091300  0.79637900  1
  C  1058  1  0.47430300  0.12247000  0.79015700  1
  C  1059  1  0.47206300  0.12491100  0.77294100  1
  C  1060  1  0.48218000  0.11592700  0.76108100  1
  C  1061  1  0.49482100  0.10449800  0.76741100  1
  C  1062  1  0.49711600  0.10208400  0.78455600  1
  C  1065  1  0.47927000  0.11750600  0.74345300  1
  C  1066  1  0.46185300  0.11916800  0.73680300  1
  C  1067  1  0.45876100  0.11926500  0.71957200  1
  C  1068  1  0.47290900  0.11770600  0.70801600  1
  C  1069  1  0.49040100  0.11654700  0.71460000  1
  C  1070  1  0.49346900  0.11646800  0.73185700  1
  C  1077  1  0.46903300  0.11582300  0.69109200  1
  C  1078  1  0.48869100  0.10701500  0.81323100  1
  C  1081  1  0.98687100  0.37628000  0.20786800  1
  C  1082  1  0.97430500  0.36473900  0.21409200  1
  C  1083  1  0.97206000  0.36230400  0.23130900  1
  C  1084  1  0.98218900  0.37127700  0.24316800  1
  C  1085  1  0.99484800  0.38269000  0.23683600  1
  C  1086  1  0.99714700  0.38509800  0.21969000  1
  C  1089  1  0.97927900  0.36970400  0.26079500  1
  C  1090  1  0.96185900  0.36806500  0.26744800  1
  C  1091  1  0.95877000  0.36797200  0.28467800  1
  C  1092  1  0.97292200  0.36951300  0.29623400  1
  C  1093  1  0.99041400  0.37065000  0.28964800  1
  C  1094  1  0.99348100  0.37072600  0.27239100  1
  C  1101  1  0.96905300  0.37139500  0.31316200  1
  C  1102  1  0.98871800  0.38017100  0.19101500  1
  C  1105  1  0.23708500  0.03790600  0.13479100  1
  C  1106  1  0.22422600  0.03152200  0.12363300  1
  C  1107  1  0.22205800  0.01425500  0.12135700  1
  C  1108  1  0.23257200  0.00252400  0.13011500  1
  C  1109  1  0.24553400  0.00900800  0.14112600  1
  C  1110  1  0.24775200  0.02620700  0.14337800  1
  C  1113  1  0.22973600  0.98485900  0.12876400  1
  C  1114  1  0.21230800  0.97808400  0.12785400  1
  C  1115  1  0.20935500  0.96081100  0.12808900  1
  C  1116  1  0.22366200  0.94936100  0.12923600  1
  C  1117  1  0.24114300  0.95607100  0.12959500  1
  C  1118  1  0.24407200  0.97336800  0.12935400  1
  C  1125  1  0.22003500  0.93242800  0.13156000  1
  C  1126  1  0.23884700  0.05480600  0.13856200  1
  C  1129  1  0.73706500  0.44927800  0.86944800  1
  C  1130  1  0.72418200  0.45566200  0.88058300  1
  C  1131  1  0.72201800  0.47292900  0.88286300  1
  C  1132  1  0.73255900  0.48465900  0.87413300  1
  C  1133  1  0.74554600  0.47817300  0.86314600  1
  C  1134  1  0.74776000  0.46097500  0.86089100  1
  C  1137  1  0.72972200  0.50232400  0.87547800  1
  C  1138  1  0.71229300  0.50910000  0.87634500  1
  C  1139  1  0.70934200  0.52637400  0.87609500  1
  C  1140  1  0.72365600  0.53782200  0.87497600  1
  C  1141  1  0.74113500  0.53110900  0.87466200  1
  C  1142  1  0.74406300  0.51381200  0.87491900  1
  C  1149  1  0.72004300  0.55475300  0.87261800  1
  C  1150  1  0.73881500  0.43238100  0.86566000  1
  C  1153  1  0.98559800  0.61031200  0.20791400  1
  C  1154  1  0.97294800  0.62156700  0.21451800  1
  C  1155  1  0.97107400  0.62380400  0.23179500  1
  C  1156  1  0.98168700  0.61491600  0.24334200  1
  C  1157  1  0.99449400  0.60386400  0.23664600  1
  C  1158  1  0.99641000  0.60164300  0.21943400  1
  C  1161  1  0.97903600  0.61612600  0.26102400  1
  C  1162  1  0.96168100  0.61707000  0.26794400  1
  C  1163  1  0.95887800  0.61663400  0.28520900  1
  C  1164  1  0.97327400  0.61524700  0.29652200  1
  C  1165  1  0.99068900  0.61486700  0.28967300  1
  C  1166  1  0.99346600  0.61530400  0.27238300  1
  C  1173  1  0.96976900  0.61261700  0.31341400  1
  C  1174  1  0.98684100  0.60637700  0.19101900  1
  C  1177  1  0.48561000  0.87687900  0.79632000  1
  C  1178  1  0.47295200  0.86563400  0.78971500  1
  C  1179  1  0.47107400  0.86340100  0.77243800  1
  C  1180  1  0.48169500  0.87228100  0.76089200  1
  C  1181  1  0.49451200  0.88332400  0.76758900  1
  C  1182  1  0.49642900  0.88554200  0.78480000  1
  C  1185  1  0.47904500  0.87107100  0.74320900  1
  C  1186  1  0.46169000  0.87013900  0.73628700  1
  C  1187  1  0.45889300  0.87057300  0.71902000  1
  C  1188  1  0.47329100  0.87194800  0.70770900  1
  C  1189  1  0.49070500  0.87231700  0.71456300  1
  C  1190  1  0.49348000  0.87188200  0.73185300  1
  C  1197  1  0.46979600  0.87457100  0.69081300  1
  C  1198  1  0.48686200  0.88080900  0.81321700  1
  C  1201  1  0.49333400  0.87706800  0.20785700  1
  C  1202  1  0.50594100  0.86572400  0.21437400  1
  C  1203  1  0.50786100  0.86340700  0.23163700  1
  C  1204  1  0.49734200  0.87230300  0.24325500  1
  C  1205  1  0.48459200  0.88346300  0.23664100  1
  C  1206  1  0.48262700  0.88575900  0.21944600  1
  C  1209  1  0.50001900  0.87098600  0.26092700  1
  C  1210  1  0.51737700  0.86985600  0.26781400  1
  C  1211  1  0.52021400  0.87015400  0.28507700  1
  C  1212  1  0.50585300  0.87158600  0.29642200  1
  C  1213  1  0.48843100  0.87216800  0.28960600  1
  C  1214  1  0.48561800  0.87186300  0.27231800  1
  C  1221  1  0.50941300  0.87399300  0.31333700  1
  C  1222  1  0.49199800  0.88104500  0.19097900  1
  C  1225  1  0.99331700  0.61011000  0.79637500  1
  C  1226  1  0.00593400  0.62144300  0.78985900  1
  C  1227  1  0.00785800  0.62375700  0.77259500  1
  C  1228  1  0.99733400  0.61486800  0.76097700  1
  C  1229  1  0.98457500  0.60371700  0.76759100  1
  C  1230  1  0.98260500  0.60142500  0.78478500  1
  C  1233  1  0.00000900  0.61618400  0.74330500  1
  C  1234  1  0.01736700  0.61730400  0.73641600  1
  C  1235  1  0.02020200  0.61700900  0.71915200  1
  C  1236  1  0.00583900  0.61558800  0.70780800  1
  C  1237  1  0.98841700  0.61501700  0.71462700  1
  C  1238  1  0.98560700  0.61531900  0.73191600  1
  C  1245  1  0.00939300  0.61318800  0.69088900  1
  C  1246  1  0.99197100  0.60613900  0.81325400  1
  C  1249  1  0.74392800  0.94939700  0.63556600  1
  C  1250  1  0.75624500  0.95579400  0.62389800  1
  C  1251  1  0.75825100  0.97305800  0.62149600  1
  C  1252  1  0.74810000  0.98478300  0.63061900  1
  C  1253  1  0.73563800  0.97829300  0.64211200  1
  C  1254  1  0.73359200  0.96109300  0.64450100  1
  C  1257  1  0.75086800  0.00244600  0.62915300  1
  C  1258  1  0.76824500  0.00922300  0.62763300  1
  C  1259  1  0.77120300  0.02649600  0.62772900  1
  C  1260  1  0.75694600  0.03794200  0.62934600  1
  C  1261  1  0.73949300  0.03122700  0.63033100  1
  C  1262  1  0.73656000  0.01393100  0.63022700  1
  C  1269  1  0.76066400  0.05487900  0.63149100  1
  C  1270  1  0.74251600  0.93250600  0.63953600  1
  C  1273  1  0.24393400  0.53778700  0.36867500  1
  C  1274  1  0.25627200  0.53139000  0.38032300  1
  C  1275  1  0.25827200  0.51412500  0.38273100  1
  C  1276  1  0.24809600  0.50240200  0.37363000  1
  C  1277  1  0.23561000  0.50889200  0.36215900  1
  C  1278  1  0.23357000  0.52609200  0.35976700  1
  C  1281  1  0.25086600  0.48473900  0.37509000  1
  C  1282  1  0.26824700  0.47796100  0.37657100  1
  C  1283  1  0.27120600  0.46068900  0.37645400  1
  C  1284  1  0.25694500  0.44924200  0.37485600  1
  C  1285  1  0.23948900  0.45595800  0.37391400  1
  C  1286  1  0.23655500  0.47325400  0.37403800  1
  C  1293  1  0.26065400  0.43230800  0.37266400  1
  C  1294  1  0.24253600  0.55467300  0.36468600  1
  C  1297  1  0.73540900  0.53775800  0.63581900  1
  C  1298  1  0.72314300  0.53145800  0.62405700  1
  C  1299  1  0.72110200  0.51420900  0.62155800  1
  C  1300  1  0.73116000  0.50241100  0.63067900  1
  C  1301  1  0.74355000  0.50881000  0.64228700  1
  C  1302  1  0.74563700  0.52599100  0.64476700  1
  C  1305  1  0.72838800  0.48476000  0.62908000  1
  C  1306  1  0.71102100  0.47800600  0.62736900  1
  C  1307  1  0.70805200  0.46073400  0.62730700  1
  C  1308  1  0.72228600  0.44926700  0.62895100  1
  C  1309  1  0.73973200  0.45595900  0.63013900  1
  C  1310  1  0.74267700  0.47325400  0.63019000  1
  C  1317  1  0.71854000  0.43230900  0.63086600  1
  C  1318  1  0.73692100  0.55462700  0.63983500  1
  C  1321  1  0.23539100  0.94942500  0.36842700  1
  C  1322  1  0.22309800  0.95572700  0.38016600  1
  C  1323  1  0.22105900  0.97297500  0.38266800  1
  C  1324  1  0.23114500  0.98477200  0.37357400  1
  C  1325  1  0.24356400  0.97837400  0.36199100  1
  C  1326  1  0.24564800  0.96119300  0.35950800  1
  C  1329  1  0.22837000  0.00242300  0.37516600  1
  C  1330  1  0.21099700  0.00917700  0.37682800  1
  C  1331  1  0.20802700  0.02644900  0.37687000  1
  C  1332  1  0.22226500  0.03791500  0.37525200  1
  C  1333  1  0.23971500  0.03122200  0.37411600  1
  C  1334  1  0.24266100  0.01392800  0.37408500  1
  C  1341  1  0.21853100  0.05487100  0.37329000  1
  C  1342  1  0.23689000  0.93256200  0.36439500  1
  C  1345  1  0.00346000  0.53595000  0.85783800  1
  C  1346  1  0.01071500  0.52997800  0.87285900  1
  C  1347  1  0.01321000  0.51287000  0.87536700  1
  C  1348  1  0.00842400  0.50129000  0.86298300  1
  C  1349  1  0.00152600  0.50737600  0.84784700  1
  C  1350  1  0.99901900  0.52443900  0.84532200  1
  C  1353  1  0.00976600  0.48391700  0.86581500  1
  C  1354  1  0.02538400  0.47672700  0.87258600  1
  C  1355  1  0.02667700  0.45946200  0.87488400  1
  C  1356  1  0.01237500  0.44896200  0.87042100  1
  C  1357  1  0.99656200  0.45616400  0.86411300  1
  C  1358  1  0.99530600  0.47336700  0.86182400  1
  C  1365  1  0.01374800  0.43198300  0.87215800  1
  C  1366  1  0.99984500  0.55255100  0.85537800  1
  C  1369  1  0.50350600  0.95121500  0.14643000  1
  C  1370  1  0.51075500  0.95718500  0.13140500  1
  C  1371  1  0.51323400  0.97429400  0.12888700  1
  C  1372  1  0.50843700  0.98587800  0.14126400  1
  C  1373  1  0.50154300  0.97979600  0.15640300  1
  C  1374  1  0.49905200  0.96273100  0.15893700  1
  C  1377  1  0.50976800  0.00325000  0.13842300  1
  C  1378  1  0.52538400  0.01044600  0.13165600  1
  C  1379  1  0.52667000  0.02771000  0.12935500  1
  C  1380  1  0.51236100  0.03820400  0.13381400  1
  C  1381  1  0.49654800  0.03099700  0.14011600  1
  C  1382  1  0.49530100  0.01379400  0.14240700  1
  C  1389  1  0.51372600  0.05518400  0.13207700  1
  C  1390  1  0.49991200  0.93461300  0.14890500  1
  C  1393  1  0.25104000  0.38602000  0.29400200  1
  C  1394  1  0.25952700  0.37154300  0.28807200  1
  C  1395  1  0.26241700  0.36931900  0.27100400  1
  C  1396  1  0.25684500  0.38145800  0.25945800  1
  C  1397  1  0.24872100  0.39608400  0.26554800  1
  C  1398  1  0.24577700  0.39831500  0.28256400  1
  C  1401  1  0.25864300  0.37885300  0.24210800  1
  C  1402  1  0.27479300  0.37305000  0.23508400  1
  C  1403  1  0.27650400  0.37098600  0.21784800  1
  C  1404  1  0.26209500  0.37473600  0.20721500  1
  C  1405  1  0.24578100  0.38006700  0.21423200  1
  C  1406  1  0.24410800  0.38210900  0.23140700  1
  C  1413  1  0.26382700  0.37327700  0.19027200  1
  C  1414  1  0.24714000  0.38814700  0.31053100  1
  C  1417  1  0.75101500  0.10109300  0.71023900  1
  C  1418  1  0.75947900  0.11558400  0.71616800  1
  C  1419  1  0.76237000  0.11781200  0.73323500  1
  C  1420  1  0.75682200  0.10566500  0.74478200  1
  C  1421  1  0.74872100  0.09102800  0.73869600  1
  C  1422  1  0.74577500  0.08879100  0.72168100  1
  C  1425  1  0.75862600  0.10827300  0.76213200  1
  C  1426  1  0.77476600  0.11410800  0.76914900  1
  C  1427  1  0.77648000  0.11618300  0.78638200  1
  C  1428  1  0.76208500  0.11241000  0.79702300  1
  C  1429  1  0.74578000  0.10704300  0.79001500  1
  C  1430  1  0.74410300  0.10499200  0.77284100  1
  C  1437  1  0.76381600  0.11389100  0.81396300  1
  C  1438  1  0.74711900  0.09895700  0.69371200  1
  C  1441  1  0.47478000  0.95007600  0.85813700  1
  C  1442  1  0.46764500  0.95625500  0.87312100  1
  C  1443  1  0.46541300  0.97341600  0.87549100  1
  C  1444  1  0.47035200  0.98483100  0.86300300  1
  C  1445  1  0.47709300  0.97853500  0.84789500  1
  C  1446  1  0.47934000  0.96142300  0.84550800  1
  C  1449  1  0.46931800  0.00224300  0.86569400  1
  C  1450  1  0.45383300  0.00971700  0.87241100  1
  C  1451  1  0.45283100  0.02701600  0.87454100  1
  C  1452  1  0.46729700  0.03727400  0.86996000  1
  C  1453  1  0.48298000  0.02978800  0.86370200  1
  C  1454  1  0.48394600  0.01254700  0.86158300  1
  C  1461  1  0.46618400  0.05428400  0.87156400  1
  C  1462  1  0.47827100  0.93343700  0.85583100  1
  C  1465  1  0.97475700  0.53712200  0.14613400  1
  C  1466  1  0.96762800  0.53094900  0.13114600  1
  C  1467  1  0.96541200  0.51378700  0.12876500  1
  C  1468  1  0.97036200  0.50236700  0.14124400  1
  C  1469  1  0.97710200  0.50865900  0.15635600  1
  C  1470  1  0.97933000  0.52577200  0.15875400  1
  C  1473  1  0.96934100  0.48495700  0.13854400  1
  C  1474  1  0.95385700  0.47747700  0.13183200  1
  C  1475  1  0.95286400  0.46017700  0.12969800  1
  C  1476  1  0.96733800  0.44992700  0.13427300  1
  C  1477  1  0.98302000  0.45741800  0.14052500  1
  C  1478  1  0.98397700  0.47466000  0.14264700  1
  C  1485  1  0.96623200  0.43291400  0.13267000  1
  C  1486  1  0.97822600  0.55376400  0.14845700  1
  C  1489  1  0.22721200  0.10163400  0.29516800  1
  C  1490  1  0.21888600  0.11608200  0.28898600  1
  C  1491  1  0.21623700  0.11811900  0.27185800  1
  C  1492  1  0.22189600  0.10581800  0.26052000  1
  C  1493  1  0.22982200  0.09121200  0.26686700  1
  C  1494  1  0.23252700  0.08916600  0.28393700  1
  C  1497  1  0.22039300  0.10822900  0.24312100  1
  C  1498  1  0.20438200  0.11400000  0.23581100  1
  C  1499  1  0.20295200  0.11584600  0.21853000  1
  C  1500  1  0.21750800  0.11190600  0.20813300  1
  C  1501  1  0.23368600  0.10660400  0.21543700  1
  C  1502  1  0.23508000  0.10478100  0.23265800  1
  C  1509  1  0.21603100  0.11320900  0.19115500  1
  C  1510  1  0.23099400  0.09969400  0.31173600  1
  C  1513  1  0.72721500  0.38562900  0.70908600  1
  C  1514  1  0.71891000  0.37116800  0.71526300  1
  C  1515  1  0.71626900  0.36911800  0.73239000  1
  C  1516  1  0.72191600  0.38141900  0.74373400  1
  C  1517  1  0.72982100  0.39603900  0.73739300  1
  C  1518  1  0.73251600  0.39809700  0.72032300  1
  C  1521  1  0.72042000  0.37899700  0.76113200  1
  C  1522  1  0.70441900  0.37319600  0.76844100  1
  C  1523  1  0.70299700  0.37133400  0.78572000  1
  C  1524  1  0.71754900  0.37528800  0.79611700  1
  C  1525  1  0.73371500  0.38062100  0.78881400  1
  C  1526  1  0.73510200  0.38246000  0.77159500  1
  C  1533  1  0.71607900  0.37396500  0.81309400  1
  C  1534  1  0.73099000  0.38758200  0.69251800  1
  C  1537  1  0.72621100  0.59938800  0.71017700  1
  C  1538  1  0.71844400  0.61421700  0.71613300  1
  C  1539  1  0.71610600  0.61677500  0.73322800  1
  C  1540  1  0.72158000  0.60464000  0.74480700  1
  C  1541  1  0.72900000  0.58968800  0.73875600  1
  C  1542  1  0.73133600  0.58711100  0.72170600  1
  C  1545  1  0.72036200  0.60754500  0.76214300  1
  C  1546  1  0.70450600  0.61362700  0.76948900  1
  C  1547  1  0.70331000  0.61585000  0.78674200  1
  C  1548  1  0.71795800  0.61201900  0.79707100  1
  C  1549  1  0.73400500  0.60646300  0.78969400  1
  C  1550  1  0.73516000  0.60423000  0.77250600  1
  C  1557  1  0.71661500  0.61347000  0.81406000  1
  C  1558  1  0.72965800  0.59690300  0.69356900  1
  C  1561  1  0.22623000  0.88784900  0.29406600  1
  C  1562  1  0.21850300  0.87300300  0.28810700  1
  C  1563  1  0.21616400  0.87044600  0.27101500  1
  C  1564  1  0.22159300  0.88259800  0.25943600  1
  C  1565  1  0.22897500  0.89756700  0.26549000  1
  C  1566  1  0.23131200  0.90014300  0.28253800  1
  C  1569  1  0.22037200  0.87969800  0.24210000  1
  C  1570  1  0.20453000  0.87357300  0.23476100  1
  C  1571  1  0.20333100  0.87134500  0.21750900  1
  C  1572  1  0.21796000  0.87521700  0.20717300  1
  C  1573  1  0.23399300  0.88081900  0.21454100  1
  C  1574  1  0.23515200  0.88305500  0.23173000  1
  C  1581  1  0.21661700  0.87374500  0.19018600  1
  C  1582  1  0.22967400  0.89034000  0.31067500  1
  C  1585  1  0.75391800  0.88747500  0.70896800  1
  C  1586  1  0.76154900  0.87268000  0.71514400  1
  C  1587  1  0.76366700  0.87029300  0.73229000  1
  C  1588  1  0.75810400  0.88256700  0.74368700  1
  C  1589  1  0.75085200  0.89749500  0.73740800  1
  C  1590  1  0.74873300  0.89990200  0.72031200  1
  C  1593  1  0.75906200  0.87984200  0.76106400  1
  C  1594  1  0.77479200  0.87379100  0.76865900  1
  C  1595  1  0.77574100  0.87176200  0.78594500  1
  C  1596  1  0.76097100  0.87576000  0.79606500  1
  C  1597  1  0.74505100  0.88129200  0.78844100  1
  C  1598  1  0.74414100  0.88333100  0.77121500  1
  C  1605  1  0.76209700  0.87443900  0.81308000  1
  C  1606  1  0.75057100  0.88978100  0.69232200  1
  C  1609  1  0.25392800  0.59963900  0.29526400  1
  C  1610  1  0.26151300  0.61445500  0.28908600  1
  C  1611  1  0.26362500  0.61684800  0.27194200  1
  C  1612  1  0.25810000  0.60455900  0.26054300  1
  C  1613  1  0.25089300  0.58961100  0.26682300  1
  C  1614  1  0.24878100  0.58719900  0.28391800  1
  C  1617  1  0.25905000  0.60728700  0.24316800  1
  C  1618  1  0.27475800  0.61338600  0.23557400  1
  C  1619  1  0.27569900  0.61542700  0.21828800  1
  C  1620  1  0.26094200  0.61139200  0.20816700  1
  C  1621  1  0.24504200  0.60580700  0.21579000  1
  C  1622  1  0.24413900  0.60375900  0.23301600  1
  C  1629  1  0.26205900  0.61273200  0.19115300  1
  C  1630  1  0.25058300  0.59732700  0.31190900  1
  C  1633  1  0.50099100  0.03666500  0.35975300  1
  C  1634  1  0.50991700  0.03065500  0.37395300  1
  C  1635  1  0.51268700  0.01353400  0.37610800  1
  C  1636  1  0.50654300  0.00202000  0.36418200  1
  C  1637  1  0.49798300  0.00817900  0.34982300  1
  C  1638  1  0.49516900  0.02524800  0.34765800  1
  C  1641  1  0.50822100  0.98463200  0.36674400  1
  C  1642  1  0.52452900  0.97741700  0.37189400  1
  C  1643  1  0.52612700  0.96012800  0.37381200  1
  C  1644  1  0.51143700  0.94963100  0.37058300  1
  C  1645  1  0.49497500  0.95685700  0.36595300  1
  C  1646  1  0.49341800  0.97408300  0.36404100  1
  C  1653  1  0.51310300  0.93262400  0.37176200  1
  C  1654  1  0.49719100  0.05325400  0.35772600  1
  C  1657  1  0.00101700  0.45050800  0.64452600  1
  C  1658  1  0.00995700  0.45651200  0.63033100  1
  C  1659  1  0.01270800  0.47363400  0.62815900  1
  C  1660  1  0.00653200  0.48515500  0.64006200  1
  C  1661  1  0.99795500  0.47900400  0.65441500  1
  C  1662  1  0.99515900  0.46193600  0.65659700  1
  C  1665  1  0.00820400  0.50254200  0.63748800  1
  C  1666  1  0.02451800  0.50976200  0.63236200  1
  C  1667  1  0.02611200  0.52705000  0.63044500  1
  C  1668  1  0.01141400  0.53754300  0.63364800  1
  C  1669  1  0.99494600  0.53031100  0.63825100  1
  C  1670  1  0.99339000  0.51308600  0.64016500  1
  C  1677  1  0.01307500  0.55454900  0.63247600  1
  C  1678  1  0.99724900  0.43391600  0.64658300  1
  C  1681  1  0.97773400  0.44931500  0.36019900  1
  C  1682  1  0.96901300  0.45556700  0.37439700  1
  C  1683  1  0.96649700  0.47274500  0.37639200  1
  C  1684  1  0.97270000  0.48406100  0.36430200  1
  C  1685  1  0.98103100  0.47765400  0.34993700  1
  C  1686  1  0.98359100  0.46053400  0.34793300  1
  C  1689  1  0.97129700  0.50149500  0.36668200  1
  C  1690  1  0.95513500  0.50895900  0.37186700  1
  C  1691  1  0.95379300  0.52628400  0.37358800  1
  C  1692  1  0.96859100  0.53657600  0.37012300  1
  C  1693  1  0.98490900  0.52910300  0.36544600  1
  C  1694  1  0.98621400  0.51183700  0.36373100  1
  C  1701  1  0.96713900  0.55361200  0.37117300  1
  C  1702  1  0.98138000  0.43268600  0.35833100  1
  C  1705  1  0.47773300  0.03787500  0.64409400  1
  C  1706  1  0.46899100  0.03163200  0.62990200  1
  C  1707  1  0.46649700  0.01445500  0.62788400  1
  C  1708  1  0.47274000  0.00312800  0.63994700  1
  C  1709  1  0.48109300  0.00952400  0.65430500  1
  C  1710  1  0.48363400  0.02664400  0.65633000  1
  C  1713  1  0.47134300  0.98569700  0.63755100  1
  C  1714  1  0.45517400  0.97822900  0.63239600  1
  C  1715  1  0.45383300  0.96090300  0.63067400  1
  C  1716  1  0.46864300  0.95061400  0.63410700  1
  C  1717  1  0.48496900  0.95809200  0.63875200  1
  C  1718  1  0.48627200  0.97535700  0.64046700  1
  C  1725  1  0.46719400  0.93357900  0.63306300  1
  C  1726  1  0.48134200  0.05450800  0.64599700  1
  C  1729  1  0.81826200  0.36413500  0.88770300  1
  C  1730  1  0.82582200  0.34873800  0.89235400  1
  C  1731  1  0.84439200  0.34642800  0.89241200  1
  C  1732  1  0.85609000  0.35945400  0.88797300  1
  C  1733  1  0.84853000  0.37493800  0.88360400  1
  C  1734  1  0.82991100  0.37725900  0.88349100  1
  C  1737  1  0.87492500  0.35692200  0.88792700  1
  C  1738  1  0.88336300  0.34821600  0.90099100  1
  C  1739  1  0.90190800  0.34563700  0.90101700  1
  C  1740  1  0.91252200  0.35182600  0.88798200  1
  C  1741  1  0.90428500  0.36049900  0.87486800  1
  C  1742  1  0.88569600  0.36293500  0.87482800  1
  C  1749  1  0.93076500  0.35045900  0.88891000  1
  C  1750  1  0.79993700  0.36633500  0.88676400  1
  C  1753  1  0.31824400  0.12307000  0.11653400  1
  C  1754  1  0.32580200  0.13847000  0.11189200  1
  C  1755  1  0.34437200  0.14078100  0.11183000  1
  C  1756  1  0.35607100  0.12775100  0.11625900  1
  C  1757  1  0.34851200  0.11226500  0.12061900  1
  C  1758  1  0.32989500  0.10994300  0.12073400  1
  C  1761  1  0.37490600  0.13028500  0.11630700  1
  C  1762  1  0.38334300  0.13899800  0.10324700  1
  C  1763  1  0.40189000  0.14157700  0.10322300  1
  C  1764  1  0.41250300  0.13538100  0.11625400  1
  C  1765  1  0.40426500  0.12670300  0.12936400  1
  C  1766  1  0.38567600  0.12426700  0.12940300  1
  C  1773  1  0.43074600  0.13674400  0.11532500  1
  C  1774  1  0.29992100  0.12087000  0.11748300  1
  C  1777  1  0.06829600  0.35809300  0.12241000  1
  C  1778  1  0.07584100  0.35351000  0.10701000  1
  C  1779  1  0.09441000  0.35344200  0.10469500  1
  C  1780  1  0.10611900  0.35780700  0.11772100  1
  C  1781  1  0.09857200  0.36210700  0.13320700  1
  C  1782  1  0.07995500  0.36222600  0.13553200  1
  C  1785  1  0.12495200  0.35785500  0.11518400  1
  C  1786  1  0.13337800  0.34480700  0.10642900  1
  C  1787  1  0.15192200  0.34478600  0.10384400  1
  C  1788  1  0.16254700  0.35780900  0.11007300  1
  C  1789  1  0.15431800  0.37090900  0.11879500  1
  C  1790  1  0.13573200  0.37094400  0.12124000  1
  C  1797  1  0.18079200  0.35688600  0.10868600  1
  C  1798  1  0.04997500  0.35905000  0.12461700  1
  C  1801  1  0.56828200  0.12901700  0.88182900  1
  C  1802  1  0.57583400  0.13357700  0.89723300  1
  C  1803  1  0.59440400  0.13364000  0.89954100  1
  C  1804  1  0.60610900  0.12929500  0.88650500  1
  C  1805  1  0.59855400  0.12501500  0.87101600  1
  C  1806  1  0.57993700  0.12490000  0.86869800  1
  C  1809  1  0.62494300  0.12925500  0.88903200  1
  C  1810  1  0.63336200  0.14229700  0.89780400  1
  C  1811  1  0.65190700  0.14233300  0.90037300  1
  C  1812  1  0.66254100  0.12933200  0.89411300  1
  C  1813  1  0.65432200  0.11624000  0.88537300  1
  C  1814  1  0.63573300  0.11618900  0.88294300  1
  C  1821  1  0.68078400  0.13029000  0.89547000  1
  C  1822  1  0.54996000  0.12807000  0.87962500  1
  C  1825  1  0.16052500  0.62350000  0.11639600  1
  C  1826  1  0.15271600  0.63901400  0.11256600  1
  C  1827  1  0.13411200  0.64106900  0.11266600  1
  C  1828  1  0.12264400  0.62766900  0.11646600  1
  C  1829  1  0.13045500  0.61209500  0.12005800  1
  C  1830  1  0.14910500  0.61002600  0.11999800  1
  C  1833  1  0.10377500  0.62990700  0.11659700  1
  C  1834  1  0.09520000  0.63899300  0.10387600  1
  C  1835  1  0.07660500  0.64122900  0.10389800  1
  C  1836  1  0.06608700  0.63431000  0.11663100  1
  C  1837  1  0.07447300  0.62526900  0.12941500  1
  C  1838  1  0.09310700  0.62316600  0.12941000  1
  C  1845  1  0.04782100  0.63540100  0.11569700  1
  C  1846  1  0.17887700  0.62147200  0.11706600  1
  C  1849  1  0.66053500  0.86365500  0.88785800  1
  C  1850  1  0.65272900  0.84813900  0.89168300  1
  C  1851  1  0.63412600  0.84608400  0.89158500  1
  C  1852  1  0.62265600  0.85948400  0.88778900  1
  C  1853  1  0.63046500  0.87506100  0.88420400  1
  C  1854  1  0.64911400  0.87713100  0.88426400  1
  C  1857  1  0.60378800  0.85724500  0.88765500  1
  C  1858  1  0.59521100  0.84815400  0.90037100  1
  C  1859  1  0.57661500  0.84591800  0.90034600  1
  C  1860  1  0.56609900  0.85284000  0.88761400  1
  C  1861  1  0.57448700  0.86188200  0.87483300  1
  C  1862  1  0.59312100  0.86398600  0.87484200  1
  C  1869  1  0.54783300  0.85175000  0.88854600  1
  C  1870  1  0.67888800  0.86568500  0.88718100  1
  C  1873  1  0.91167300  0.62862000  0.88153600  1
  C  1874  1  0.90419400  0.63350900  0.89686900  1
  C  1875  1  0.88562500  0.63393100  0.89914400  1
  C  1876  1  0.87386500  0.62962400  0.88614000  1
  C  1877  1  0.88135400  0.62504100  0.87071000  1
  C  1878  1  0.89996900  0.62457400  0.86842400  1
  C  1881  1  0.85503800  0.62983600  0.88867000  1
  C  1882  1  0.84678500  0.64307600  0.89728000  1
  C  1883  1  0.82825000  0.64329900  0.89992300  1
  C  1884  1  0.81747700  0.63028500  0.89390100  1
  C  1885  1  0.82553200  0.61700300  0.88531700  1
  C  1886  1  0.84410400  0.61677200  0.88280800  1
  C  1893  1  0.79925600  0.63131400  0.89540100  1
  C  1894  1  0.92997100  0.62733300  0.87938800  1
  C  1897  1  0.41167800  0.85864400  0.12270800  1
  C  1898  1  0.40419000  0.85377500  0.10737200  1
  C  1899  1  0.38562100  0.85336000  0.10510500  1
  C  1900  1  0.37386700  0.85765000  0.11812000  1
  C  1901  1  0.38136500  0.86221500  0.13355100  1
  C  1902  1  0.39998100  0.86267700  0.13583000  1
  C  1905  1  0.35503800  0.85742900  0.11560100  1
  C  1906  1  0.34679000  0.84419400  0.10697800  1
  C  1907  1  0.32825400  0.84395900  0.10435200  1
  C  1908  1  0.31747400  0.85695300  0.11040400  1
  C  1909  1  0.32552300  0.87022900  0.11900100  1
  C  1910  1  0.34409700  0.87047500  0.12149200  1
  C  1917  1  0.29925500  0.85589500  0.10893200  1
  C  1918  1  0.42997900  0.85991900  0.12485200  1
  C  1921  1  0.31762600  0.86465700  0.38657800  1
  C  1922  1  0.32520400  0.84931400  0.39138000  1
  C  1923  1  0.34378800  0.84715900  0.39186800  1
  C  1924  1  0.35546900  0.86029200  0.38772000  1
  C  1925  1  0.34788300  0.87572300  0.38320500  1
  C  1926  1  0.32925300  0.87789100  0.38267000  1
  C  1929  1  0.37431700  0.85789300  0.38803800  1
  C  1930  1  0.38254100  0.84924100  0.40125500  1
  C  1931  1  0.40109300  0.84671700  0.40157800  1
  C  1932  1  0.41191600  0.85290600  0.38869400  1
  C  1933  1  0.40389100  0.86153900  0.37544000  1
  C  1934  1  0.38530200  0.86392900  0.37510700  1
  C  1941  1  0.43013800  0.85147400  0.38981000  1
  C  1942  1  0.29931200  0.86671600  0.38528300  1
  C  1945  1  0.81760200  0.62254400  0.61766400  1
  C  1946  1  0.82517600  0.63788900  0.61286500  1
  C  1947  1  0.84376000  0.64004800  0.61237300  1
  C  1948  1  0.85544400  0.62691300  0.61651300  1
  C  1949  1  0.84785900  0.61148000  0.62102300  1
  C  1950  1  0.82923000  0.60931000  0.62156200  1
  C  1953  1  0.87429000  0.62931300  0.61619300  1
  C  1954  1  0.88251300  0.63797000  0.60297900  1
  C  1955  1  0.90106600  0.64049400  0.60265500  1
  C  1956  1  0.91188900  0.63430100  0.61553600  1
  C  1957  1  0.90386500  0.62566600  0.62878900  1
  C  1958  1  0.88527600  0.62327400  0.62912300  1
  C  1965  1  0.93011200  0.63573300  0.61441900  1
  C  1966  1  0.79928800  0.62048400  0.61896700  1
  C  1969  1  0.56846100  0.85796000  0.62215000  1
  C  1970  1  0.57636100  0.85435700  0.60664400  1
  C  1971  1  0.59498100  0.85437400  0.60471800  1
  C  1972  1  0.60637200  0.85787000  0.61823800  1
  C  1973  1  0.59846700  0.86122800  0.63379900  1
  C  1974  1  0.57980200  0.86124400  0.63574300  1
  C  1977  1  0.62525700  0.85796400  0.61612200  1
  C  1978  1  0.63384100  0.84535600  0.60687600  1
  C  1979  1  0.65244800  0.84537200  0.60471900  1
  C  1980  1  0.66297200  0.85798500  0.61187600  1
  C  1981  1  0.65457000  0.87065100  0.62108500  1
  C  1982  1  0.63592700  0.87065200  0.62311400  1
  C  1989  1  0.68124700  0.85706400  0.61078100  1
  C  1990  1  0.55009900  0.85872900  0.62406400  1
  C  1993  1  0.06844300  0.62914200  0.38208600  1
  C  1994  1  0.07634700  0.63272100  0.39759500  1
  C  1995  1  0.09496700  0.63270400  0.39951800  1
  C  1996  1  0.10635600  0.62923400  0.38599200  1
  C  1997  1  0.09844900  0.62589500  0.37042600  1
  C  1998  1  0.07978400  0.62587900  0.36848700  1
  C  2001  1  0.12524200  0.62915300  0.38810300  1
  C  2002  1  0.13381300  0.64175500  0.39736800  1
  C  2003  1  0.15242200  0.64176000  0.39951200  1
  C  2004  1  0.16296000  0.62917500  0.39232300  1
  C  2005  1  0.15457300  0.61651500  0.38309300  1
  C  2006  1  0.13592700  0.61649200  0.38108000  1
  C  2013  1  0.18123100  0.63013900  0.39339200  1
  C  2014  1  0.05008000  0.62838200  0.38017000  1
  C  2017  1  0.66114500  0.12320400  0.61806900  1
  C  2018  1  0.65343800  0.13867400  0.61389700  1
  C  2019  1  0.63483900  0.14071200  0.61350300  1
  C  2020  1  0.62327600  0.12733600  0.61712900  1
  C  2021  1  0.63099000  0.11180100  0.62105700  1
  C  2022  1  0.64963600  0.10974800  0.62148700  1
  C  2025  1  0.60441300  0.12957600  0.61681700  1
  C  2026  1  0.59616300  0.13856200  0.60384200  1
  C  2027  1  0.57758200  0.14088900  0.60349800  1
  C  2028  1  0.56676100  0.13416100  0.61611300  1
  C  2029  1  0.57482100  0.12520300  0.62913400  1
  C  2030  1  0.59343600  0.12300500  0.62949100  1
  C  2037  1  0.54853100  0.13546500  0.61495200  1
  C  2038  1  0.67947700  0.12118600  0.61913700  1
  C  2041  1  0.16116300  0.36395200  0.38618800  1
  C  2042  1  0.15346000  0.34847900  0.39035800  1
  C  2043  1  0.13486000  0.34643900  0.39075600  1
  C  2044  1  0.12329400  0.35981400  0.38713200  1
  C  2045  1  0.13100400  0.37535100  0.38320600  1
  C  2046  1  0.14964900  0.37740700  0.38277300  1
  C  2049  1  0.10443200  0.35756900  0.38744300  1
  C  2050  1  0.09618200  0.34858100  0.40041700  1
  C  2051  1  0.07760100  0.34625300  0.40076000  1
  C  2052  1  0.06678100  0.35297900  0.38814500  1
  C  2053  1  0.07484000  0.36193800  0.37512400  1
  C  2054  1  0.09345500  0.36413800  0.37476800  1
  C  2061  1  0.04855000  0.35167500  0.38930600  1
  C  2062  1  0.17949300  0.36597100  0.38511100  1
  C  2065  1  0.41118500  0.12820100  0.38167700  1
  C  2066  1  0.40333000  0.13212400  0.39712600  1
  C  2067  1  0.38471000  0.13235100  0.39904700  1
  C  2068  1  0.37328000  0.12879300  0.38557400  1
  C  2069  1  0.38114100  0.12509300  0.37007000  1
  C  2070  1  0.39980400  0.12483600  0.36813400  1
  C  2073  1  0.35439700  0.12898200  0.38767700  1
  C  2074  1  0.34599600  0.14185700  0.39670100  1
  C  2075  1  0.32739200  0.14210100  0.39886600  1
  C  2076  1  0.31669800  0.12948700  0.39193600  1
  C  2077  1  0.32491100  0.11656500  0.38294100  1
  C  2078  1  0.34355000  0.11630600  0.38090300  1
  C  2085  1  0.29844700  0.13057300  0.39309000  1
  C  2086  1  0.42954000  0.12734000  0.37975300  1
  C  2089  1  0.91119300  0.35907600  0.62257800  1
  C  2090  1  0.90333300  0.35517600  0.60712600  1
  C  2091  1  0.88471400  0.35495100  0.60521000  1
  C  2092  1  0.87328700  0.35848600  0.61869100  1
  C  2093  1  0.88115300  0.36216700  0.63419800  1
  C  2094  1  0.89981600  0.36242500  0.63612900  1
  C  2097  1  0.85440400  0.35828300  0.61659600  1
  C  2098  1  0.84601200  0.34541500  0.60755500  1
  C  2099  1  0.82740700  0.34514900  0.60540500  1
  C  2100  1  0.81670200  0.35773700  0.61236500  1
  C  2101  1  0.82490300  0.37065500  0.62137700  1
  C  2102  1  0.84354300  0.37093400  0.62340000  1
  C  2109  1  0.79845400  0.35661400  0.61123600  1
  C  2110  1  0.92955000  0.35993000  0.62450100  1
  C  2113  1  0.98882400  0.37563600  0.95752500  1
  C  2114  1  0.98962400  0.35974400  0.96495400  1
  C  2115  1  0.98981600  0.35784200  0.98233200  1
  C  2116  1  0.98915600  0.37168200  0.99315800  1
  C  2117  1  0.98881900  0.38756500  0.98565900  1
  C  2118  1  0.98856700  0.38949100  0.96830600  1
  C  2121  1  0.98838500  0.36976600  0.01091100  1
  C  2122  1  0.97815000  0.35703600  0.01843700  1
  C  2123  1  0.97774400  0.35489000  0.03577200  1
  C  2124  1  0.98739600  0.36550400  0.04647500  1
  C  2125  1  0.99742500  0.37840800  0.03904200  1
  C  2126  1  0.99784500  0.38050200  0.02169900  1
  C  2133  1  0.98887900  0.36171400  0.06333300  1
  C  2134  1  0.98562700  0.37789100  0.94057800  1
  C  2137  1  0.48881900  0.11154400  0.04674100  1
  C  2138  1  0.48962000  0.12743500  0.03931000  1
  C  2139  1  0.48981100  0.12933700  0.02193200  1
  C  2140  1  0.48914600  0.11549600  0.01110900  1
  C  2141  1  0.48880700  0.09961400  0.01860800  1
  C  2142  1  0.48855700  0.09768800  0.03596100  1
  C  2145  1  0.48837600  0.11740900  0.99335400  1
  C  2146  1  0.47814700  0.13014300  0.98582800  1
  C  2147  1  0.47774200  0.13228900  0.96849300  1
  C  2148  1  0.48738900  0.12167000  0.95779100  1
  C  2149  1  0.49741100  0.10876200  0.96522400  1
  C  2150  1  0.49783100  0.10667000  0.98256700  1
  C  2157  1  0.48888300  0.12546200  0.94093600  1
  C  2158  1  0.48562200  0.10929000  0.06368900  1
  C  2161  1  0.23883100  0.28819300  0.13384800  1
  C  2162  1  0.23959300  0.28077000  0.11797100  1
  C  2163  1  0.23976000  0.26337200  0.11605700  1
  C  2164  1  0.23911100  0.25253700  0.12987500  1
  C  2165  1  0.23881600  0.26002000  0.14574300  1
  C  2166  1  0.23859200  0.27739600  0.14768000  1
  C  2169  1  0.23833000  0.23477200  0.12794700  1
  C  2170  1  0.22799200  0.22725900  0.11529800  1
  C  2171  1  0.22758200  0.20990300  0.11313500  1
  C  2172  1  0.23733900  0.19918900  0.12365300  1
  C  2173  1  0.24747300  0.20661500  0.13647500  1
  C  2174  1  0.24789700  0.22397700  0.13858600  1
  C  2181  1  0.23878200  0.18231300  0.11986700  1
  C  2182  1  0.23570200  0.30516800  0.13611800  1
  C  2185  1  0.73887000  0.19900100  0.87042200  1
  C  2186  1  0.73963100  0.20641900  0.88630100  1
  C  2187  1  0.73979900  0.22381700  0.88821700  1
  C  2188  1  0.73915200  0.23465500  0.87440000  1
  C  2189  1  0.73885900  0.22717300  0.85853100  1
  C  2190  1  0.73863400  0.20979900  0.85659100  1
  C  2193  1  0.73836300  0.25241700  0.87633100  1
  C  2194  1  0.72801300  0.25992600  0.88897600  1
  C  2195  1  0.72759500  0.27728200  0.89114100  1
  C  2196  1  0.73735600  0.28799900  0.88063000  1
  C  2197  1  0.74750100  0.28057800  0.86781100  1
  C  2198  1  0.74793200  0.26321700  0.86569700  1
  C  2205  1  0.73879100  0.30487300  0.88442000  1
  C  2206  1  0.73571500  0.18203300  0.86815200  1
  C  2209  1  0.99012300  0.61068300  0.04668300  1
  C  2210  1  0.98939500  0.62659300  0.03928700  1
  C  2211  1  0.98930000  0.62853300  0.02191200  1
  C  2212  1  0.98999800  0.61471400  0.01106500  1
  C  2213  1  0.99027400  0.59881500  0.01852900  1
  C  2214  1  0.99041800  0.59685000  0.03587600  1
  C  2217  1  0.99084700  0.61665700  0.99332000  1
  C  2218  1  0.00110700  0.62940000  0.98584500  1
  C  2219  1  0.00159300  0.63155700  0.96851300  1
  C  2220  1  0.99200700  0.62093100  0.95777000  1
  C  2221  1  0.98194600  0.60802100  0.96515300  1
  C  2222  1  0.98143900  0.60592300  0.98249100  1
  C  2229  1  0.99059500  0.62470900  0.94091000  1
  C  2230  1  0.99320300  0.60837200  0.06364000  1
  C  2233  1  0.49012500  0.87649900  0.95753000  1
  C  2234  1  0.48939000  0.86059100  0.96492900  1
  C  2235  1  0.48929700  0.85865300  0.98230400  1
  C  2236  1  0.49000200  0.87247400  0.99314900  1
  C  2237  1  0.49028400  0.88837200  0.98568300  1
  C  2238  1  0.49042600  0.89033400  0.96833600  1
  C  2241  1  0.49085000  0.87053400  0.01089500  1
  C  2242  1  0.50110000  0.85778600  0.01837200  1
  C  2243  1  0.50158300  0.85563200  0.03570500  1
  C  2244  1  0.49200400  0.86626400  0.04644400  1
  C  2245  1  0.48195400  0.87917900  0.03906000  1
  C  2246  1  0.48145000  0.88127400  0.02172200  1
  C  2253  1  0.49057900  0.86248700  0.06330300  1
  C  2254  1  0.49320500  0.87880700  0.94057300  1
  C  2257  1  0.74019400  0.69901200  0.87050000  1
  C  2258  1  0.73937800  0.70643200  0.88637500  1
  C  2259  1  0.73924900  0.72383200  0.88829300  1
  C  2260  1  0.74000100  0.73467300  0.87448200  1
  C  2261  1  0.74033700  0.72718900  0.85861400  1
  C  2262  1  0.74051600  0.70981400  0.85667300  1
  C  2265  1  0.74085100  0.75243700  0.87641400  1
  C  2266  1  0.75112100  0.75991900  0.88913100  1
  C  2267  1  0.75158500  0.77727400  0.89129500  1
  C  2268  1  0.74196200  0.78802300  0.88070900  1
  C  2269  1  0.73190600  0.78062900  0.86781400  1
  C  2270  1  0.73142300  0.76326900  0.86570500  1
  C  2277  1  0.74047700  0.80489000  0.88453100  1
  C  2278  1  0.74340900  0.68204600  0.86823400  1
  C  2281  1  0.24016100  0.78816400  0.13372200  1
  C  2282  1  0.23934200  0.78074400  0.11784600  1
  C  2283  1  0.23921200  0.76334600  0.11592700  1
  C  2284  1  0.23996500  0.75250300  0.12973600  1
  C  2285  1  0.24030100  0.75998500  0.14560600  1
  C  2286  1  0.24048300  0.77736000  0.14754900  1
  C  2289  1  0.24082200  0.73474000  0.12780400  1
  C  2290  1  0.25109700  0.72726300  0.11508800  1
  C  2291  1  0.25156900  0.70990700  0.11292100  1
  C  2292  1  0.24194700  0.69915400  0.12350600  1
  C  2293  1  0.23188600  0.70654400  0.13639900  1
  C  2294  1  0.23139600  0.72390400  0.13851100  1
  C  2301  1  0.24046700  0.68229000  0.11967900  1
  C  2302  1  0.24340200  0.80512000  0.13598700  1
  C  2305  1  0.48910600  0.87637700  0.45753900  1
  C  2306  1  0.48987100  0.86047800  0.46495700  1
  C  2307  1  0.48999900  0.85856000  0.48233200  1
  C  2308  1  0.48929700  0.87239100  0.49316300  1
  C  2309  1  0.48901500  0.88828300  0.48568100  1
  C  2310  1  0.48883400  0.89022500  0.46833000  1
  C  2313  1  0.48842900  0.87045900  0.51090800  1
  C  2314  1  0.47814100  0.85772900  0.51837100  1
  C  2315  1  0.47766100  0.85554900  0.53569900  1
  C  2316  1  0.48728500  0.86613300  0.54645200  1
  C  2317  1  0.49735400  0.87904600  0.53908100  1
  C  2318  1  0.49785100  0.88117100  0.52174500  1
  C  2325  1  0.48876300  0.86226800  0.56329200  1
  C  2326  1  0.48586500  0.87864400  0.44060300  1
  C  2329  1  0.98909400  0.61080500  0.54672100  1
  C  2330  1  0.98986300  0.62670300  0.53930000  1
  C  2331  1  0.98999000  0.62861700  0.52192500  1
  C  2332  1  0.98928200  0.61478400  0.51109700  1
  C  2333  1  0.98899700  0.59889400  0.51858000  1
  C  2334  1  0.98881600  0.59695500  0.53593300  1
  C  2337  1  0.98841300  0.61671400  0.49335100  1
  C  2338  1  0.97813200  0.62944800  0.48588600  1
  C  2339  1  0.97765600  0.63162600  0.46855800  1
  C  2340  1  0.98727300  0.62103700  0.45780600  1
  C  2341  1  0.99733400  0.60811900  0.46518000  1
  C  2342  1  0.99782800  0.60599500  0.48251500  1
  C  2349  1  0.98876300  0.62490200  0.44097000  1
  C  2350  1  0.98585400  0.60854000  0.56365800  1
  C  2353  1  0.73912700  0.78815000  0.63551100  1
  C  2354  1  0.73980600  0.78075600  0.61961700  1
  C  2355  1  0.73992200  0.76336100  0.61767000  1
  C  2356  1  0.73930100  0.75249900  0.63147000  1
  C  2357  1  0.73907900  0.75995500  0.64735100  1
  C  2358  1  0.73891500  0.77732600  0.64932200  1
  C  2361  1  0.73848100  0.73473700  0.62951900  1
  C  2362  1  0.72812100  0.72724800  0.61686900  1
  C  2363  1  0.72766500  0.70989400  0.61470300  1
  C  2364  1  0.73738400  0.69915800  0.62522700  1
  C  2365  1  0.74754900  0.70655600  0.63804400  1
  C  2366  1  0.74802700  0.72391600  0.64015000  1
  C  2373  1  0.73877200  0.68227700  0.62146300  1
  C  2374  1  0.73606900  0.80512900  0.63783800  1
  C  2377  1  0.23916400  0.69904400  0.36874500  1
  C  2378  1  0.23984300  0.70643400  0.38464100  1
  C  2379  1  0.23996200  0.72382900  0.38659000  1
  C  2380  1  0.23934000  0.73469100  0.37279200  1
  C  2381  1  0.23911800  0.72723800  0.35690800  1
  C  2382  1  0.23895000  0.70986800  0.35493500  1
  C  2385  1  0.23851500  0.75245100  0.37474400  1
  C  2386  1  0.22814700  0.75993500  0.38739100  1
  C  2387  1  0.22768400  0.77729000  0.38956000  1
  C  2388  1  0.23740500  0.78803000  0.37904100  1
  C  2389  1  0.24757700  0.78063500  0.36622700  1
  C  2390  1  0.24806200  0.76327600  0.36411700  1
  C  2397  1  0.23879000  0.80490800  0.38281000  1
  C  2398  1  0.23607800  0.68207100  0.36641800  1
  C  2401  1  0.48990800  0.11131000  0.54668600  1
  C  2402  1  0.48911400  0.12721100  0.53927400  1
  C  2403  1  0.48905000  0.12914200  0.52189400  1
  C  2404  1  0.48985500  0.11532900  0.51104000  1
  C  2405  1  0.49019400  0.09943800  0.51852400  1
  C  2406  1  0.49030000  0.09748000  0.53587400  1
  C  2409  1  0.49074800  0.11726200  0.49328200  1
  C  2410  1  0.50085000  0.13012200  0.48581500  1
  C  2411  1  0.50136300  0.13227100  0.46847900  1
  C  2412  1  0.49197800  0.12152000  0.45770900  1
  C  2413  1  0.48208700  0.10849100  0.46508100  1
  C  2414  1  0.48154400  0.10640500  0.48242200  1
  C  2421  1  0.49048400  0.12531500  0.44085100  1
  C  2422  1  0.49304200  0.10900700  0.56364600  1
  C  2425  1  0.98991400  0.37586600  0.45753800  1
  C  2426  1  0.98911500  0.35996800  0.46495600  1
  C  2427  1  0.98905100  0.35804000  0.48233700  1
  C  2428  1  0.98986300  0.37185800  0.49318500  1
  C  2429  1  0.99020800  0.38774600  0.48569700  1
  C  2430  1  0.99031200  0.38969800  0.46834600  1
  C  2433  1  0.99075500  0.36993000  0.51094500  1
  C  2434  1  0.00084600  0.35706500  0.51841700  1
  C  2435  1  0.00135600  0.35492100  0.53575300  1
  C  2436  1  0.99197800  0.36568100  0.54651900  1
  C  2437  1  0.98209700  0.37871600  0.53914300  1
  C  2438  1  0.98155900  0.38079600  0.52180100  1
  C  2445  1  0.99047200  0.36188800  0.56337500  1
  C  2446  1  0.99304700  0.37816100  0.44057800  1
  C  2449  1  0.24002900  0.19899700  0.36864300  1
  C  2450  1  0.23927000  0.20639900  0.38452900  1
  C  2451  1  0.23921600  0.22379700  0.38647300  1
  C  2452  1  0.23999100  0.23465800  0.37267800  1
  C  2453  1  0.24028900  0.22719300  0.35680000  1
  C  2454  1  0.24038500  0.20982200  0.35483300  1
  C  2457  1  0.24087900  0.25242300  0.37462500  1
  C  2458  1  0.25111600  0.25988400  0.38738000  1
  C  2459  1  0.25161400  0.27723900  0.38955100  1
  C  2460  1  0.24206700  0.28801000  0.37892600  1
  C  2461  1  0.23204100  0.28063900  0.36599900  1
  C  2462  1  0.23151800  0.26328200  0.36389000  1
  C  2469  1  0.24060400  0.30488000  0.38273300  1
  C  2470  1  0.24310600  0.18201400  0.36633100  1
  C  2473  1  0.74000100  0.28817900  0.63560300  1
  C  2474  1  0.73923800  0.28077800  0.61971500  1
  C  2475  1  0.73918000  0.26338000  0.61777000  1
  C  2476  1  0.73995700  0.25251800  0.63156400  1
  C  2477  1  0.74025700  0.25998200  0.64744300  1
  C  2478  1  0.74035800  0.27735300  0.64941100  1
  C  2481  1  0.74085000  0.23475400  0.62961600  1
  C  2482  1  0.75108800  0.22729700  0.61686100  1
  C  2483  1  0.75159000  0.20994100  0.61468700  1
  C  2484  1  0.74204900  0.19916700  0.62531100  1
  C  2485  1  0.73202000  0.20653300  0.63823900  1
  C  2486  1  0.73149100  0.22389200  0.64034900  1
  C  2493  1  0.74058500  0.18230000  0.62150000  1
  C  2494  1  0.74310600  0.30515400  0.63791400  1
  C  2497  1  0.09342680  0.48403600  0.00755640  1
  C  2498  1  0.07499680  0.48129200  0.00521440  1
  C  2499  1  0.06380380  0.47655100  0.01830840  1
  C  2500  1  0.07055880  0.47511500  0.03464940  1
  C  2501  1  0.08897980  0.47861100  0.03750340  1
  C  2502  1  0.10054700  0.48272900  0.02399340  1
  C  2505  1  0.10270000  0.49135900  0.99371800  1
  C  2506  1  0.10381300  0.48417700  0.97751100  1
  C  2507  1  0.10963700  0.49406700  0.96381400  1
  C  2508  1  0.11503000  0.51086000  0.96631700  1
  C  2509  1  0.11356700  0.51787600  0.98236000  1
  C  2510  1  0.10724500  0.50822200  0.99562500  1
  C  2527  1  0.59339500  0.22627800  0.24424900  1
  C  2528  1  0.57497000  0.22903900  0.24660000  1
  C  2529  1  0.56378700  0.23378600  0.23350200  1
  C  2530  1  0.57054600  0.23521900  0.21716300  1
  C  2531  1  0.58896800  0.23172000  0.21431100  1
  C  2532  1  0.60053100  0.22759200  0.22782000  1
  C  2535  1  0.60266700  0.21894400  0.25808900  1
  C  2536  1  0.60379100  0.22613900  0.27428700  1
  C  2537  1  0.60961500  0.21624300  0.28798000  1
  C  2538  1  0.61500100  0.19944800  0.28547600  1
  C  2539  1  0.61353600  0.19243300  0.26943100  1
  C  2540  1  0.60719800  0.20208100  0.25617000  1
  C  2557  1  0.34347700  0.47349600  0.25449900  1
  C  2558  1  0.32505200  0.47589300  0.25174400  1
  C  2559  1  0.31384400  0.46281900  0.24692600  1
  C  2560  1  0.32057000  0.44644500  0.24547400  1
  C  2561  1  0.33898200  0.44355700  0.24897400  1
  C  2562  1  0.35057000  0.45703700  0.25316500  1
  C  2565  1  0.35270700  0.48727900  0.26197400  1
  C  2566  1  0.35394900  0.50351300  0.25484000  1
  C  2567  1  0.35973700  0.51716500  0.26481300  1
  C  2568  1  0.36499700  0.51460400  0.28160500  1
  C  2569  1  0.36351400  0.49849800  0.28851300  1
  C  2570  1  0.35721200  0.48525900  0.27880400  1
  C  2587  1  0.84348200  0.23684100  0.99729300  1
  C  2588  1  0.82505100  0.23445300  0.00001140  1
  C  2589  1  0.81383800  0.24753200  0.00480240  1
  C  2590  1  0.82057700  0.26389900  0.00629540  1
  C  2591  1  0.83899600  0.26677900  0.00282540  1
  C  2592  1  0.85058300  0.25329600  0.99864300  1
  C  2595  1  0.85272000  0.22305800  0.98982800  1
  C  2596  1  0.85395000  0.20682400  0.99696200  1
  C  2597  1  0.85975700  0.19317400  0.98699600  1
  C  2598  1  0.86503000  0.19573500  0.97020700  1
  C  2599  1  0.86354200  0.21184100  0.96329100  1
  C  2600  1  0.85724800  0.22507900  0.97300400  1
  C  2617  1  0.59971800  0.22534900  0.00771840  1
  C  2618  1  0.61780500  0.22951900  0.00516640  1
  C  2619  1  0.62938600  0.23332800  0.01834540  1
  C  2620  1  0.62316700  0.23244800  0.03493140  1
  C  2621  1  0.60485500  0.22855600  0.03789840  1
  C  2622  1  0.59310700  0.22498400  0.02438440  1
  C  2625  1  0.59064600  0.21802600  0.99371300  1
  C  2626  1  0.58913100  0.22544800  0.97763200  1
  C  2627  1  0.58362400  0.21561300  0.96377700  1
  C  2628  1  0.57864400  0.19867500  0.96602800  1
  C  2629  1  0.58035600  0.19144900  0.98195100  1
  C  2630  1  0.58667300  0.20099500  0.99528700  1
  C  2647  1  0.09976080  0.48498800  0.24408600  1
  C  2648  1  0.11783800  0.48078600  0.24664600  1
  C  2649  1  0.12940600  0.47697300  0.23345800  1
  C  2650  1  0.12317800  0.47786100  0.21687500  1
  C  2651  1  0.10486700  0.48176400  0.21391400  1
  C  2652  1  0.09312680  0.48535000  0.22743100  1
  C  2655  1  0.09069980  0.49232700  0.25809600  1
  C  2656  1  0.08916480  0.48489200  0.27416800  1
  C  2657  1  0.08366180  0.49473500  0.28802000  1
  C  2658  1  0.07869380  0.51167600  0.28576500  1
  C  2659  1  0.08041080  0.51890200  0.26984100  1
  C  2660  1  0.08674280  0.50935900  0.25650900  1
  C  2677  1  0.34965500  0.23691200  0.25543600  1
  C  2678  1  0.36774400  0.23429800  0.25129200  1
  C  2679  1  0.37934900  0.24747000  0.24745000  1
  C  2680  1  0.37314500  0.26408900  0.24824100  1
  C  2681  1  0.35484300  0.26709300  0.25213100  1
  C  2682  1  0.34307100  0.25360200  0.25576000  1
  C  2685  1  0.34063000  0.22295300  0.26290100  1
  C  2686  1  0.33900000  0.20684400  0.25553100  1
  C  2687  1  0.33351900  0.19303200  0.26544300  1
  C  2688  1  0.32864800  0.19534200  0.28237200  1
  C  2689  1  0.33036700  0.21132800  0.28949200  1
  C  2690  1  0.33667200  0.22463900  0.27989400  1
  C  2707  1  0.84966100  0.47342100  0.99638900  1
  C  2708  1  0.86775000  0.47604100  0.00052840  1
  C  2709  1  0.87936000  0.46287800  0.00439140  1
  C  2710  1  0.87316000  0.44625600  0.00360840  1
  C  2711  1  0.85485700  0.44324800  0.99972600  1
  C  2712  1  0.84308200  0.45673000  0.99607500  1
  C  2715  1  0.84063000  0.48737400  0.98891900  1
  C  2716  1  0.83899400  0.50348300  0.99628400  1
  C  2717  1  0.83349900  0.51728800  0.98636800  1
  C  2718  1  0.82863500  0.51497100  0.96943800  1
  C  2719  1  0.83037100  0.49898400  0.96231900  1
  C  2720  1  0.83666900  0.48567900  0.97192700  1
  C  2737  1  0.09881280  0.72535000  0.24420900  1
  C  2738  1  0.11730400  0.72768100  0.24659900  1
  C  2739  1  0.12862800  0.73229500  0.23355700  1
  C  2740  1  0.12196900  0.73387900  0.21719900  1
  C  2741  1  0.10349600  0.73069700  0.21428200  1
  C  2742  1  0.09177680  0.72684500  0.22775600  1
  C  2745  1  0.08919780  0.71853400  0.25810700  1
  C  2746  1  0.08838580  0.72593900  0.27424500  1
  C  2747  1  0.08167780  0.71657500  0.28796400  1
  C  2748  1  0.07499680  0.70019400  0.28552700  1
  C  2749  1  0.07676980  0.69279000  0.26968300  1
  C  2750  1  0.08370680  0.70188900  0.25633800  1
  C  2767  1  0.59883700  0.98498800  0.00756540  1
  C  2768  1  0.61732400  0.98264000  0.00516840  1
  C  2769  1  0.62864000  0.97801600  0.01821240  1
  C  2770  1  0.62197600  0.97643400  0.03456940  1
  C  2771  1  0.60350300  0.97962300  0.03748540  1
  C  2772  1  0.59178700  0.98348500  0.02401140  1
  C  2775  1  0.58922600  0.99181800  0.99366500  1
  C  2776  1  0.58840400  0.98440300  0.97753400  1
  C  2777  1  0.58170000  0.99377700  0.96382000  1
  C  2778  1  0.57502900  0.01016120  0.96626000  1
  C  2779  1  0.57679800  0.01755920  0.98210800  1
  C  2780  1  0.58374800  0.00846324  0.99544700  1
  C  2797  1  0.85015100  0.73685400  0.99741600  1
  C  2798  1  0.86865900  0.73482600  0.00001640  1
  C  2799  1  0.87962700  0.74806600  0.00483240  1
  C  2800  1  0.87257800  0.76430600  0.00637440  1
  C  2801  1  0.85409000  0.76687400  0.00295840  1
  C  2802  1  0.84274000  0.75319000  0.99884100  1
  C  2805  1  0.84123400  0.72284100  0.98998600  1
  C  2806  1  0.84125900  0.70644200  0.99684200  1
  C  2807  1  0.83661600  0.69257500  0.98665400  1
  C  2808  1  0.83218200  0.69494500  0.96962900  1
  C  2809  1  0.83150300  0.71131900  0.96321300  1
  C  2810  1  0.83621700  0.72486200  0.97328100  1
  C  2827  1  0.35013900  0.97347300  0.25437900  1
  C  2828  1  0.36865500  0.97549400  0.25181900  1
  C  2829  1  0.37962900  0.96224900  0.24703500  1
  C  2830  1  0.37257100  0.94601600  0.24545200  1
  C  2831  1  0.35407700  0.94345300  0.24883600  1
  C  2832  1  0.34272500  0.95714000  0.25294300  1
  C  2835  1  0.34121400  0.98749000  0.26179400  1
  C  2836  1  0.34124900  0.00388624  0.25493600  1
  C  2837  1  0.33657600  0.01775420  0.26510900  1
  C  2838  1  0.33215000  0.01539020  0.28213800  1
  C  2839  1  0.33146900  0.99901600  0.28856300  1
  C  2840  1  0.33616700  0.98547100  0.27849100  1
  C  2857  1  0.59378200  0.98582600  0.24406300  1
  C  2858  1  0.57562600  0.98195400  0.24667700  1
  C  2859  1  0.56395600  0.97818900  0.23355500  1
  C  2860  1  0.57009400  0.97902000  0.21694500  1
  C  2861  1  0.58844400  0.98268600  0.21390800  1
  C  2862  1  0.60033300  0.98603700  0.22737300  1
  C  2865  1  0.60318900  0.99272500  0.25809900  1
  C  2866  1  0.60444900  0.98511100  0.27412500  1
  C  2867  1  0.61076700  0.99451900  0.28797800  1
  C  2868  1  0.61692900  0.01110420  0.28575000  1
  C  2869  1  0.61486100  0.01866020  0.27001700  1
  C  2870  1  0.60802500  0.00958524  0.25662100  1
  C  2887  1  0.09374880  0.72450000  0.00771240  1
  C  2888  1  0.07560180  0.72840500  0.00509240  1
  C  2889  1  0.06394580  0.73217800  0.01822240  1
  C  2890  1  0.07009080  0.73134000  0.03483040  1
  C  2891  1  0.08844080  0.72766000  0.03786140  1
  C  2892  1  0.10032100  0.72429400  0.02439340  1
  C  2895  1  0.10314400  0.71758300  0.99367200  1
  C  2896  1  0.10442300  0.72520700  0.97765300  1
  C  2897  1  0.11073300  0.71578900  0.96380400  1
  C  2898  1  0.11688100  0.69920000  0.96603700  1
  C  2899  1  0.11481100  0.69164900  0.98177200  1
  C  2900  1  0.10796500  0.70072300  0.99516400  1
  C  2917  1  0.84260400  0.97346200  0.99646200  1
  C  2918  1  0.82443200  0.97579700  0.00048140  1
  C  2919  1  0.81302200  0.96249800  0.00436040  1
  C  2920  1  0.81947700  0.94596900  0.00360440  1
  C  2921  1  0.83785100  0.94320900  0.99981300  1
  C  2922  1  0.84944700  0.95685600  0.99624800  1
  C  2925  1  0.85136100  0.98759900  0.98900300  1
  C  2926  1  0.85182700  0.00389124  0.99611800  1
  C  2927  1  0.85615600  0.01789820  0.98599300  1
  C  2928  1  0.86009800  0.01577020  0.96883300  1
  C  2929  1  0.86050100  0.99949500  0.96217000  1
  C  2930  1  0.85577500  0.98586900  0.97211200  1
  C  2947  1  0.34260800  0.73685800  0.25530100  1
  C  2948  1  0.32443500  0.73451800  0.25129000  1
  C  2949  1  0.31301900  0.74780700  0.24739500  1
  C  2950  1  0.31946900  0.76434100  0.24814500  1
  C  2951  1  0.33784400  0.76710600  0.25192600  1
  C  2952  1  0.34944300  0.75346600  0.25550800  1
  C  2955  1  0.35137300  0.72272600  0.26275900  1
  C  2956  1  0.35184700  0.70643500  0.25564500  1
  C  2957  1  0.35620000  0.69243200  0.26576400  1
  C  2958  1  0.36011700  0.69455900  0.28293000  1
  C  2959  1  0.36050500  0.71083600  0.28959800  1
  C  2960  1  0.35579500  0.72446000  0.27964800  1
  C  2977  1  0.59284500  0.98474400  0.50761000  1
  C  2978  1  0.57433500  0.98217600  0.50557300  1
  C  2979  1  0.56332500  0.97746800  0.51880300  1
  C  2980  1  0.57034100  0.97594900  0.53503200  1
  C  2981  1  0.58883700  0.97931300  0.53761400  1
  C  2982  1  0.60022500  0.98333200  0.52394100  1
  C  2985  1  0.60186200  0.99202900  0.49358200  1
  C  2986  1  0.60175700  0.98515700  0.47720900  1
  C  2987  1  0.60641900  0.99530300  0.46332300  1
  C  2988  1  0.61083900  0.01236520  0.46565300  1
  C  2989  1  0.61157200  0.01883020  0.48198300  1
  C  2990  1  0.60689400  0.00876724  0.49553300  1
  C  3007  1  0.09280680  0.72557400  0.74418800  1
  C  3008  1  0.07430180  0.72815900  0.74623400  1
  C  3009  1  0.06329980  0.73287200  0.73300100  1
  C  3010  1  0.07032180  0.73439100  0.71677300  1
  C  3011  1  0.08881980  0.73102200  0.71419200  1
  C  3012  1  0.10020300  0.72699400  0.72786600  1
  C  3015  1  0.10182300  0.71828000  0.75821700  1
  C  3016  1  0.10172700  0.72517000  0.77458000  1
  C  3017  1  0.10638400  0.71501600  0.78846000  1
  C  3018  1  0.11080800  0.69795400  0.78613500  1
  C  3019  1  0.11153400  0.69148400  0.76980600  1
  C  3020  1  0.10683000  0.70153800  0.75625700  1
  C  3037  1  0.84390500  0.97349100  0.75613100  1
  C  3038  1  0.82541400  0.97589800  0.75380500  1
  C  3039  1  0.81408600  0.96283600  0.74919300  1
  C  3040  1  0.82074600  0.94645000  0.74763600  1
  C  3041  1  0.83922200  0.94353900  0.75079800  1
  C  3042  1  0.85094400  0.95702100  0.75465800  1
  C  3045  1  0.85347900  0.98737700  0.76303300  1
  C  3046  1  0.85446700  0.00350124  0.75558300  1
  C  3047  1  0.86120300  0.01721320  0.76494900  1
  C  3048  1  0.86775000  0.01478520  0.78135200  1
  C  3049  1  0.86587900  0.99892800  0.78874700  1
  C  3050  1  0.85891000  0.98558100  0.77966100  1
  C  3067  1  0.34390100  0.73684600  0.49565300  1
  C  3068  1  0.32540300  0.73444900  0.49795300  1
  C  3069  1  0.31407700  0.74751700  0.50254600  1
  C  3070  1  0.32074900  0.76389700  0.50413300  1
  C  3071  1  0.33923100  0.76679800  0.50099200  1
  C  3072  1  0.35094800  0.75331300  0.49713500  1
  C  3075  1  0.35347300  0.72295600  0.48875900  1
  C  3076  1  0.35445700  0.70683600  0.49621300  1
  C  3077  1  0.36120900  0.69312300  0.48685600  1
  C  3078  1  0.36775200  0.69554600  0.47045000  1
  C  3079  1  0.36584700  0.71139300  0.46303800  1
  C  3080  1  0.35890800  0.72475000  0.47213000  1
  C  3097  1  0.10017100  0.72483100  0.50773700  1
  C  3098  1  0.11829900  0.72901000  0.50541200  1
  C  3099  1  0.12969500  0.73293200  0.51868800  1
  C  3100  1  0.12328600  0.73202500  0.53520100  1
  C  3101  1  0.10494500  0.72809800  0.53797000  1
  C  3102  1  0.09335280  0.72452900  0.52433400  1
  C  3105  1  0.09138680  0.71743300  0.49359100  1
  C  3106  1  0.09094680  0.72455400  0.47732000  1
  C  3107  1  0.08669680  0.71443200  0.46329700  1
  C  3108  1  0.08290280  0.69721000  0.46539100  1
  C  3109  1  0.08248780  0.69050600  0.48162700  1
  C  3110  1  0.08710280  0.70047700  0.49525600  1
  C  3127  1  0.60022100  0.98549900  0.74405900  1
  C  3128  1  0.61833800  0.98128900  0.74639400  1
  C  3129  1  0.62972000  0.97736100  0.73310900  1
  C  3130  1  0.62330300  0.97827400  0.71659800  1
  C  3131  1  0.60496200  0.98221400  0.71383600  1
  C  3132  1  0.59337800  0.98579700  0.72747300  1
  C  3135  1  0.59144600  0.99291300  0.75821000  1
  C  3136  1  0.59098700  0.98577300  0.77447200  1
  C  3137  1  0.58674400  0.99590600  0.78848700  1
  C  3138  1  0.58295300  0.01313020  0.78639700  1
  C  3139  1  0.58255100  0.01983820  0.77016100  1
  C  3140  1  0.58719000  0.00987224  0.75653500  1
  C  3157  1  0.84910400  0.73685800  0.75702300  1
  C  3158  1  0.86725000  0.73415900  0.75315200  1
  C  3159  1  0.87897500  0.74725900  0.74938700  1
  C  3160  1  0.87289200  0.76391500  0.75017700  1
  C  3161  1  0.85456100  0.76701600  0.75386200  1
  C  3162  1  0.84262200  0.75358700  0.75725100  1
  C  3165  1  0.83970400  0.72285700  0.76400900  1
  C  3166  1  0.83822900  0.70685000  0.75636100  1
  C  3167  1  0.83186300  0.69301400  0.76577800  1
  C  3168  1  0.82585300  0.69524600  0.78238400  1
  C  3169  1  0.82804600  0.71099000  0.78992400  1
  C  3170  1  0.83493400  0.72437600  0.78085000  1
  C  3187  1  0.34912100  0.97347500  0.49479300  1
  C  3188  1  0.36726700  0.97617800  0.49866200  1
  C  3189  1  0.37899400  0.96308400  0.50244700  1
  C  3190  1  0.37291400  0.94642600  0.50166100  1
  C  3191  1  0.35458200  0.94332200  0.49798000  1
  C  3192  1  0.34264200  0.95674400  0.49456900  1
  C  3195  1  0.33971900  0.98747200  0.48780100  1
  C  3196  1  0.33823000  0.00347624  0.49545000  1
  C  3197  1  0.33185400  0.01730720  0.48603500  1
  C  3198  1  0.32586000  0.01507520  0.46942300  1
  C  3199  1  0.32809700  0.99933900  0.46187500  1
  C  3200  1  0.33496000  0.98595000  0.47095800  1
  C  3217  1  0.59930500  0.22605900  0.74428800  1
  C  3218  1  0.61788100  0.22813500  0.74637800  1
  C  3219  1  0.62906200  0.23263700  0.73319900  1
  C  3220  1  0.62216900  0.23431800  0.71694000  1
  C  3221  1  0.60361200  0.23132300  0.71426700  1
  C  3222  1  0.59205000  0.22764100  0.72791600  1
  C  3225  1  0.58992100  0.21929600  0.75838600  1
  C  3226  1  0.59027800  0.22632400  0.77471200  1
  C  3227  1  0.58459500  0.21669200  0.78864900  1
  C  3228  1  0.57876600  0.19999700  0.78642600  1
  C  3229  1  0.57852700  0.19324100  0.77019800  1
  C  3230  1  0.58396200  0.20279900  0.75657000  1
  C  3247  1  0.09933780  0.48426900  0.50750000  1
  C  3248  1  0.11790800  0.48217400  0.50540300  1
  C  3249  1  0.12907900  0.47766100  0.51858500  1
  C  3250  1  0.12218000  0.47598100  0.53484200  1
  C  3251  1  0.10362400  0.47898400  0.53751300  1
  C  3252  1  0.09206580  0.48267700  0.52386300  1
  C  3255  1  0.08995780  0.49104600  0.49340000  1
  C  3256  1  0.09030680  0.48400800  0.47708100  1
  C  3257  1  0.08463680  0.49365800  0.46315300  1
  C  3258  1  0.07881080  0.51035400  0.46537600  1
  C  3259  1  0.07856380  0.51710200  0.48160800  1
  C  3260  1  0.08401680  0.50754500  0.49523100  1
  C  3277  1  0.34936600  0.23677600  0.49557400  1
  C  3278  1  0.36792700  0.23461600  0.49771300  1
  C  3279  1  0.37911900  0.24776800  0.50232200  1
  C  3280  1  0.37226500  0.26406800  0.50398700  1
  C  3281  1  0.35373100  0.26678500  0.50093000  1
  C  3282  1  0.34214200  0.25317300  0.49715700  1
  C  3285  1  0.33999200  0.22273000  0.48869300  1
  C  3286  1  0.34012300  0.20641100  0.49577300  1
  C  3287  1  0.33432500  0.19251200  0.48614100  1
  C  3288  1  0.32849100  0.19475800  0.46948000  1
  C  3289  1  0.32843600  0.21100300  0.46271400  1
  C  3290  1  0.33405900  0.22460600  0.47222500  1
  C  3307  1  0.84936400  0.47355500  0.75623600  1
  C  3308  1  0.86793100  0.47570600  0.75412600  1
  C  3309  1  0.87912600  0.46254700  0.74954000  1
  C  3310  1  0.87226100  0.44625400  0.74784700  1
  C  3311  1  0.85372300  0.44354300  0.75088300  1
  C  3312  1  0.84213600  0.45716000  0.75464800  1
  C  3315  1  0.83998800  0.48760500  0.76310300  1
  C  3316  1  0.84012000  0.50391900  0.75601300  1
  C  3317  1  0.83429200  0.51782100  0.76562300  1
  C  3318  1  0.82847600  0.51559000  0.78229200  1
  C  3319  1  0.82846200  0.49935200  0.78908300  1
  C  3320  1  0.83404700  0.48573800  0.77956900  1
  C  3337  1  0.09344580  0.48524700  0.74421600  1
  C  3338  1  0.07516080  0.48173500  0.74660200  1
  C  3339  1  0.06357180  0.47812600  0.73338100  1
  C  3340  1  0.06991880  0.47884700  0.71683900  1
  C  3341  1  0.08838080  0.48217500  0.71398400  1
  C  3342  1  0.10018500  0.48529500  0.72758200  1
  C  3345  1  0.10271500  0.49205600  0.75840900  1
  C  3346  1  0.10284100  0.48477100  0.77463400  1
  C  3347  1  0.10821000  0.49439200  0.78869000  1
  C  3348  1  0.11355500  0.51125200  0.78668400  1
  C  3349  1  0.11350500  0.51822400  0.77055500  1
  C  3350  1  0.10809300  0.50876300  0.75686000  1
  C  3367  1  0.59340600  0.22509000  0.50757200  1
  C  3368  1  0.57513200  0.22863400  0.50518000  1
  C  3369  1  0.56355700  0.23225400  0.51840900  1
  C  3370  1  0.56991300  0.23152600  0.53494900  1
  C  3371  1  0.58837400  0.22818300  0.53779600  1
  C  3372  1  0.60016900  0.22504700  0.52419600  1
  C  3375  1  0.60266400  0.21826000  0.49337400  1
  C  3376  1  0.60280300  0.22555800  0.47715700  1
  C  3377  1  0.60815900  0.21592000  0.46311000  1
  C  3378  1  0.61349700  0.19905700  0.46511700  1
  C  3379  1  0.61344700  0.19209000  0.48124800  1
  C  3380  1  0.60801800  0.20155100  0.49493900  1
  C  3397  1  0.34328400  0.47349100  0.49470400  1
  C  3398  1  0.32503200  0.47589400  0.49835100  1
  C  3399  1  0.31348900  0.46265100  0.50208100  1
  C  3400  1  0.31984700  0.44608700  0.50135300  1
  C  3401  1  0.33827400  0.44324600  0.49786300  1
  C  3402  1  0.35004100  0.45684800  0.49461200  1
  C  3405  1  0.35244500  0.48767000  0.48774000  1
  C  3406  1  0.35278300  0.50388300  0.49507600  1
  C  3407  1  0.35817100  0.51792200  0.48543300  1
  C  3408  1  0.36343700  0.51591300  0.46858100  1
  C  3409  1  0.36321500  0.49977100  0.46159600  1
  C  3410  1  0.35771400  0.48608500  0.47103800  1
  C  3427  1  0.84327600  0.23682800  0.75707500  1
  C  3428  1  0.82502300  0.23442000  0.75343000  1
  C  3429  1  0.81347700  0.24765800  0.74968700  1
  C  3430  1  0.81983100  0.26422300  0.75041400  1
  C  3431  1  0.83825900  0.26706800  0.75389800  1
  C  3432  1  0.85002600  0.25347200  0.75716700  1
  C  3435  1  0.85244100  0.22265000  0.76403800  1
  C  3436  1  0.85279500  0.20644100  0.75669500  1
  C  3437  1  0.85821400  0.19240400  0.76632300  1
  C  3438  1  0.86344700  0.19440500  0.78318700  1
  C  3439  1  0.86316800  0.21053800  0.79019000  1
  C  3440  1  0.85770000  0.22423200  0.78074300  1
  C  3457  1  0.09953580  0.48775300  0.92010400  1
  C  3458  1  0.11211900  0.47626500  0.91380500  1
  C  3459  1  0.11433500  0.47390700  0.89657700  1
  C  3460  1  0.10415600  0.48290500  0.88477600  1
  C  3461  1  0.09146580  0.49425100  0.89117600  1
  C  3462  1  0.08920080  0.49658500  0.90833800  1
  C  3465  1  0.10705900  0.48143000  0.86714000  1
  C  3466  1  0.12448200  0.47992300  0.86046900  1
  C  3467  1  0.12756000  0.47995300  0.84323600  1
  C  3468  1  0.11338900  0.48148600  0.83170100  1
  C  3469  1  0.09589280  0.48247500  0.83830700  1
  C  3470  1  0.09283880  0.48243300  0.85556500  1
  C  3477  1  0.11723700  0.48356300  0.81479300  1
  C  3478  1  0.09775480  0.49158800  0.93697700  1
  C  3481  1  0.59952600  0.22256700  0.33169200  1
  C  3482  1  0.61212300  0.23403800  0.33799300  1
  C  3483  1  0.61434200  0.23639000  0.35522300  1
  C  3484  1  0.60414900  0.22740400  0.36702100  1
  C  3485  1  0.59144500  0.21607500  0.36061800  1
  C  3486  1  0.58917500  0.21374500  0.34345700  1
  C  3489  1  0.60705100  0.22887500  0.38465600  1
  C  3490  1  0.62447600  0.23035900  0.39133200  1
  C  3491  1  0.62755100  0.23032600  0.40856500  1
  C  3492  1  0.61337500  0.22881200  0.42009800  1
  C  3493  1  0.59587800  0.22784400  0.41348900  1
  C  3494  1  0.59282900  0.22789000  0.39623100  1
  C  3501  1  0.61721400  0.22673500  0.43701000  1
  C  3502  1  0.59773800  0.21873600  0.31481900  1
  C  3505  1  0.34931300  0.56080800  0.25847100  1
  C  3506  1  0.36220600  0.56725900  0.24738200  1
  C  3507  1  0.36434900  0.58453700  0.24517700  1
  C  3508  1  0.35377000  0.59621400  0.25393500  1
  C  3509  1  0.34076300  0.58966700  0.26486400  1
  C  3510  1  0.33857400  0.57245600  0.26704900  1
  C  3513  1  0.35659500  0.61388500  0.25267100  1
  C  3514  1  0.37402100  0.62068100  0.25191600  1
  C  3515  1  0.37695300  0.63795500  0.25226700  1
  C  3516  1  0.36262100  0.64938300  0.25337900  1
  C  3517  1  0.34514500  0.64265200  0.25356800  1
  C  3518  1  0.34223800  0.62535600  0.25321600  1
  C  3525  1  0.36620800  0.66629500  0.25589900  1
  C  3526  1  0.34760100  0.54388800  0.26218600  1
  C  3529  1  0.84932300  0.14952300  0.99331400  1
  C  3530  1  0.86223300  0.14307100  0.00438540  1
  C  3531  1  0.86436900  0.12579300  0.00659540  1
  C  3532  1  0.85376400  0.11411700  0.99786200  1
  C  3533  1  0.84073900  0.12066600  0.98695400  1
  C  3534  1  0.83855700  0.13787700  0.98476400  1
  C  3537  1  0.85658900  0.09644620  0.99912100  1
  C  3538  1  0.87401600  0.08964820  0.99984400  1
  C  3539  1  0.87694600  0.07237420  0.99947800  1
  C  3540  1  0.86261000  0.06094620  0.99838500  1
  C  3541  1  0.84513500  0.06768020  0.99823200  1
  C  3542  1  0.84223000  0.08497720  0.99860000  1
  C  3549  1  0.86618300  0.04403520  0.99583200  1
  C  3550  1  0.84762600  0.16643900  0.98958000  1
  C  3553  1  0.59365600  0.22248600  0.92015400  1
  C  3554  1  0.58110600  0.23404300  0.91393200  1
  C  3555  1  0.57886600  0.23648400  0.89671600  1
  C  3556  1  0.58898300  0.22750000  0.88485600  1
  C  3557  1  0.60162400  0.21607100  0.89118600  1
  C  3558  1  0.60391900  0.21365700  0.90833100  1
  C  3561  1  0.58607300  0.22907900  0.86722800  1
  C  3562  1  0.56865600  0.23074100  0.86057800  1
  C  3563  1  0.56556400  0.23083800  0.84334700  1
  C  3564  1  0.57971200  0.22927900  0.83179100  1
  C  3565  1  0.59720400  0.22812000  0.83837500  1
  C  3566  1  0.60027200  0.22804100  0.85563200  1
  C  3573  1  0.57583600  0.22739600  0.81486700  1
  C  3574  1  0.59549400  0.21858800  0.93700600  1
  C  3577  1  0.09367380  0.48785300  0.33164300  1
  C  3578  1  0.08110780  0.47631200  0.33786700  1
  C  3579  1  0.07886280  0.47387700  0.35508400  1
  C  3580  1  0.08899180  0.48285000  0.36694300  1
  C  3581  1  0.10165100  0.49426300  0.36061100  1
  C  3582  1  0.10395000  0.49667100  0.34346500  1
  C  3585  1  0.08608180  0.48127700  0.38457000  1
  C  3586  1  0.06866180  0.47963800  0.39122300  1
  C  3587  1  0.06557280  0.47954500  0.40845300  1
  C  3588  1  0.07972480  0.48108600  0.42000900  1
  C  3589  1  0.09721680  0.48222300  0.41342300  1
  C  3590  1  0.10028400  0.48229900  0.39616600  1
  C  3597  1  0.07585580  0.48296800  0.43693700  1
  C  3598  1  0.09552080  0.49174400  0.31479000  1
  C  3601  1  0.34388800  0.14947900  0.25856600  1
  C  3602  1  0.33102900  0.14309500  0.24740800  1
  C  3603  1  0.32886100  0.12582800  0.24513200  1
  C  3604  1  0.33937500  0.11409700  0.25389000  1
  C  3605  1  0.35233700  0.12058100  0.26490100  1
  C  3606  1  0.35455500  0.13778000  0.26715300  1
  C  3609  1  0.33653900  0.09643220  0.25253900  1
  C  3610  1  0.31911100  0.08965720  0.25162900  1
  C  3611  1  0.31615800  0.07238420  0.25186400  1
  C  3612  1  0.33046500  0.06093420  0.25301100  1
  C  3613  1  0.34794600  0.06764420  0.25337000  1
  C  3614  1  0.35087500  0.08494120  0.25312900  1
  C  3621  1  0.32683800  0.04400120  0.25533500  1
  C  3622  1  0.34565000  0.16637900  0.26233700  1
  C  3625  1  0.84386800  0.56085100  0.99322300  1
  C  3626  1  0.83098500  0.56723500  0.00435840  1
  C  3627  1  0.82882100  0.58450200  0.00663840  1
  C  3628  1  0.83936200  0.59623200  0.99790800  1
  C  3629  1  0.85234900  0.58974600  0.98692100  1
  C  3630  1  0.85456300  0.57254800  0.98466600  1
  C  3633  1  0.83652500  0.61389700  0.99925300  1
  C  3634  1  0.81909600  0.62067300  0.00012040  1
  C  3635  1  0.81614500  0.63794700  0.99987000  1
  C  3636  1  0.83045900  0.64939500  0.99875100  1
  C  3637  1  0.84793800  0.64268200  0.99843700  1
  C  3638  1  0.85086600  0.62538500  0.99869400  1
  C  3645  1  0.82684600  0.66632600  0.99639300  1
  C  3646  1  0.84561800  0.54395400  0.98943500  1
  C  3649  1  0.09240080  0.72188500  0.33168900  1
  C  3650  1  0.07975080  0.73314000  0.33829300  1
  C  3651  1  0.07787680  0.73537700  0.35557000  1
  C  3652  1  0.08848980  0.72648900  0.36711700  1
  C  3653  1  0.10129700  0.71543700  0.36042100  1
  C  3654  1  0.10321300  0.71321600  0.34320900  1
  C  3657  1  0.08583880  0.72769900  0.38479900  1
  C  3658  1  0.06848380  0.72864300  0.39171900  1
  C  3659  1  0.06568080  0.72820700  0.40898400  1
  C  3660  1  0.08007680  0.72682000  0.42029700  1
  C  3661  1  0.09749180  0.72644000  0.41344800  1
  C  3662  1  0.10026900  0.72687700  0.39615800  1
  C  3669  1  0.07657180  0.72419000  0.43718900  1
  C  3670  1  0.09364380  0.71795000  0.31479400  1
  C  3673  1  0.59241300  0.98845200  0.92009500  1
  C  3674  1  0.57975500  0.97720700  0.91349000  1
  C  3675  1  0.57787700  0.97497400  0.89621300  1
  C  3676  1  0.58849800  0.98385400  0.88466700  1
  C  3677  1  0.60131500  0.99489700  0.89136400  1
  C  3678  1  0.60323200  0.99711500  0.90857500  1
  C  3681  1  0.58584800  0.98264400  0.86698400  1
  C  3682  1  0.56849300  0.98171200  0.86006200  1
  C  3683  1  0.56569600  0.98214600  0.84279500  1
  C  3684  1  0.58009400  0.98352100  0.83148400  1
  C  3685  1  0.59750800  0.98389000  0.83833800  1
  C  3686  1  0.60028300  0.98345500  0.85562800  1
  C  3693  1  0.57659900  0.98614400  0.81458800  1
  C  3694  1  0.59366500  0.99238200  0.93699200  1
  C  3697  1  0.60013700  0.98864100  0.33163200  1
  C  3698  1  0.61274400  0.97729700  0.33814900  1
  C  3699  1  0.61466400  0.97498000  0.35541200  1
  C  3700  1  0.60414500  0.98387600  0.36703000  1
  C  3701  1  0.59139500  0.99503600  0.36041600  1
  C  3702  1  0.58943000  0.99733200  0.34322100  1
  C  3705  1  0.60682200  0.98255900  0.38470200  1
  C  3706  1  0.62418000  0.98142900  0.39158900  1
  C  3707  1  0.62701700  0.98172700  0.40885200  1
  C  3708  1  0.61265600  0.98315900  0.42019700  1
  C  3709  1  0.59523400  0.98374100  0.41338100  1
  C  3710  1  0.59242100  0.98343600  0.39609300  1
  C  3717  1  0.61621600  0.98556600  0.43711200  1
  C  3718  1  0.59880100  0.99261800  0.31475400  1
  C  3721  1  0.10012000  0.72168300  0.92015000  1
  C  3722  1  0.11273700  0.73301600  0.91363400  1
  C  3723  1  0.11466100  0.73533000  0.89637000  1
  C  3724  1  0.10413700  0.72644100  0.88475200  1
  C  3725  1  0.09137780  0.71529000  0.89136600  1
  C  3726  1  0.08940780  0.71299800  0.90856000  1
  C  3729  1  0.10681200  0.72775700  0.86708000  1
  C  3730  1  0.12417000  0.72887700  0.86019100  1
  C  3731  1  0.12700500  0.72858200  0.84292700  1
  C  3732  1  0.11264200  0.72716100  0.83158300  1
  C  3733  1  0.09521980  0.72659000  0.83840200  1
  C  3734  1  0.09240980  0.72689200  0.85569100  1
  C  3741  1  0.11619600  0.72476100  0.81466400  1
  C  3742  1  0.09877380  0.71771200  0.93702900  1
  C  3745  1  0.85073100  0.06097020  0.75934100  1
  C  3746  1  0.86304800  0.06736720  0.74767300  1
  C  3747  1  0.86505400  0.08463120  0.74527100  1
  C  3748  1  0.85490300  0.09635620  0.75439400  1
  C  3749  1  0.84244100  0.08986620  0.76588700  1
  C  3750  1  0.84039500  0.07266620  0.76827600  1
  C  3753  1  0.85767100  0.11401900  0.75292800  1
  C  3754  1  0.87504800  0.12079600  0.75140800  1
  C  3755  1  0.87800600  0.13806900  0.75150400  1
  C  3756  1  0.86374900  0.14951500  0.75312100  1
  C  3757  1  0.84629600  0.14280000  0.75410600  1
  C  3758  1  0.84336300  0.12550400  0.75400200  1
  C  3765  1  0.86746700  0.16645200  0.75526600  1
  C  3766  1  0.84931900  0.04407920  0.76331100  1
  C  3769  1  0.35073700  0.64936000  0.49245000  1
  C  3770  1  0.36307500  0.64296300  0.50409800  1
  C  3771  1  0.36507500  0.62569800  0.50650600  1
  C  3772  1  0.35489900  0.61397500  0.49740500  1
  C  3773  1  0.34241300  0.62046500  0.48593400  1
  C  3774  1  0.34037300  0.63766500  0.48354200  1
  C  3777  1  0.35766900  0.59631200  0.49886500  1
  C  3778  1  0.37505000  0.58953400  0.50034600  1
  C  3779  1  0.37800900  0.57226200  0.50022900  1
  C  3780  1  0.36374800  0.56081500  0.49863100  1
  C  3781  1  0.34629200  0.56753100  0.49768900  1
  C  3782  1  0.34335800  0.58482700  0.49781300  1
  C  3789  1  0.36745700  0.54388100  0.49643900  1
  C  3790  1  0.34933900  0.66624600  0.48846100  1
  C  3793  1  0.84221200  0.64933100  0.75959400  1
  C  3794  1  0.82994600  0.64303100  0.74783200  1
  C  3795  1  0.82790500  0.62578200  0.74533300  1
  C  3796  1  0.83796300  0.61398400  0.75445400  1
  C  3797  1  0.85035300  0.62038300  0.76606200  1
  C  3798  1  0.85244000  0.63756400  0.76854200  1
  C  3801  1  0.83519100  0.59633300  0.75285500  1
  C  3802  1  0.81782400  0.58957900  0.75114400  1
  C  3803  1  0.81485500  0.57230700  0.75108200  1
  C  3804  1  0.82908900  0.56084000  0.75272600  1
  C  3805  1  0.84653500  0.56753200  0.75391400  1
  C  3806  1  0.84948000  0.58482700  0.75396500  1
  C  3813  1  0.82534300  0.54388200  0.75464100  1
  C  3814  1  0.84372400  0.66620000  0.76361000  1
  C  3817  1  0.34219400  0.06099820  0.49220200  1
  C  3818  1  0.32990100  0.06730020  0.50394100  1
  C  3819  1  0.32786200  0.08454820  0.50644300  1
  C  3820  1  0.33794800  0.09634520  0.49734900  1
  C  3821  1  0.35036700  0.08994720  0.48576600  1
  C  3822  1  0.35245100  0.07276620  0.48328300  1
  C  3825  1  0.33517300  0.11399600  0.49894100  1
  C  3826  1  0.31780000  0.12075000  0.50060300  1
  C  3827  1  0.31483000  0.13802200  0.50064500  1
  C  3828  1  0.32906800  0.14948800  0.49902700  1
  C  3829  1  0.34651800  0.14279500  0.49789100  1
  C  3830  1  0.34946400  0.12550100  0.49786000  1
  C  3837  1  0.32533400  0.16644400  0.49706500  1
  C  3838  1  0.34369300  0.04413520  0.48817000  1
  C  3841  1  0.11026300  0.64752300  0.98161300  1
  C  3842  1  0.11751800  0.64155100  0.99663400  1
  C  3843  1  0.12001300  0.62444300  0.99914200  1
  C  3844  1  0.11522700  0.61286300  0.98675800  1
  C  3845  1  0.10832900  0.61894900  0.97162200  1
  C  3846  1  0.10582200  0.63601200  0.96909700  1
  C  3849  1  0.11656900  0.59549000  0.98959000  1
  C  3850  1  0.13218700  0.58830000  0.99636100  1
  C  3851  1  0.13348000  0.57103500  0.99865900  1
  C  3852  1  0.11917800  0.56053500  0.99419600  1
  C  3853  1  0.10336500  0.56773700  0.98788800  1
  C  3854  1  0.10210900  0.58494000  0.98559900  1
  C  3861  1  0.12055100  0.54355600  0.99593300  1
  C  3862  1  0.10664800  0.66412400  0.97915300  1
  C  3865  1  0.61030900  0.06278820  0.27020500  1
  C  3866  1  0.61755800  0.06875820  0.25518000  1
  C  3867  1  0.62003700  0.08586720  0.25266200  1
  C  3868  1  0.61524000  0.09745120  0.26503900  1
  C  3869  1  0.60834600  0.09136920  0.28017800  1
  C  3870  1  0.60585500  0.07430420  0.28271200  1
  C  3873  1  0.61657100  0.11482300  0.26219800  1
  C  3874  1  0.63218700  0.12201900  0.25543100  1
  C  3875  1  0.63347300  0.13928300  0.25313000  1
  C  3876  1  0.61916400  0.14977700  0.25758900  1
  C  3877  1  0.60335100  0.14257000  0.26389100  1
  C  3878  1  0.60210400  0.12536700  0.26618200  1
  C  3885  1  0.62052900  0.16675700  0.25585200  1
  C  3886  1  0.60671500  0.04618620  0.27268000  1
  C  3889  1  0.35784300  0.49759300  0.41777700  1
  C  3890  1  0.36633000  0.48311600  0.41184700  1
  C  3891  1  0.36922000  0.48089200  0.39477900  1
  C  3892  1  0.36364800  0.49303100  0.38323300  1
  C  3893  1  0.35552400  0.50765700  0.38932300  1
  C  3894  1  0.35258000  0.50988800  0.40633900  1
  C  3897  1  0.36544600  0.49042600  0.36588300  1
  C  3898  1  0.38159600  0.48462300  0.35885900  1
  C  3899  1  0.38330700  0.48255900  0.34162300  1
  C  3900  1  0.36889800  0.48630900  0.33099000  1
  C  3901  1  0.35258400  0.49164000  0.33800700  1
  C  3902  1  0.35091100  0.49368200  0.35518200  1
  C  3909  1  0.37063000  0.48485000  0.31404700  1
  C  3910  1  0.35394300  0.49972000  0.43430600  1
  C  3913  1  0.85781800  0.21266600  0.83401400  1
  C  3914  1  0.86628200  0.22715700  0.83994300  1
  C  3915  1  0.86917300  0.22938500  0.85701000  1
  C  3916  1  0.86362500  0.21723800  0.86855700  1
  C  3917  1  0.85552400  0.20260100  0.86247100  1
  C  3918  1  0.85257800  0.20036400  0.84545600  1
  C  3921  1  0.86542900  0.21984600  0.88590700  1
  C  3922  1  0.88156900  0.22568100  0.89292400  1
  C  3923  1  0.88328300  0.22775600  0.91015700  1
  C  3924  1  0.86888800  0.22398300  0.92079800  1
  C  3925  1  0.85258300  0.21861600  0.91379000  1
  C  3926  1  0.85090600  0.21656500  0.89661600  1
  C  3933  1  0.87061900  0.22546400  0.93773800  1
  C  3934  1  0.85392200  0.21053000  0.81748700  1
  C  3937  1  0.58158300  0.06164920  0.98191200  1
  C  3938  1  0.57444800  0.06782820  0.99689600  1
  C  3939  1  0.57221600  0.08498920  0.99926600  1
  C  3940  1  0.57715500  0.09640420  0.98677800  1
  C  3941  1  0.58389600  0.09010820  0.97167000  1
  C  3942  1  0.58614300  0.07299620  0.96928300  1
  C  3945  1  0.57612100  0.11381600  0.98946900  1
  C  3946  1  0.56063600  0.12129000  0.99618600  1
  C  3947  1  0.55963400  0.13858900  0.99831600  1
  C  3948  1  0.57410000  0.14884700  0.99373500  1
  C  3949  1  0.58978300  0.14136100  0.98747700  1
  C  3950  1  0.59074900  0.12412000  0.98535800  1
  C  3957  1  0.57298700  0.16585700  0.99533900  1
  C  3958  1  0.58507400  0.04501020  0.97960600  1
  C  3961  1  0.08155980  0.64869500  0.26990900  1
  C  3962  1  0.07443080  0.64252200  0.25492100  1
  C  3963  1  0.07221480  0.62536000  0.25254000  1
  C  3964  1  0.07716480  0.61394000  0.26501900  1
  C  3965  1  0.08390480  0.62023200  0.28013100  1
  C  3966  1  0.08613280  0.63734500  0.28252900  1
  C  3969  1  0.07614380  0.59653000  0.26231900  1
  C  3970  1  0.06065980  0.58905000  0.25560700  1
  C  3971  1  0.05966680  0.57175000  0.25347300  1
  C  3972  1  0.07414080  0.56150000  0.25804800  1
  C  3973  1  0.08982280  0.56899100  0.26430000  1
  C  3974  1  0.09077980  0.58623300  0.26642200  1
  C  3981  1  0.07303480  0.54448700  0.25644500  1
  C  3982  1  0.08502880  0.66533700  0.27223200  1
  C  3985  1  0.33401500  0.21320700  0.41894300  1
  C  3986  1  0.32568900  0.22765500  0.41276100  1
  C  3987  1  0.32304000  0.22969200  0.39563300  1
  C  3988  1  0.32869900  0.21739100  0.38429500  1
  C  3989  1  0.33662500  0.20278500  0.39064200  1
  C  3990  1  0.33933000  0.20073900  0.40771200  1
  C  3993  1  0.32719600  0.21980200  0.36689600  1
  C  3994  1  0.31118500  0.22557300  0.35958600  1
  C  3995  1  0.30975500  0.22741900  0.34230500  1
  C  3996  1  0.32431100  0.22347900  0.33190800  1
  C  3997  1  0.34048900  0.21817700  0.33921200  1
  C  3998  1  0.34188300  0.21635400  0.35643300  1
  C  4005  1  0.32283400  0.22478200  0.31493000  1
  C  4006  1  0.33779700  0.21126700  0.43551100  1
  C  4009  1  0.83401800  0.49720200  0.83286100  1
  C  4010  1  0.82571300  0.48274100  0.83903800  1
  C  4011  1  0.82307200  0.48069100  0.85616500  1
  C  4012  1  0.82871900  0.49299200  0.86750900  1
  C  4013  1  0.83662400  0.50761200  0.86116800  1
  C  4014  1  0.83931900  0.50967000  0.84409800  1
  C  4017  1  0.82722300  0.49057000  0.88490700  1
  C  4018  1  0.81122200  0.48476900  0.89221600  1
  C  4019  1  0.80980000  0.48290700  0.90949500  1
  C  4020  1  0.82435200  0.48686100  0.91989200  1
  C  4021  1  0.84051800  0.49219400  0.91258900  1
  C  4022  1  0.84190500  0.49403300  0.89537000  1
  C  4029  1  0.82288200  0.48553800  0.93686900  1
  C  4030  1  0.83779300  0.49915500  0.81629300  1
  C  4033  1  0.83301400  0.71096100  0.83395200  1
  C  4034  1  0.82524700  0.72579000  0.83990800  1
  C  4035  1  0.82290900  0.72834800  0.85700300  1
  C  4036  1  0.82838300  0.71621300  0.86858200  1
  C  4037  1  0.83580300  0.70126100  0.86253100  1
  C  4038  1  0.83813900  0.69868400  0.84548100  1
  C  4041  1  0.82716500  0.71911800  0.88591800  1
  C  4042  1  0.81130900  0.72520000  0.89326400  1
  C  4043  1  0.81011300  0.72742300  0.91051700  1
  C  4044  1  0.82476100  0.72359200  0.92084600  1
  C  4045  1  0.84080800  0.71803600  0.91346900  1
  C  4046  1  0.84196300  0.71580300  0.89628100  1
  C  4053  1  0.82341800  0.72504300  0.93783500  1
  C  4054  1  0.83646100  0.70847600  0.81734400  1
  C  4057  1  0.33303300  0.99942200  0.41784100  1
  C  4058  1  0.32530600  0.98457600  0.41188200  1
  C  4059  1  0.32296700  0.98201900  0.39479000  1
  C  4060  1  0.32839600  0.99417100  0.38321100  1
  C  4061  1  0.33577800  0.00914024  0.38926500  1
  C  4062  1  0.33811500  0.01171620  0.40631300  1
  C  4065  1  0.32717500  0.99127100  0.36587500  1
  C  4066  1  0.31133300  0.98514600  0.35853600  1
  C  4067  1  0.31013400  0.98291800  0.34128400  1
  C  4068  1  0.32476300  0.98679000  0.33094800  1
  C  4069  1  0.34079600  0.99239200  0.33831600  1
  C  4070  1  0.34195500  0.99462800  0.35550500  1
  C  4077  1  0.32342000  0.98531800  0.31396100  1
  C  4078  1  0.33647700  0.00191324  0.43445000  1
  C  4081  1  0.86072100  0.99904800  0.83274300  1
  C  4082  1  0.86835200  0.98425300  0.83891900  1
  C  4083  1  0.87047000  0.98186600  0.85606500  1
  C  4084  1  0.86490700  0.99414000  0.86746200  1
  C  4085  1  0.85765500  0.00906824  0.86118300  1
  C  4086  1  0.85553600  0.01147520  0.84408700  1
  C  4089  1  0.86586500  0.99141500  0.88483900  1
  C  4090  1  0.88159500  0.98536400  0.89243400  1
  C  4091  1  0.88254400  0.98333500  0.90972000  1
  C  4092  1  0.86777400  0.98733300  0.91984000  1
  C  4093  1  0.85185400  0.99286500  0.91221600  1
  C  4094  1  0.85094400  0.99490400  0.89499000  1
  C  4101  1  0.86890000  0.98601200  0.93685500  1
  C  4102  1  0.85737400  0.00135424  0.81609700  1
  C  4105  1  0.36073100  0.71121200  0.41903900  1
  C  4106  1  0.36831600  0.72602800  0.41286100  1
  C  4107  1  0.37042800  0.72842100  0.39571700  1
  C  4108  1  0.36490300  0.71613200  0.38431800  1
  C  4109  1  0.35769600  0.70118400  0.39059800  1
  C  4110  1  0.35558400  0.69877200  0.40769300  1
  C  4113  1  0.36585300  0.71886000  0.36694300  1
  C  4114  1  0.38156100  0.72495900  0.35934900  1
  C  4115  1  0.38250200  0.72700000  0.34206300  1
  C  4116  1  0.36774500  0.72296500  0.33194200  1
  C  4117  1  0.35184500  0.71738000  0.33956500  1
  C  4118  1  0.35094200  0.71533200  0.35679100  1
  C  4125  1  0.36886200  0.72430500  0.31492800  1
  C  4126  1  0.35738600  0.70890000  0.43568400  1
  C  4129  1  0.60779400  0.14823800  0.48352800  1
  C  4130  1  0.61672000  0.14222800  0.49772800  1
  C  4131  1  0.61949000  0.12510700  0.49988300  1
  C  4132  1  0.61334600  0.11359300  0.48795700  1
  C  4133  1  0.60478600  0.11975200  0.47359800  1
  C  4134  1  0.60197200  0.13682100  0.47143300  1
  C  4137  1  0.61502400  0.09620520  0.49051900  1
  C  4138  1  0.63133200  0.08899020  0.49566900  1
  C  4139  1  0.63293000  0.07170120  0.49758700  1
  C  4140  1  0.61824000  0.06120420  0.49435800  1
  C  4141  1  0.60177800  0.06843020  0.48972800  1
  C  4142  1  0.60022100  0.08565620  0.48781600  1
  C  4149  1  0.61990600  0.04419720  0.49553700  1
  C  4150  1  0.60399400  0.16482700  0.48150100  1
  C  4153  1  0.10782000  0.56208100  0.76830100  1
  C  4154  1  0.11676000  0.56808500  0.75410600  1
  C  4155  1  0.11951100  0.58520700  0.75193400  1
  C  4156  1  0.11333500  0.59672800  0.76383700  1
  C  4157  1  0.10475800  0.59057700  0.77819000  1
  C  4158  1  0.10196200  0.57350900  0.78037200  1
  C  4161  1  0.11500700  0.61411500  0.76126300  1
  C  4162  1  0.13132100  0.62133500  0.75613700  1
  C  4163  1  0.13291500  0.63862300  0.75422000  1
  C  4164  1  0.11821700  0.64911600  0.75742300  1
  C  4165  1  0.10174900  0.64188400  0.76202600  1
  C  4166  1  0.10019300  0.62465900  0.76394000  1
  C  4173  1  0.11987800  0.66612200  0.75625100  1
  C  4174  1  0.10405200  0.54548900  0.77035800  1
  C  4177  1  0.08453680  0.56088800  0.48397400  1
  C  4178  1  0.07581580  0.56714000  0.49817200  1
  C  4179  1  0.07329980  0.58431800  0.50016700  1
  C  4180  1  0.07950280  0.59563400  0.48807700  1
  C  4181  1  0.08783380  0.58922700  0.47371200  1
  C  4182  1  0.09039380  0.57210700  0.47170800  1
  C  4185  1  0.07809980  0.61306800  0.49045700  1
  C  4186  1  0.06193780  0.62053200  0.49564200  1
  C  4187  1  0.06059580  0.63785700  0.49736300  1
  C  4188  1  0.07539380  0.64814900  0.49389800  1
  C  4189  1  0.09171180  0.64067600  0.48922100  1
  C  4190  1  0.09301680  0.62341000  0.48750600  1
  C  4197  1  0.07394180  0.66518500  0.49494800  1
  C  4198  1  0.08818280  0.54425900  0.48210600  1
  C  4201  1  0.58453600  0.14944800  0.76786900  1
  C  4202  1  0.57579400  0.14320500  0.75367700  1
  C  4203  1  0.57330000  0.12602800  0.75165900  1
  C  4204  1  0.57954300  0.11470100  0.76372200  1
  C  4205  1  0.58789600  0.12109700  0.77808000  1
  C  4206  1  0.59043700  0.13821700  0.78010500  1
  C  4209  1  0.57814600  0.09727020  0.76132600  1
  C  4210  1  0.56197700  0.08980220  0.75617100  1
  C  4211  1  0.56063600  0.07247620  0.75444900  1
  C  4212  1  0.57544600  0.06218720  0.75788200  1
  C  4213  1  0.59177200  0.06966520  0.76252700  1
  C  4214  1  0.59307500  0.08693020  0.76424200  1
  C  4221  1  0.57399700  0.04515220  0.75683800  1
  C  4222  1  0.58814500  0.16608100  0.76977200  1
  C  4225  1  0.92506500  0.47570800  0.01147840  1
  C  4226  1  0.93262500  0.46031100  0.01612940  1
  C  4227  1  0.95119500  0.45800100  0.01618740  1
  C  4228  1  0.96289300  0.47102700  0.01174840  1
  C  4229  1  0.95533300  0.48651100  0.00737940  1
  C  4230  1  0.93671400  0.48883200  0.00726640  1
  C  4233  1  0.98172800  0.46849500  0.01170240  1
  C  4234  1  0.99016600  0.45978900  0.02476640  1
  C  4235  1  0.00871080  0.45721000  0.02479240  1
  C  4236  1  0.01932480  0.46339900  0.01175740  1
  C  4237  1  0.01108780  0.47207200  0.99864300  1
  C  4238  1  0.99249900  0.47450800  0.99860300  1
  C  4245  1  0.03756780  0.46203200  0.01268540  1
  C  4246  1  0.90674000  0.47790800  0.01053940  1
  C  4249  1  0.42504700  0.23464300  0.24030900  1
  C  4250  1  0.43260500  0.25004300  0.23566700  1
  C  4251  1  0.45117500  0.25235400  0.23560500  1
  C  4252  1  0.46287400  0.23932400  0.24003400  1
  C  4253  1  0.45531500  0.22383800  0.24439400  1
  C  4254  1  0.43669800  0.22151600  0.24450900  1
  C  4257  1  0.48170900  0.24185800  0.24008200  1
  C  4258  1  0.49014600  0.25057100  0.22702200  1
  C  4259  1  0.50869300  0.25315000  0.22699800  1
  C  4260  1  0.51930600  0.24695400  0.24002900  1
  C  4261  1  0.51106800  0.23827600  0.25313900  1
  C  4262  1  0.49247900  0.23584000  0.25317800  1
  C  4269  1  0.53754900  0.24831700  0.23910000  1
  C  4270  1  0.40672400  0.23244300  0.24125800  1
  C  4273  1  0.17509900  0.46966600  0.24618500  1
  C  4274  1  0.18264400  0.46508300  0.23078500  1
  C  4275  1  0.20121300  0.46501500  0.22847000  1
  C  4276  1  0.21292200  0.46938000  0.24149600  1
  C  4277  1  0.20537500  0.47368000  0.25698200  1
  C  4278  1  0.18675800  0.47379900  0.25930700  1
  C  4281  1  0.23175500  0.46942800  0.23895900  1
  C  4282  1  0.24018100  0.45638000  0.23020400  1
  C  4283  1  0.25872500  0.45635900  0.22761900  1
  C  4284  1  0.26935000  0.46938200  0.23384800  1
  C  4285  1  0.26112100  0.48248200  0.24257000  1
  C  4286  1  0.24253500  0.48251700  0.24501500  1
  C  4293  1  0.28759500  0.46845900  0.23246100  1
  C  4294  1  0.15677800  0.47062300  0.24839200  1
  C  4297  1  0.67508500  0.24059000  0.00560440  1
  C  4298  1  0.68263700  0.24515000  0.02100840  1
  C  4299  1  0.70120700  0.24521300  0.02331640  1
  C  4300  1  0.71291200  0.24086800  0.01028040  1
  C  4301  1  0.70535700  0.23658800  0.99479100  1
  C  4302  1  0.68674000  0.23647300  0.99247300  1
  C  4305  1  0.73174600  0.24082800  0.01280740  1
  C  4306  1  0.74016500  0.25387000  0.02157940  1
  C  4307  1  0.75871000  0.25390600  0.02414840  1
  C  4308  1  0.76934400  0.24090500  0.01788840  1
  C  4309  1  0.76112500  0.22781300  0.00914840  1
  C  4310  1  0.74253600  0.22776200  0.00671840  1
  C  4317  1  0.78758700  0.24186300  0.01924540  1
  C  4318  1  0.65676300  0.23964300  0.00340040  1
  C  4321  1  0.26732800  0.73507300  0.24017100  1
  C  4322  1  0.25951900  0.75058700  0.23634100  1
  C  4323  1  0.24091500  0.75264200  0.23644100  1
  C  4324  1  0.22944700  0.73924200  0.24024100  1
  C  4325  1  0.23725800  0.72366800  0.24383300  1
  C  4326  1  0.25590800  0.72159900  0.24377300  1
  C  4329  1  0.21057800  0.74148000  0.24037200  1
  C  4330  1  0.20200300  0.75056600  0.22765100  1
  C  4331  1  0.18340800  0.75280200  0.22767300  1
  C  4332  1  0.17289000  0.74588300  0.24040600  1
  C  4333  1  0.18127600  0.73684200  0.25319000  1
  C  4334  1  0.19991000  0.73473900  0.25318500  1
  C  4341  1  0.15462400  0.74697400  0.23947200  1
  C  4342  1  0.28568000  0.73304500  0.24084100  1
  C  4345  1  0.76733800  0.97522800  0.01163340  1
  C  4346  1  0.75953200  0.95971200  0.01545840  1
  C  4347  1  0.74092900  0.95765700  0.01536040  1
  C  4348  1  0.72945900  0.97105700  0.01156440  1
  C  4349  1  0.73726800  0.98663400  0.00797940  1
  C  4350  1  0.75591700  0.98870400  0.00803940  1
  C  4353  1  0.71059100  0.96881800  0.01143040  1
  C  4354  1  0.70201400  0.95972700  0.02414640  1
  C  4355  1  0.68341800  0.95749100  0.02412140  1
  C  4356  1  0.67290200  0.96441300  0.01138940  1
  C  4357  1  0.68129000  0.97345500  0.99860800  1
  C  4358  1  0.69992400  0.97555900  0.99861700  1
  C  4365  1  0.65463600  0.96332300  0.01232140  1
  C  4366  1  0.78569100  0.97725800  0.01095640  1
  C  4369  1  0.01847580  0.74019300  0.00531140  1
  C  4370  1  0.01099680  0.74508200  0.02064440  1
  C  4371  1  0.99242800  0.74550400  0.02291940  1
  C  4372  1  0.98066800  0.74119700  0.00991540  1
  C  4373  1  0.98815700  0.73661400  0.99448500  1
  C  4374  1  0.00677180  0.73614700  0.99219900  1
  C  4377  1  0.96184100  0.74140900  0.01244540  1
  C  4378  1  0.95358800  0.75464900  0.02105540  1
  C  4379  1  0.93505300  0.75487200  0.02369840  1
  C  4380  1  0.92428000  0.74185800  0.01767640  1
  C  4381  1  0.93233500  0.72857600  0.00909240  1
  C  4382  1  0.95090700  0.72834500  0.00658340  1
  C  4389  1  0.90605900  0.74288700  0.01917640  1
  C  4390  1  0.03677380  0.73890600  0.00316340  1
  C  4393  1  0.51848100  0.97021700  0.24648300  1
  C  4394  1  0.51099300  0.96534800  0.23114700  1
  C  4395  1  0.49242400  0.96493300  0.22888000  1
  C  4396  1  0.48067000  0.96922300  0.24189500  1
  C  4397  1  0.48816800  0.97378800  0.25732600  1
  C  4398  1  0.50678400  0.97425000  0.25960500  1
  C  4401  1  0.46184100  0.96900200  0.23937600  1
  C  4402  1  0.45359300  0.95576700  0.23075300  1
  C  4403  1  0.43505700  0.95553200  0.22812700  1
  C  4404  1  0.42427700  0.96852600  0.23417900  1
  C  4405  1  0.43232600  0.98180200  0.24277600  1
  C  4406  1  0.45090000  0.98204800  0.24526700  1
  C  4413  1  0.40605800  0.96746800  0.23270700  1
  C  4414  1  0.53678200  0.97149200  0.24862700  1
  C  4417  1  0.42442900  0.97623000  0.51035300  1
  C  4418  1  0.43200700  0.96088700  0.51515500  1
  C  4419  1  0.45059100  0.95873200  0.51564300  1
  C  4420  1  0.46227200  0.97186500  0.51149500  1
  C  4421  1  0.45468600  0.98729600  0.50698000  1
  C  4422  1  0.43605600  0.98946400  0.50644500  1
  C  4425  1  0.48112000  0.96946600  0.51181300  1
  C  4426  1  0.48934400  0.96081400  0.52503000  1
  C  4427  1  0.50789600  0.95829000  0.52535300  1
  C  4428  1  0.51871900  0.96447900  0.51246900  1
  C  4429  1  0.51069400  0.97311200  0.49921500  1
  C  4430  1  0.49210500  0.97550200  0.49888200  1
  C  4437  1  0.53694100  0.96304700  0.51358500  1
  C  4438  1  0.40611500  0.97828900  0.50905800  1
  C  4441  1  0.92440500  0.73411700  0.74143900  1
  C  4442  1  0.93197900  0.74946200  0.73664000  1
  C  4443  1  0.95056300  0.75162100  0.73614800  1
  C  4444  1  0.96224700  0.73848600  0.74028800  1
  C  4445  1  0.95466200  0.72305300  0.74479800  1
  C  4446  1  0.93603300  0.72088300  0.74533700  1
  C  4449  1  0.98109300  0.74088600  0.73996800  1
  C  4450  1  0.98931600  0.74954300  0.72675400  1
  C  4451  1  0.00786880  0.75206700  0.72643000  1
  C  4452  1  0.01869180  0.74587400  0.73931100  1
  C  4453  1  0.01066780  0.73723900  0.75256400  1
  C  4454  1  0.99207900  0.73484700  0.75289800  1
  C  4461  1  0.03691480  0.74730600  0.73819400  1
  C  4462  1  0.90609100  0.73205700  0.74274200  1
  C  4465  1  0.67526400  0.96953300  0.74592500  1
  C  4466  1  0.68316400  0.96593000  0.73041900  1
  C  4467  1  0.70178400  0.96594700  0.72849300  1
  C  4468  1  0.71317500  0.96944300  0.74201300  1
  C  4469  1  0.70527000  0.97280100  0.75757400  1
  C  4470  1  0.68660500  0.97281700  0.75951800  1
  C  4473  1  0.73206000  0.96953700  0.73989700  1
  C  4474  1  0.74064400  0.95692900  0.73065100  1
  C  4475  1  0.75925100  0.95694500  0.72849400  1
  C  4476  1  0.76977500  0.96955800  0.73565100  1
  C  4477  1  0.76137300  0.98222400  0.74486000  1
  C  4478  1  0.74273000  0.98222500  0.74688900  1
  C  4485  1  0.78805000  0.96863700  0.73455600  1
  C  4486  1  0.65690200  0.97030200  0.74783900  1
  C  4489  1  0.17524600  0.74071500  0.50586100  1
  C  4490  1  0.18315000  0.74429400  0.52137000  1
  C  4491  1  0.20177000  0.74427700  0.52329300  1
  C  4492  1  0.21315900  0.74080700  0.50976700  1
  C  4493  1  0.20525200  0.73746800  0.49420100  1
  C  4494  1  0.18658700  0.73745200  0.49226200  1
  C  4497  1  0.23204500  0.74072600  0.51187800  1
  C  4498  1  0.24061600  0.75332800  0.52114300  1
  C  4499  1  0.25922500  0.75333300  0.52328700  1
  C  4500  1  0.26976300  0.74074800  0.51609800  1
  C  4501  1  0.26137600  0.72808800  0.50686800  1
  C  4502  1  0.24273000  0.72806500  0.50485500  1
  C  4509  1  0.28803400  0.74171200  0.51716700  1
  C  4510  1  0.15688300  0.73995500  0.50394500  1
  C  4513  1  0.76794800  0.23477700  0.74184400  1
  C  4514  1  0.76024100  0.25024700  0.73767200  1
  C  4515  1  0.74164200  0.25228500  0.73727800  1
  C  4516  1  0.73007900  0.23890900  0.74090400  1
  C  4517  1  0.73779300  0.22337400  0.74483200  1
  C  4518  1  0.75643900  0.22132100  0.74526200  1
  C  4521  1  0.71121600  0.24114900  0.74059200  1
  C  4522  1  0.70296600  0.25013500  0.72761700  1
  C  4523  1  0.68438500  0.25246200  0.72727300  1
  C  4524  1  0.67356400  0.24573400  0.73988800  1
  C  4525  1  0.68162400  0.23677600  0.75290900  1
  C  4526  1  0.70023900  0.23457800  0.75326600  1
  C  4533  1  0.65533400  0.24703800  0.73872700  1
  C  4534  1  0.78628000  0.23275900  0.74291200  1
  C  4537  1  0.26796600  0.47552500  0.50996300  1
  C  4538  1  0.26026300  0.46005200  0.51413300  1
  C  4539  1  0.24166300  0.45801200  0.51453100  1
  C  4540  1  0.23009700  0.47138700  0.51090700  1
  C  4541  1  0.23780700  0.48692400  0.50698100  1
  C  4542  1  0.25645200  0.48898000  0.50654800  1
  C  4545  1  0.21123500  0.46914200  0.51121800  1
  C  4546  1  0.20298500  0.46015400  0.52419200  1
  C  4547  1  0.18440400  0.45782600  0.52453500  1
  C  4548  1  0.17358400  0.46455200  0.51192000  1
  C  4549  1  0.18164300  0.47351100  0.49889900  1
  C  4550  1  0.20025800  0.47571100  0.49854300  1
  C  4557  1  0.15535300  0.46324800  0.51308100  1
  C  4558  1  0.28629600  0.47754400  0.50888600  1
  C  4561  1  0.51798800  0.23977400  0.50545200  1
  C  4562  1  0.51013300  0.24369700  0.52090100  1
  C  4563  1  0.49151300  0.24392400  0.52282200  1
  C  4564  1  0.48008300  0.24036600  0.50934900  1
  C  4565  1  0.48794400  0.23666600  0.49384500  1
  C  4566  1  0.50660700  0.23640900  0.49190900  1
  C  4569  1  0.46120000  0.24055500  0.51145200  1
  C  4570  1  0.45279900  0.25343000  0.52047600  1
  C  4571  1  0.43419500  0.25367400  0.52264100  1
  C  4572  1  0.42350100  0.24106000  0.51571100  1
  C  4573  1  0.43171400  0.22813800  0.50671600  1
  C  4574  1  0.45035300  0.22787900  0.50467800  1
  C  4581  1  0.40525000  0.24214600  0.51686500  1
  C  4582  1  0.53634300  0.23891300  0.50352800  1
  C  4585  1  0.01799580  0.47064900  0.74635300  1
  C  4586  1  0.01013580  0.46674900  0.73090100  1
  C  4587  1  0.99151700  0.46652400  0.72898500  1
  C  4588  1  0.98009000  0.47005900  0.74246600  1
  C  4589  1  0.98795600  0.47374000  0.75797300  1
  C  4590  1  0.00661880  0.47399800  0.75990400  1
  C  4593  1  0.96120700  0.46985600  0.74037100  1
  C  4594  1  0.95281500  0.45698800  0.73133000  1
  C  4595  1  0.93421000  0.45672200  0.72918000  1
  C  4596  1  0.92350500  0.46931000  0.73614000  1
  C  4597  1  0.93170600  0.48222800  0.74515200  1
  C  4598  1  0.95034600  0.48250700  0.74717500  1
  C  4605  1  0.90525700  0.46818700  0.73501100  1
  C  4606  1  0.03635280  0.47150300  0.74827600  1
  C  4609  1  0.09562680  0.48720900  0.08130040  1
  C  4610  1  0.09642680  0.47131700  0.08872940  1
  C  4611  1  0.09661880  0.46941500  0.10610700  1
  C  4612  1  0.09595880  0.48325500  0.11693300  1
  C  4613  1  0.09562180  0.49913800  0.10943400  1
  C  4614  1  0.09536980  0.50106400  0.09208140  1
  C  4617  1  0.09518780  0.48133900  0.13468600  1
  C  4618  1  0.08495280  0.46860900  0.14221200  1
  C  4619  1  0.08454680  0.46646300  0.15954700  1
  C  4620  1  0.09419880  0.47707700  0.17025000  1
  C  4621  1  0.10422800  0.48998100  0.16281700  1
  C  4622  1  0.10464800  0.49207500  0.14547400  1
  C  4629  1  0.09568180  0.47328700  0.18710800  1
  C  4630  1  0.09242980  0.48946400  0.06435340  1
  C  4633  1  0.59562200  0.22311700  0.17051600  1
  C  4634  1  0.59642300  0.23900800  0.16308500  1
  C  4635  1  0.59661400  0.24091000  0.14570700  1
  C  4636  1  0.59594900  0.22706900  0.13488400  1
  C  4637  1  0.59561000  0.21118700  0.14238300  1
  C  4638  1  0.59536000  0.20926100  0.15973600  1
  C  4641  1  0.59517900  0.22898200  0.11712900  1
  C  4642  1  0.58495000  0.24171600  0.10960300  1
  C  4643  1  0.58454500  0.24386200  0.09226840  1
  C  4644  1  0.59419200  0.23324300  0.08156640  1
  C  4645  1  0.60421400  0.22033500  0.08899940  1
  C  4646  1  0.60463400  0.21824300  0.10634200  1
  C  4653  1  0.59568600  0.23703500  0.06471140  1
  C  4654  1  0.59242500  0.22086300  0.18746400  1
  C  4657  1  0.34563400  0.39976600  0.25762300  1
  C  4658  1  0.34639600  0.39234300  0.24174600  1
  C  4659  1  0.34656300  0.37494500  0.23983200  1
  C  4660  1  0.34591400  0.36411000  0.25365000  1
  C  4661  1  0.34561900  0.37159300  0.26951800  1
  C  4662  1  0.34539500  0.38896900  0.27145500  1
  C  4665  1  0.34513300  0.34634500  0.25172200  1
  C  4666  1  0.33479500  0.33883200  0.23907300  1
  C  4667  1  0.33438500  0.32147600  0.23691000  1
  C  4668  1  0.34414200  0.31076200  0.24742800  1
  C  4669  1  0.35427600  0.31818800  0.26025000  1
  C  4670  1  0.35470000  0.33555000  0.26236100  1
  C  4677  1  0.34558500  0.29388600  0.24364200  1
  C  4678  1  0.34250500  0.41674100  0.25989300  1
  C  4681  1  0.84567300  0.31057400  0.99419700  1
  C  4682  1  0.84643400  0.31799200  0.01007640  1
  C  4683  1  0.84660200  0.33539000  0.01199240  1
  C  4684  1  0.84595500  0.34622800  0.99817500  1
  C  4685  1  0.84566200  0.33874600  0.98230600  1
  C  4686  1  0.84543700  0.32137200  0.98036600  1
  C  4689  1  0.84516600  0.36399000  0.00010640  1
  C  4690  1  0.83481600  0.37149900  0.01275140  1
  C  4691  1  0.83439800  0.38885500  0.01491640  1
  C  4692  1  0.84415900  0.39957200  0.00440540  1
  C  4693  1  0.85430400  0.39215100  0.99158600  1
  C  4694  1  0.85473500  0.37479000  0.98947200  1
  C  4701  1  0.84559400  0.41644600  0.00819540  1
  C  4702  1  0.84251800  0.29360600  0.99192700  1
  C  4705  1  0.09692580  0.72225600  0.17045800  1
  C  4706  1  0.09619780  0.73816600  0.16306200  1
  C  4707  1  0.09610280  0.74010600  0.14568700  1
  C  4708  1  0.09680080  0.72628700  0.13484000  1
  C  4709  1  0.09707680  0.71038800  0.14230400  1
  C  4710  1  0.09722080  0.70842300  0.15965100  1
  C  4713  1  0.09764980  0.72823000  0.11709500  1
  C  4714  1  0.10791000  0.74097300  0.10962000  1
  C  4715  1  0.10839600  0.74313000  0.09228840  1
  C  4716  1  0.09880980  0.73250400  0.08154540  1
  C  4717  1  0.08874880  0.71959400  0.08892840  1
  C  4718  1  0.08824180  0.71749600  0.10626600  1
  C  4725  1  0.09739780  0.73628200  0.06468540  1
  C  4726  1  0.10000600  0.71994500  0.18741500  1
  C  4729  1  0.59692800  0.98807200  0.08130540  1
  C  4730  1  0.59619300  0.97216400  0.08870440  1
  C  4731  1  0.59610000  0.97022600  0.10607900  1
  C  4732  1  0.59680500  0.98404700  0.11692400  1
  C  4733  1  0.59708700  0.99994500  0.10945800  1
  C  4734  1  0.59722900  0.00190724  0.09211140  1
  C  4737  1  0.59765300  0.98210700  0.13467000  1
  C  4738  1  0.60790300  0.96935900  0.14214700  1
  C  4739  1  0.60838600  0.96720500  0.15948000  1
  C  4740  1  0.59880700  0.97783700  0.17021900  1
  C  4741  1  0.58875700  0.99075200  0.16283500  1
  C  4742  1  0.58825300  0.99284700  0.14549700  1
  C  4749  1  0.59738200  0.97406000  0.18707800  1
  C  4750  1  0.60000800  0.99038000  0.06434840  1
  C  4753  1  0.84699700  0.81058500  0.99427500  1
  C  4754  1  0.84618100  0.81800500  0.01015040  1
  C  4755  1  0.84605200  0.83540500  0.01206840  1
  C  4756  1  0.84680400  0.84624600  0.99825700  1
  C  4757  1  0.84714000  0.83876200  0.98238900  1
  C  4758  1  0.84731900  0.82138700  0.98044800  1
  C  4761  1  0.84765400  0.86401000  0.00018940  1
  C  4762  1  0.85792400  0.87149200  0.01290640  1
  C  4763  1  0.85838800  0.88884700  0.01507040  1
  C  4764  1  0.84876500  0.89959600  0.00448440  1
  C  4765  1  0.83870900  0.89220200  0.99158900  1
  C  4766  1  0.83822600  0.87484200  0.98948000  1
  C  4773  1  0.84728000  0.91646300  0.00830640  1
  C  4774  1  0.85021200  0.79361900  0.99200900  1
  C  4777  1  0.34696400  0.89973700  0.25749700  1
  C  4778  1  0.34614500  0.89231700  0.24162100  1
  C  4779  1  0.34601500  0.87491900  0.23970200  1
  C  4780  1  0.34676800  0.86407600  0.25351100  1
  C  4781  1  0.34710400  0.87155800  0.26938100  1
  C  4782  1  0.34728600  0.88893300  0.27132400  1
  C  4785  1  0.34762500  0.84631300  0.25157900  1
  C  4786  1  0.35790000  0.83883600  0.23886300  1
  C  4787  1  0.35837200  0.82148000  0.23669600  1
  C  4788  1  0.34875000  0.81072700  0.24728100  1
  C  4789  1  0.33868900  0.81811700  0.26017400  1
  C  4790  1  0.33819900  0.83547700  0.26228600  1
  C  4797  1  0.34727000  0.79386300  0.24345400  1
  C  4798  1  0.35020500  0.91669300  0.25976200  1
  C  4801  1  0.59590900  0.98795000  0.58131400  1
  C  4802  1  0.59667400  0.97205100  0.58873200  1
  C  4803  1  0.59680200  0.97013300  0.60610700  1
  C  4804  1  0.59610000  0.98396400  0.61693800  1
  C  4805  1  0.59581800  0.99985600  0.60945600  1
  C  4806  1  0.59563700  0.00179824  0.59210500  1
  C  4809  1  0.59523200  0.98203200  0.63468300  1
  C  4810  1  0.58494400  0.96930200  0.64214600  1
  C  4811  1  0.58446400  0.96712200  0.65947400  1
  C  4812  1  0.59408800  0.97770600  0.67022700  1
  C  4813  1  0.60415700  0.99061900  0.66285600  1
  C  4814  1  0.60465400  0.99274400  0.64552000  1
  C  4821  1  0.59556600  0.97384100  0.68706700  1
  C  4822  1  0.59266800  0.99021700  0.56437800  1
  C  4825  1  0.09589680  0.72237800  0.67049600  1
  C  4826  1  0.09666580  0.73827600  0.66307500  1
  C  4827  1  0.09679280  0.74019000  0.64570000  1
  C  4828  1  0.09608480  0.72635700  0.63487200  1
  C  4829  1  0.09579980  0.71046700  0.64235500  1
  C  4830  1  0.09561880  0.70852800  0.65970800  1
  C  4833  1  0.09521580  0.72828700  0.61712600  1
  C  4834  1  0.08493480  0.74102100  0.60966100  1
  C  4835  1  0.08445880  0.74319900  0.59233300  1
  C  4836  1  0.09407580  0.73261000  0.58158100  1
  C  4837  1  0.10413700  0.71969200  0.58895500  1
  C  4838  1  0.10463100  0.71756800  0.60629000  1
  C  4845  1  0.09556580  0.73647500  0.56474500  1
  C  4846  1  0.09265680  0.72011300  0.68743300  1
  C  4849  1  0.84593000  0.89972300  0.75928600  1
  C  4850  1  0.84660900  0.89232900  0.74339200  1
  C  4851  1  0.84672500  0.87493400  0.74144500  1
  C  4852  1  0.84610400  0.86407200  0.75524500  1
  C  4853  1  0.84588200  0.87152800  0.77112600  1
  C  4854  1  0.84571800  0.88889900  0.77309700  1
  C  4857  1  0.84528400  0.84631000  0.75329400  1
  C  4858  1  0.83492400  0.83882100  0.74064400  1
  C  4859  1  0.83446800  0.82146700  0.73847800  1
  C  4860  1  0.84418700  0.81073100  0.74900200  1
  C  4861  1  0.85435200  0.81812900  0.76181900  1
  C  4862  1  0.85483000  0.83548900  0.76392500  1
  C  4869  1  0.84557500  0.79385000  0.74523800  1
  C  4870  1  0.84287200  0.91670200  0.76161300  1
  C  4873  1  0.34596700  0.81061700  0.49252000  1
  C  4874  1  0.34664600  0.81800700  0.50841600  1
  C  4875  1  0.34676500  0.83540200  0.51036500  1
  C  4876  1  0.34614300  0.84626400  0.49656700  1
  C  4877  1  0.34592100  0.83881100  0.48068300  1
  C  4878  1  0.34575300  0.82144100  0.47871000  1
  C  4881  1  0.34531800  0.86402400  0.49851900  1
  C  4882  1  0.33495000  0.87150800  0.51116600  1
  C  4883  1  0.33448700  0.88886300  0.51333500  1
  C  4884  1  0.34420800  0.89960300  0.50281600  1
  C  4885  1  0.35438000  0.89220800  0.49000200  1
  C  4886  1  0.35486500  0.87484900  0.48789200  1
  C  4893  1  0.34559300  0.91648100  0.50658500  1
  C  4894  1  0.34288100  0.79364400  0.49019300  1
  C  4897  1  0.59671100  0.22288300  0.67046100  1
  C  4898  1  0.59591700  0.23878400  0.66304900  1
  C  4899  1  0.59585300  0.24071500  0.64566900  1
  C  4900  1  0.59665800  0.22690200  0.63481500  1
  C  4901  1  0.59699700  0.21101100  0.64229900  1
  C  4902  1  0.59710300  0.20905300  0.65964900  1
  C  4905  1  0.59755100  0.22883500  0.61705700  1
  C  4906  1  0.60765300  0.24169500  0.60959000  1
  C  4907  1  0.60816600  0.24384400  0.59225400  1
  C  4908  1  0.59878100  0.23309300  0.58148400  1
  C  4909  1  0.58889000  0.22006400  0.58885600  1
  C  4910  1  0.58834700  0.21797800  0.60619700  1
  C  4917  1  0.59728700  0.23688800  0.56462600  1
  C  4918  1  0.59984500  0.22058000  0.68742100  1
  C  4921  1  0.09671680  0.48743900  0.58131300  1
  C  4922  1  0.09591780  0.47154100  0.58873100  1
  C  4923  1  0.09585380  0.46961300  0.60611200  1
  C  4924  1  0.09666580  0.48343100  0.61696000  1
  C  4925  1  0.09701080  0.49931900  0.60947200  1
  C  4926  1  0.09711480  0.50127100  0.59212100  1
  C  4929  1  0.09755780  0.48150300  0.63472000  1
  C  4930  1  0.10764900  0.46863800  0.64219200  1
  C  4931  1  0.10815900  0.46649400  0.65952800  1
  C  4932  1  0.09878080  0.47725400  0.67029400  1
  C  4933  1  0.08889980  0.49028900  0.66291800  1
  C  4934  1  0.08836180  0.49236900  0.64557600  1
  C  4941  1  0.09727480  0.47346100  0.68715000  1
  C  4942  1  0.09984980  0.48973400  0.56435300  1
  C  4945  1  0.34683200  0.31057000  0.49241800  1
  C  4946  1  0.34607300  0.31797200  0.50830400  1
  C  4947  1  0.34601900  0.33537000  0.51024800  1
  C  4948  1  0.34679400  0.34623100  0.49645300  1
  C  4949  1  0.34709200  0.33876600  0.48057500  1
  C  4950  1  0.34718800  0.32139500  0.47860800  1
  C  4953  1  0.34768200  0.36399600  0.49840000  1
  C  4954  1  0.35791900  0.37145700  0.51115500  1
  C  4955  1  0.35841700  0.38881200  0.51332600  1
  C  4956  1  0.34887000  0.39958300  0.50270100  1
  C  4957  1  0.33884400  0.39221200  0.48977400  1
  C  4958  1  0.33832100  0.37485500  0.48766500  1
  C  4965  1  0.34740700  0.41645300  0.50650800  1
  C  4966  1  0.34990900  0.29358700  0.49010600  1
  C  4969  1  0.84680400  0.39975200  0.75937800  1
  C  4970  1  0.84604100  0.39235100  0.74349000  1
  C  4971  1  0.84598300  0.37495300  0.74154500  1
  C  4972  1  0.84676000  0.36409100  0.75533900  1
  C  4973  1  0.84706000  0.37155500  0.77121800  1
  C  4974  1  0.84716100  0.38892600  0.77318600  1
  C  4977  1  0.84765300  0.34632700  0.75339100  1
  C  4978  1  0.85789100  0.33887000  0.74063600  1
  C  4979  1  0.85839300  0.32151400  0.73846200  1
  C  4980  1  0.84885200  0.31074000  0.74908600  1
  C  4981  1  0.83882300  0.31810600  0.76201400  1
  C  4982  1  0.83829400  0.33546500  0.76412400  1
  C  4989  1  0.84738800  0.29387300  0.74527500  1
  C  4990  1  0.84990900  0.41672700  0.76168900  1
  N  8  1  0.95257000  0.35907500  0.92349800  1
  N  15  1  0.01469400  0.40871600  0.82980400  1
  N  17  1  0.01144600  0.37385700  0.90306500  1
  N  18  1  0.99250100  0.35641300  0.85129500  1
  N  27  1  0.00814400  0.42259900  0.86042300  1
  N  28  1  0.00275000  0.37665400  0.82439600  1
  N  29  1  0.98797300  0.36654900  0.92949000  1
  N  30  1  0.93975100  0.36378300  0.89128700  1
  N  38  1  0.45256200  0.12812000  0.08076300  1
  N  45  1  0.51467100  0.07844900  0.17443800  1
  N  47  1  0.51143100  0.11331300  0.10120300  1
  N  48  1  0.49249400  0.13076000  0.15295200  1
  N  57  1  0.50812100  0.06456500  0.14381600  1
  N  58  1  0.50273800  0.11051000  0.17984900  1
  N  59  1  0.48796300  0.12063500  0.07477500  1
  N  60  1  0.43973300  0.12341600  0.11297200  1
  N  68  1  0.20256600  0.32224600  0.11722500  1
  N  75  1  0.26453300  0.41576500  0.16734700  1
  N  77  1  0.26145700  0.34257500  0.13211400  1
  N  78  1  0.24274800  0.39445700  0.11488200  1
  N  87  1  0.25793400  0.38498900  0.18100400  1
  N  88  1  0.25284100  0.42127200  0.13529300  1
  N  89  1  0.23794100  0.31620400  0.12471600  1
  N  90  1  0.18979700  0.35453300  0.12198200  1
  N  98  1  0.70257700  0.16495500  0.88699500  1
  N  105  1  0.76457100  0.07142300  0.83692100  1
  N  107  1  0.76147700  0.14460500  0.87217300  1
  N  108  1  0.74273100  0.09273400  0.88936400  1
  N  117  1  0.75795700  0.10217700  0.82324600  1
  N  118  1  0.75284500  0.06591900  0.86896300  1
  N  119  1  0.73795900  0.17098500  0.87954400  1
  N  120  1  0.68978500  0.13269900  0.88218200  1
  N  128  1  0.52803300  0.12340300  0.92396800  1
  N  135  1  0.46551100  0.07774800  0.82940300  1
  N  137  1  0.46885900  0.10964500  0.90365600  1
  N  138  1  0.48610900  0.13026200  0.85167500  1
  N  147  1  0.47215800  0.06356500  0.85989900  1
  N  148  1  0.47679800  0.11007200  0.82442800  1
  N  149  1  0.49305200  0.11455000  0.92991500  1
  N  150  1  0.53986300  0.12429500  0.89189800  1
  N  158  1  0.02803600  0.36375100  0.08028300  1
  N  165  1  0.96555500  0.40945800  0.17483800  1
  N  167  1  0.96888000  0.37755400  0.10061900  1
  N  168  1  0.98612000  0.35692900  0.15257400  1
  N  177  1  0.97220900  0.42363900  0.14433900  1
  N  178  1  0.97682100  0.37713000  0.17981800  1
  N  179  1  0.99305700  0.37262600  0.07435000  1
  N  180  1  0.03988100  0.36284600  0.11234800  1
  N  188  1  0.27801600  0.16532900  0.12186300  1
  N  195  1  0.21563500  0.07092200  0.16803400  1
  N  197  1  0.21883100  0.14511700  0.13575100  1
  N  198  1  0.23589900  0.09301100  0.11538800  1
  N  207  1  0.22231400  0.10158100  0.18199800  1
  N  208  1  0.22671400  0.06584700  0.13573300  1
  N  209  1  0.24306900  0.17132800  0.13076500  1
  N  210  1  0.28982400  0.13319000  0.12116400  1
  N  218  1  0.77803200  0.32187300  0.88245000  1
  N  225  1  0.71561900  0.41624500  0.83622500  1
  N  227  1  0.71884400  0.34205900  0.86853800  1
  N  228  1  0.73588600  0.39417600  0.88887700  1
  N  237  1  0.72232700  0.38560200  0.82226100  1
  N  238  1  0.72670100  0.42133000  0.86852200  1
  N  239  1  0.74310700  0.31586000  0.87353200  1
  N  240  1  0.78983600  0.35401100  0.88311000  1
  N  248  1  0.02647800  0.62665600  0.08085600  1
  N  255  1  0.96042000  0.57987700  0.17432500  1
  N  257  1  0.96720200  0.61306800  0.10107800  1
  N  258  1  0.98708200  0.63030200  0.15284400  1
  N  267  1  0.96740100  0.56510500  0.14348400  1
  N  268  1  0.97544900  0.61081500  0.17983200  1
  N  269  1  0.99097100  0.61973000  0.07473000  1
  N  270  1  0.03904900  0.62198800  0.11312300  1
  N  278  1  0.52647900  0.86050300  0.92336400  1
  N  285  1  0.46045400  0.90733400  0.82991300  1
  N  287  1  0.46721200  0.87412200  0.90313300  1
  N  288  1  0.48708200  0.85689000  0.85138500  1
  N  297  1  0.46742400  0.92209600  0.86076100  1
  N  298  1  0.47545800  0.87639100  0.82440100  1
  N  299  1  0.49097500  0.86744500  0.92948600  1
  N  300  1  0.53906000  0.86516900  0.89109900  1
  N  308  1  0.77675400  0.66552700  0.88706700  1
  N  315  1  0.72217100  0.57022400  0.83556100  1
  N  317  1  0.71816500  0.64419400  0.87251100  1
  N  318  1  0.73900900  0.59243400  0.88923200  1
  N  327  1  0.72316600  0.60198200  0.82322800  1
  N  328  1  0.73204800  0.56535800  0.86823400  1
  N  329  1  0.74126800  0.67100000  0.87964700  1
  N  330  1  0.79012000  0.63343700  0.88214500  1
  N  338  1  0.27674600  0.82164700  0.11720800  1
  N  345  1  0.22213200  0.91697100  0.16865000  1
  N  347  1  0.21814500  0.84299600  0.13169100  1
  N  348  1  0.23901900  0.89474600  0.11500200  1
  N  357  1  0.22314000  0.88523400  0.18100300  1
  N  358  1  0.23202500  0.92183000  0.13599700  1
  N  359  1  0.24125200  0.81618100  0.12458700  1
  N  360  1  0.29012800  0.85370800  0.12218300  1
  N  368  1  0.45152400  0.86505100  0.08040700  1
  N  375  1  0.51772400  0.90828700  0.17463100  1
  N  377  1  0.51105700  0.87781000  0.10046800  1
  N  378  1  0.49300200  0.85733800  0.15250000  1
  N  387  1  0.51059600  0.92320100  0.14385500  1
  N  388  1  0.50354100  0.87696000  0.17978700  1
  N  389  1  0.48659900  0.87345900  0.07432300  1
  N  390  1  0.43992600  0.86389600  0.11253900  1
  N  398  1  0.95153000  0.62217300  0.92382400  1
  N  405  1  0.01767400  0.57886800  0.82960700  1
  N  407  1  0.01104400  0.60936200  0.90373700  1
  N  408  1  0.99299900  0.62984000  0.85172800  1
  N  417  1  0.01055000  0.56396300  0.86039000  1
  N  418  1  0.00352300  0.61020200  0.82444400  1
  N  419  1  0.98660400  0.61373700  0.92989400  1
  N  420  1  0.93991700  0.62333900  0.89169600  1
  N  428  1  0.70115600  0.82145200  0.88238400  1
  N  435  1  0.75632900  0.91747000  0.83488000  1
  N  437  1  0.76016600  0.84242700  0.86888700  1
  N  438  1  0.74126500  0.89453100  0.88871200  1
  N  447  1  0.75519900  0.88583100  0.82215700  1
  N  448  1  0.74727700  0.92189900  0.86781600  1
  N  449  1  0.73623200  0.81588600  0.87362800  1
  N  450  1  0.68889100  0.85346400  0.88298100  1
  N  458  1  0.20114300  0.66570700  0.12180500  1
  N  465  1  0.25635500  0.56971200  0.16933200  1
  N  467  1  0.26016100  0.64476000  0.13531500  1
  N  468  1  0.24128800  0.59264600  0.11550200  1
  N  477  1  0.25519500  0.60133400  0.18206400  1
  N  478  1  0.24731100  0.56528000  0.13641000  1
  N  479  1  0.23620000  0.67128900  0.13057100  1
  N  480  1  0.18888500  0.63369800  0.12124000  1
  N  488  1  0.45251700  0.85996600  0.42402500  1
  N  495  1  0.50719200  0.91109000  0.32873000  1
  N  497  1  0.51120200  0.87425700  0.40275300  1
  N  498  1  0.49034400  0.85740300  0.35104900  1
  N  507  1  0.50617600  0.92349900  0.36043600  1
  N  508  1  0.49738500  0.87833700  0.32392800  1
  N  509  1  0.48803900  0.86725700  0.42953000  1
  N  510  1  0.43923100  0.86477500  0.39195100  1
  N  518  1  0.95250200  0.62723500  0.58022900  1
  N  525  1  0.00717200  0.57608500  0.67550900  1
  N  527  1  0.01118000  0.61291700  0.60151000  1
  N  528  1  0.99033000  0.62978000  0.65318600  1
  N  537  1  0.00614300  0.56366800  0.64380300  1
  N  538  1  0.99735900  0.60883900  0.68030700  1
  N  539  1  0.98802300  0.61993100  0.57472900  1
  N  540  1  0.93920500  0.62242900  0.61230100  1
  N  548  1  0.70263000  0.82227300  0.61956400  1
  N  555  1  0.76868300  0.91580100  0.66634000  1
  N  557  1  0.76191000  0.84254100  0.63310500  1
  N  558  1  0.74226700  0.89429900  0.61586400  1
  N  567  1  0.76155900  0.88494200  0.68107200  1
  N  568  1  0.75397300  0.92128200  0.63532200  1
  N  569  1  0.73815000  0.81618000  0.62642500  1
  N  570  1  0.69005700  0.85461000  0.62417700  1
  N  578  1  0.20264100  0.66493300  0.38465600  1
  N  585  1  0.26868400  0.57137800  0.33791700  1
  N  587  1  0.26191800  0.64463700  0.37115800  1
  N  588  1  0.24225300  0.59289700  0.38838000  1
  N  597  1  0.26153500  0.60222200  0.32316500  1
  N  598  1  0.25396600  0.56591000  0.36893400  1
  N  599  1  0.23816500  0.67100900  0.37782300  1
  N  600  1  0.19004100  0.63261900  0.38000200  1
  N  608  1  0.02801400  0.62300300  0.42434000  1
  N  615  1  0.97320100  0.57542900  0.32834900  1
  N  617  1  0.96905400  0.60925800  0.40342100  1
  N  618  1  0.98780600  0.62939800  0.35137200  1
  N  627  1  0.97437700  0.56265900  0.35994700  1
  N  628  1  0.98192500  0.60850300  0.32397000  1
  N  629  1  0.99299600  0.61403200  0.42993000  1
  N  630  1  0.04019500  0.62390000  0.39235800  1
  N  638  1  0.52802100  0.86414100  0.57990400  1
  N  645  1  0.47324300  0.91176300  0.67588900  1
  N  647  1  0.46908200  0.87793500  0.60084800  1
  N  648  1  0.48782200  0.85777900  0.65286600  1
  N  657  1  0.47443800  0.92453800  0.64429000  1
  N  658  1  0.48196000  0.87868500  0.68026600  1
  N  659  1  0.49300600  0.87313600  0.57432800  1
  N  660  1  0.54021900  0.86323100  0.61188100  1
  N  668  1  0.77788500  0.66509000  0.62395300  1
  N  675  1  0.71148600  0.57101000  0.66739400  1
  N  677  1  0.71831300  0.64521000  0.63685700  1
  N  678  1  0.73595800  0.59312100  0.61638300  1
  N  687  1  0.71879900  0.60180500  0.68224900  1
  N  688  1  0.72531900  0.56585900  0.63598600  1
  N  689  1  0.74285200  0.67128100  0.63242000  1
  N  690  1  0.78939200  0.63286300  0.62290300  1
  N  698  1  0.27790800  0.82210900  0.38035100  1
  N  705  1  0.21149100  0.91616500  0.33686100  1
  N  707  1  0.21833700  0.84196900  0.36741100  1
  N  708  1  0.23594600  0.89405800  0.38788100  1
  N  717  1  0.21885000  0.88538200  0.32199900  1
  N  718  1  0.22531300  0.92131900  0.36827300  1
  N  719  1  0.24289500  0.81590700  0.37186300  1
  N  720  1  0.28941200  0.85433300  0.38136700  1
  N  728  1  0.52655000  0.12700100  0.58046700  1
  N  735  1  0.46714700  0.07863300  0.67573700  1
  N  737  1  0.46740100  0.11410900  0.60148400  1
  N  738  1  0.48914900  0.13064600  0.65325900  1
  N  747  1  0.46921800  0.06558100  0.64377800  1
  N  748  1  0.48049000  0.11032400  0.68049600  1
  N  749  1  0.49089500  0.12036200  0.57476300  1
  N  750  1  0.53953200  0.12214000  0.61260800  1
  N  758  1  0.02655600  0.36014500  0.42376600  1
  N  765  1  0.96720500  0.40857900  0.32851700  1
  N  767  1  0.96741700  0.37306900  0.40274000  1
  N  768  1  0.98916000  0.35653500  0.35098100  1
  N  777  1  0.96924300  0.42161300  0.36048600  1
  N  778  1  0.98052200  0.37687700  0.32375400  1
  N  779  1  0.99090400  0.36680200  0.42946600  1
  N  780  1  0.03955000  0.36500500  0.39162900  1
  N  788  1  0.27665400  0.16518900  0.38450800  1
  N  795  1  0.21668200  0.07010300  0.33598200  1
  N  797  1  0.21750900  0.14431300  0.37136500  1
  N  798  1  0.23891800  0.09248100  0.38789100  1
  N  807  1  0.21902600  0.10210200  0.32289500  1
  N  808  1  0.23005500  0.06530400  0.36760400  1
  N  809  1  0.24105300  0.17095800  0.37774600  1
  N  810  1  0.28957300  0.13296700  0.37972100  1
  N  818  1  0.77664700  0.32198200  0.61977700  1
  N  825  1  0.71665000  0.41710300  0.66822700  1
  N  827  1  0.71750000  0.34288200  0.63287100  1
  N  828  1  0.73892700  0.39469500  0.61634900  1
  N  837  1  0.71904100  0.38512600  0.68135100  1
  N  838  1  0.73003500  0.42188800  0.63663000  1
  N  839  1  0.74103900  0.31622500  0.62651000  1
  N  840  1  0.78958400  0.35418300  0.62460000  1
  N  848  1  0.95142500  0.36509600  0.58020200  1
  N  855  1  0.01142400  0.40939100  0.67609600  1
  N  857  1  0.01101900  0.37669500  0.60085900  1
  N  858  1  0.99116900  0.35704700  0.65298200  1
  N  867  1  0.00922700  0.42274400  0.64422600  1
  N  868  1  0.99886100  0.37737800  0.68047500  1
  N  869  1  0.98672800  0.37289800  0.57443400  1
  N  870  1  0.93945200  0.36418100  0.61224300  1
  N  878  1  0.45142900  0.12214300  0.42404100  1
  N  885  1  0.51135600  0.07776600  0.32815500  1
  N  887  1  0.51100200  0.11048900  0.40335800  1
  N  888  1  0.49115700  0.13014200  0.35125800  1
  N  897  1  0.50918000  0.06442800  0.36003400  1
  N  898  1  0.49882500  0.10979200  0.32377300  1
  N  899  1  0.48673000  0.11430900  0.42979400  1
  N  900  1  0.43943700  0.12306800  0.39200700  1
  N  908  1  0.20140300  0.32162100  0.37990600  1
  N  915  1  0.26140900  0.41753800  0.33514000  1
  N  917  1  0.26084700  0.34232500  0.36772700  1
  N  918  1  0.24126200  0.39444300  0.38746800  1
  N  927  1  0.25898700  0.38561100  0.32176600  1
  N  928  1  0.24899100  0.42191600  0.36715200  1
  N  929  1  0.23661800  0.31589600  0.37176400  1
  N  930  1  0.18940000  0.35370200  0.38085600  1
  N  938  1  0.70138500  0.16554000  0.62430200  1
  N  945  1  0.76143900  0.06963300  0.66906900  1
  N  947  1  0.76083100  0.14485400  0.63650500  1
  N  948  1  0.74128400  0.09273900  0.61675300  1
  N  957  1  0.75894700  0.10153900  0.68247000  1
  N  958  1  0.74902500  0.06525800  0.63707600  1
  N  959  1  0.73657900  0.17127600  0.63245800  1
  N  960  1  0.68938700  0.13346000  0.62337600  1
  N  2504  1  0.05937280  0.47064800  0.04727340  1
  N  2511  1  0.12149700  0.52028900  0.95357900  1
  N  2513  1  0.11824900  0.48543000  0.02684040  1
  N  2514  1  0.09930380  0.46798600  0.97507000  1
  N  2523  1  0.11494700  0.53417200  0.98419800  1
  N  2524  1  0.10955300  0.48822700  0.94817100  1
  N  2525  1  0.09477580  0.47812200  0.05326540  1
  N  2526  1  0.04655380  0.47535600  0.01506240  1
  N  2534  1  0.55936500  0.23969300  0.20453800  1
  N  2541  1  0.62147400  0.19002200  0.29821300  1
  N  2543  1  0.61823400  0.22488600  0.22497800  1
  N  2544  1  0.59929700  0.24233300  0.27672700  1
  N  2553  1  0.61492400  0.17613800  0.26759100  1
  N  2554  1  0.60954100  0.22208300  0.30362400  1
  N  2555  1  0.59476600  0.23220800  0.19855000  1
  N  2556  1  0.54653600  0.23498900  0.23674700  1
  N  2564  1  0.30936900  0.43381900  0.24100000  1
  N  2571  1  0.37133600  0.52733800  0.29112200  1
  N  2573  1  0.36826000  0.45414800  0.25588900  1
  N  2574  1  0.34955100  0.50603000  0.23865700  1
  N  2583  1  0.36473700  0.49656200  0.30477900  1
  N  2584  1  0.35964400  0.53284500  0.25906800  1
  N  2585  1  0.34474400  0.42777700  0.24849100  1
  N  2586  1  0.29660000  0.46610600  0.24575700  1
  N  2594  1  0.80938000  0.27652800  0.01077040  1
  N  2601  1  0.87137400  0.18299600  0.96069600  1
  N  2603  1  0.86828000  0.25617800  0.99594800  1
  N  2604  1  0.84953400  0.20430700  0.01313940  1
  N  2613  1  0.86476000  0.21375000  0.94702100  1
  N  2614  1  0.85964800  0.17749200  0.99273800  1
  N  2615  1  0.84476200  0.28255800  0.00331940  1
  N  2616  1  0.79658800  0.24427200  0.00595740  1
  N  2624  1  0.63483600  0.23497600  0.04774340  1
  N  2631  1  0.57231400  0.18932100  0.95317800  1
  N  2633  1  0.57566200  0.22121800  0.02743140  1
  N  2634  1  0.59291200  0.24183500  0.97545000  1
  N  2643  1  0.57896100  0.17513800  0.98367400  1
  N  2644  1  0.58360100  0.22164500  0.94820300  1
  N  2645  1  0.59985500  0.22612300  0.05369040  1
  N  2646  1  0.64666600  0.23586800  0.01567340  1
  N  2654  1  0.13483900  0.47532400  0.20405800  1
  N  2661  1  0.07235780  0.52103100  0.29861300  1
  N  2663  1  0.07568280  0.48912700  0.22439400  1
  N  2664  1  0.09292280  0.46850200  0.27634900  1
  N  2673  1  0.07901180  0.53521200  0.26811400  1
  N  2674  1  0.08362380  0.48870300  0.30359300  1
  N  2675  1  0.09985980  0.48419900  0.19812500  1
  N  2676  1  0.14668400  0.47441900  0.23612300  1
  N  2684  1  0.38481900  0.27690200  0.24563800  1
  N  2691  1  0.32243800  0.18249500  0.29180900  1
  N  2693  1  0.32563400  0.25669000  0.25952600  1
  N  2694  1  0.34270200  0.20458400  0.23916300  1
  N  2703  1  0.32911700  0.21315400  0.30577300  1
  N  2704  1  0.33351700  0.17742000  0.25950800  1
  N  2705  1  0.34987200  0.28290100  0.25454000  1
  N  2706  1  0.39662700  0.24476300  0.24493900  1
  N  2714  1  0.88483500  0.43344600  0.00622540  1
  N  2721  1  0.82242200  0.52781800  0.96000000  1
  N  2723  1  0.82564700  0.45363200  0.99231300  1
  N  2724  1  0.84268900  0.50574900  0.01265240  1
  N  2733  1  0.82913000  0.49717500  0.94603600  1
  N  2734  1  0.83350400  0.53290300  0.99229700  1
  N  2735  1  0.84991000  0.42743300  0.99730700  1
  N  2736  1  0.89663900  0.46558400  0.00688540  1
  N  2744  1  0.13328100  0.73822900  0.20463100  1
  N  2751  1  0.06722280  0.69145000  0.29810000  1
  N  2753  1  0.07400480  0.72464100  0.22485300  1
  N  2754  1  0.09388480  0.74187500  0.27661900  1
  N  2763  1  0.07420380  0.67667800  0.26725900  1
  N  2764  1  0.08225180  0.72238800  0.30360700  1
  N  2765  1  0.09777380  0.73130300  0.19850500  1
  N  2766  1  0.14585200  0.73356100  0.23689800  1
  N  2774  1  0.63328200  0.97207600  0.04713940  1
  N  2781  1  0.56725700  0.01890720  0.95368800  1
  N  2783  1  0.57401500  0.98569500  0.02690840  1
  N  2784  1  0.59388500  0.96846300  0.97516000  1
  N  2793  1  0.57422700  0.03366920  0.98453600  1
  N  2794  1  0.58226100  0.98796400  0.94817600  1
  N  2795  1  0.59777800  0.97901800  0.05326140  1
  N  2796  1  0.64586300  0.97674200  0.01487440  1
  N  2804  1  0.88355700  0.77710000  0.01084240  1
  N  2811  1  0.82897400  0.68179700  0.95933600  1
  N  2813  1  0.82496800  0.75576700  0.99628600  1
  N  2814  1  0.84581200  0.70400700  0.01300740  1
  N  2823  1  0.82996900  0.71355500  0.94700300  1
  N  2824  1  0.83885100  0.67693100  0.99200900  1
  N  2825  1  0.84807100  0.78257300  0.00342240  1
  N  2826  1  0.89692300  0.74501000  0.00592040  1
  N  2834  1  0.38354900  0.93322000  0.24098300  1
  N  2841  1  0.32893500  0.02854420  0.29242500  1
  N  2843  1  0.32494800  0.95456900  0.25546600  1
  N  2844  1  0.34582200  0.00631924  0.23877700  1
  N  2853  1  0.32994300  0.99680700  0.30477800  1
  N  2854  1  0.33882800  0.03340320  0.25977200  1
  N  2855  1  0.34805500  0.92775400  0.24836200  1
  N  2856  1  0.39693100  0.96528100  0.24595800  1
  N  2864  1  0.55832700  0.97662400  0.20418200  1
  N  2871  1  0.62452700  0.01986020  0.29840600  1
  N  2873  1  0.61786000  0.98938300  0.22424300  1
  N  2874  1  0.59980500  0.96891100  0.27627500  1
  N  2883  1  0.61739900  0.03477420  0.26763000  1
  N  2884  1  0.61034400  0.98853300  0.30356200  1
  N  2885  1  0.59340200  0.98503200  0.19809800  1
  N  2886  1  0.54672900  0.97546900  0.23631400  1
  N  2894  1  0.05833280  0.73374600  0.04759940  1
  N  2901  1  0.12447700  0.69044100  0.95338200  1
  N  2903  1  0.11784700  0.72093500  0.02751240  1
  N  2904  1  0.09980180  0.74141300  0.97550300  1
  N  2913  1  0.11735300  0.67553600  0.98416500  1
  N  2914  1  0.11032600  0.72177500  0.94821900  1
  N  2915  1  0.09340680  0.72531000  0.05366940  1
  N  2916  1  0.04671980  0.73491200  0.01547140  1
  N  2924  1  0.80795900  0.93302500  0.00615940  1
  N  2931  1  0.86313200  0.02904320  0.95865500  1
  N  2933  1  0.86696900  0.95400000  0.99266200  1
  N  2934  1  0.84806800  0.00610424  0.01248740  1
  N  2943  1  0.86200200  0.99740400  0.94593200  1
  N  2944  1  0.85408000  0.03347220  0.99159100  1
  N  2945  1  0.84303500  0.92745900  0.99740300  1
  N  2946  1  0.79569400  0.96503700  0.00675640  1
  N  2954  1  0.30794600  0.77728000  0.24558000  1
  N  2961  1  0.36315800  0.68128500  0.29310700  1
  N  2963  1  0.36696400  0.75633300  0.25909000  1
  N  2964  1  0.34809100  0.70421900  0.23927700  1
  N  2973  1  0.36199800  0.71290700  0.30583900  1
  N  2974  1  0.35411400  0.67685300  0.26018500  1
  N  2975  1  0.34300300  0.78286200  0.25434600  1
  N  2976  1  0.29568800  0.74527100  0.24501500  1
  N  2984  1  0.55932000  0.97153900  0.54780000  1
  N  2991  1  0.61399500  0.02266320  0.45250500  1
  N  2993  1  0.61800500  0.98583000  0.52652800  1
  N  2994  1  0.59714700  0.96897600  0.47482400  1
  N  3003  1  0.61297900  0.03507220  0.48421100  1
  N  3004  1  0.60418800  0.98991000  0.44770300  1
  N  3005  1  0.59484200  0.97883000  0.55330500  1
  N  3006  1  0.54603400  0.97634800  0.51572600  1
  N  3014  1  0.05930480  0.73880800  0.70400400  1
  N  3021  1  0.11397500  0.68765800  0.79928400  1
  N  3023  1  0.11798300  0.72449000  0.72528500  1
  N  3024  1  0.09713280  0.74135300  0.77696100  1
  N  3033  1  0.11294600  0.67524100  0.76757800  1
  N  3034  1  0.10416200  0.72041200  0.80408200  1
  N  3035  1  0.09482580  0.73150400  0.69850400  1
  N  3036  1  0.04600780  0.73400200  0.73607600  1
  N  3044  1  0.80943300  0.93384600  0.74333900  1
  N  3051  1  0.87548600  0.02737420  0.79011500  1
  N  3053  1  0.86871300  0.95411400  0.75688000  1
  N  3054  1  0.84907000  0.00587224  0.73963900  1
  N  3063  1  0.86836200  0.99651500  0.80484700  1
  N  3064  1  0.86077600  0.03285520  0.75909700  1
  N  3065  1  0.84495300  0.92775300  0.75020000  1
  N  3066  1  0.79686000  0.96618300  0.74795200  1
  N  3074  1  0.30944400  0.77650600  0.50843100  1
  N  3081  1  0.37548700  0.68295100  0.46169200  1
  N  3083  1  0.36872100  0.75621000  0.49493300  1
  N  3084  1  0.34905600  0.70447000  0.51215500  1
  N  3093  1  0.36833800  0.71379500  0.44694000  1
  N  3094  1  0.36076900  0.67748300  0.49270900  1
  N  3095  1  0.34496800  0.78258200  0.50159800  1
  N  3096  1  0.29684400  0.74419200  0.50377700  1
  N  3104  1  0.13481700  0.73457600  0.54811500  1
  N  3111  1  0.08000380  0.68700200  0.45212400  1
  N  3113  1  0.07585680  0.72083100  0.52719600  1
  N  3114  1  0.09460880  0.74097100  0.47514700  1
  N  3123  1  0.08117980  0.67423200  0.48372200  1
  N  3124  1  0.08872780  0.72007600  0.44774500  1
  N  3125  1  0.09979880  0.72560500  0.55370500  1
  N  3126  1  0.14699800  0.73547300  0.51613300  1
  N  3134  1  0.63482400  0.97571400  0.70367900  1
  N  3141  1  0.58004600  0.02333620  0.79966400  1
  N  3143  1  0.57588500  0.98950800  0.72462300  1
  N  3144  1  0.59462500  0.96935200  0.77664100  1
  N  3153  1  0.58124100  0.03611120  0.76806500  1
  N  3154  1  0.58876300  0.99025800  0.80404100  1
  N  3155  1  0.59980900  0.98470900  0.69810300  1
  N  3156  1  0.64702200  0.97480400  0.73565600  1
  N  3164  1  0.88468800  0.77666300  0.74772800  1
  N  3171  1  0.81828900  0.68258300  0.79116900  1
  N  3173  1  0.82511600  0.75678300  0.76063200  1
  N  3174  1  0.84276100  0.70469400  0.74015800  1
  N  3183  1  0.82560200  0.71337800  0.80602400  1
  N  3184  1  0.83212200  0.67743200  0.75976100  1
  N  3185  1  0.84965500  0.78285400  0.75619500  1
  N  3186  1  0.89619500  0.74443600  0.74667800  1
  N  3194  1  0.38471100  0.93368200  0.50412600  1
  N  3201  1  0.31829400  0.02773820  0.46063600  1
  N  3203  1  0.32514000  0.95354200  0.49118600  1
  N  3204  1  0.34274900  0.00563124  0.51165600  1
  N  3213  1  0.32565300  0.99695500  0.44577400  1
  N  3214  1  0.33211600  0.03289220  0.49204800  1
  N  3215  1  0.34969800  0.92748000  0.49563800  1
  N  3216  1  0.39621500  0.96590600  0.50514200  1
  N  3224  1  0.63335300  0.23857400  0.70424200  1
  N  3231  1  0.57395000  0.19020600  0.79951200  1
  N  3233  1  0.57420400  0.22568200  0.72525900  1
  N  3234  1  0.59595200  0.24221900  0.77703400  1
  N  3243  1  0.57602100  0.17715400  0.76755300  1
  N  3244  1  0.58729300  0.22189700  0.80427100  1
  N  3245  1  0.59769800  0.23193500  0.69853800  1
  N  3246  1  0.64633500  0.23371300  0.73638300  1
  N  3254  1  0.13335900  0.47171800  0.54754100  1
  N  3261  1  0.07400780  0.52015200  0.45229200  1
  N  3263  1  0.07421980  0.48464200  0.52651500  1
  N  3264  1  0.09596280  0.46810800  0.47475600  1
  N  3273  1  0.07604580  0.53318600  0.48426100  1
  N  3274  1  0.08732480  0.48845000  0.44752900  1
  N  3275  1  0.09770680  0.47837500  0.55324100  1
  N  3276  1  0.14635300  0.47657800  0.51540400  1
  N  3284  1  0.38345700  0.27676200  0.50828300  1
  N  3291  1  0.32348500  0.18167600  0.45975700  1
  N  3293  1  0.32431200  0.25588600  0.49514000  1
  N  3294  1  0.34572100  0.20405400  0.51166600  1
  N  3303  1  0.32582900  0.21367500  0.44667000  1
  N  3304  1  0.33685800  0.17687700  0.49137900  1
  N  3305  1  0.34785600  0.28253100  0.50152100  1
  N  3306  1  0.39637600  0.24454000  0.50349600  1
  N  3314  1  0.88345000  0.43355500  0.74355200  1
  N  3321  1  0.82345300  0.52867600  0.79200200  1
  N  3323  1  0.82430300  0.45445500  0.75664600  1
  N  3324  1  0.84573000  0.50626800  0.74012400  1
  N  3333  1  0.82584400  0.49669900  0.80512600  1
  N  3334  1  0.83683800  0.53346100  0.76040500  1
  N  3335  1  0.84784200  0.42779800  0.75028500  1
  N  3336  1  0.89638700  0.46575600  0.74837500  1
  N  3344  1  0.05822780  0.47666900  0.70397700  1
  N  3351  1  0.11822700  0.52096400  0.79987100  1
  N  3353  1  0.11782200  0.48826800  0.72463400  1
  N  3354  1  0.09797180  0.46862000  0.77675700  1
  N  3363  1  0.11603000  0.53431700  0.76800100  1
  N  3364  1  0.10566400  0.48895100  0.80425000  1
  N  3365  1  0.09353080  0.48447100  0.69820900  1
  N  3366  1  0.04625480  0.47575400  0.73601800  1
  N  3374  1  0.55823200  0.23371600  0.54781600  1
  N  3381  1  0.61815900  0.18933900  0.45193000  1
  N  3383  1  0.61780500  0.22206200  0.52713300  1
  N  3384  1  0.59796000  0.24171500  0.47503300  1
  N  3393  1  0.61598300  0.17600100  0.48380900  1
  N  3394  1  0.60562800  0.22136500  0.44754800  1
  N  3395  1  0.59353300  0.22588200  0.55356900  1
  N  3396  1  0.54624000  0.23464100  0.51578200  1
  N  3404  1  0.30820600  0.43319400  0.50368100  1
  N  3411  1  0.36821200  0.52911100  0.45891500  1
  N  3413  1  0.36765000  0.45389800  0.49150200  1
  N  3414  1  0.34806500  0.50601600  0.51124300  1
  N  3423  1  0.36579000  0.49718400  0.44554100  1
  N  3424  1  0.35579400  0.53348900  0.49092700  1
  N  3425  1  0.34342100  0.42746900  0.49553900  1
  N  3426  1  0.29620300  0.46527500  0.50463100  1
  N  3434  1  0.80818800  0.27711300  0.74807700  1
  N  3441  1  0.86824200  0.18120600  0.79284400  1
  N  3443  1  0.86763400  0.25642700  0.76028000  1
  N  3444  1  0.84808700  0.20431200  0.74052800  1
  N  3453  1  0.86575000  0.21311200  0.80624500  1
  N  3454  1  0.85582800  0.17683100  0.76085100  1
  N  3455  1  0.84338200  0.28284900  0.75623300  1
  N  3456  1  0.79619000  0.24503300  0.74715100  1
