# generated using pymatgen
data_H14C23N
_symmetry_space_group_name_H-M   'P 1'
_cell_length_a   30.43110000
_cell_length_b   38.79020000
_cell_length_c   65.93530000
_cell_angle_alpha   90.21400000
_cell_angle_beta   89.99910000
_cell_angle_gamma   90.23180000
_symmetry_Int_Tables_number   1
_chemical_formula_structural   H14C23N
_chemical_formula_sum   'H336 C552 N24'
_cell_volume   77830.72448603
_cell_formula_units_Z   24
loop_
 _symmetry_equiv_pos_site_id
 _symmetry_equiv_pos_as_xyz
  1  'x, y, z'
loop_
 _atom_site_type_symbol
 _atom_site_label
 _atom_site_symmetry_multiplicity
 _atom_site_fract_x
 _atom_site_fract_y
 _atom_site_fract_z
 _atom_site_occupancy
  H  25  1  0.98667500  0.93319200  0.71614400  1
  H  26  1  0.04740100  0.89633500  0.71336100  1
  H  27  1  0.06713800  0.01769100  0.69991000  1
  H  28  1  0.12891100  0.98167300  0.70008100  1
  H  29  1  0.20379500  0.92660900  0.65102100  1
  H  30  1  0.26568200  0.94597700  0.63216400  1
  H  31  1  0.28859300  0.88740900  0.69601500  1
  H  32  1  0.35030800  0.90483100  0.67661100  1
  H  33  1  0.23815800  0.81474700  0.72335500  1
  H  34  1  0.23791700  0.76105200  0.73893700  1
  H  35  1  0.10092300  0.76914100  0.74822700  1
  H  36  1  0.10027100  0.81982800  0.72946400  1
  H  37  1  0.11294600  0.87716500  0.72734900  1
  H  38  1  0.16649000  0.94057900  0.68240200  1
  H  39  1  0.22574400  0.84657500  0.69555400  1
  H  64  1  0.01379300  0.43374100  0.78553000  1
  H  65  1  0.95284500  0.39679500  0.78828900  1
  H  66  1  0.93386000  0.51826600  0.80173800  1
  H  67  1  0.87183900  0.48211400  0.80150500  1
  H  68  1  0.79610100  0.42742700  0.85036700  1
  H  69  1  0.73416300  0.44682100  0.86911700  1
  H  70  1  0.71149100  0.38739800  0.80521400  1
  H  71  1  0.64968400  0.40489500  0.82450800  1
  H  72  1  0.76231300  0.31397400  0.77821700  1
  H  73  1  0.76288600  0.25997500  0.76276500  1
  H  74  1  0.89996600  0.26897200  0.75379600  1
  H  75  1  0.90026200  0.32001200  0.77244300  1
  H  76  1  0.88741300  0.37724100  0.77427600  1
  H  77  1  0.83366300  0.44118100  0.81901600  1
  H  78  1  0.77424300  0.34667900  0.80589100  1
  H  103  1  0.98702200  0.54933600  0.78566500  1
  H  104  1  0.04798100  0.58629200  0.78854200  1
  H  105  1  0.06689500  0.46489100  0.80171100  1
  H  106  1  0.12892400  0.50102900  0.80160000  1
  H  107  1  0.20441300  0.55597700  0.85063900  1
  H  108  1  0.26617800  0.53641000  0.86935200  1
  H  109  1  0.28936000  0.59561100  0.80567700  1
  H  110  1  0.35101100  0.57795900  0.82494900  1
  H  111  1  0.23862400  0.66894300  0.77866700  1
  H  112  1  0.23809200  0.72276400  0.76321700  1
  H  113  1  0.10101200  0.71369900  0.75423700  1
  H  114  1  0.10068100  0.66289200  0.77286700  1
  H  115  1  0.11350000  0.60568900  0.77458400  1
  H  116  1  0.16700600  0.54207900  0.81925700  1
  H  117  1  0.22667100  0.63639800  0.80628900  1
  H  142  1  0.01421500  0.04882800  0.71606100  1
  H  143  1  0.95351800  0.08564200  0.71317100  1
  H  144  1  0.93379600  0.96405900  0.69989700  1
  H  145  1  0.87202500  0.00009100  0.69996700  1
  H  146  1  0.79699000  0.05437100  0.65083800  1
  H  147  1  0.73500900  0.03478100  0.63203500  1
  H  148  1  0.71238800  0.09430700  0.69586200  1
  H  149  1  0.65058400  0.07664000  0.67651600  1
  H  150  1  0.76283600  0.16745000  0.72298300  1
  H  151  1  0.76308800  0.22139500  0.73849100  1
  H  152  1  0.90007100  0.21342700  0.74782300  1
  H  153  1  0.90071800  0.16243400  0.72911800  1
  H  154  1  0.88799400  0.10505700  0.72709300  1
  H  155  1  0.83439900  0.04088300  0.68225000  1
  H  156  1  0.77523500  0.13515000  0.69524300  1
  H  181  1  0.01374100  0.04678400  0.28499300  1
  H  182  1  0.95301100  0.08364200  0.28778000  1
  H  183  1  0.93328100  0.96228000  0.30122800  1
  H  184  1  0.87150900  0.99829400  0.30105500  1
  H  185  1  0.79689900  0.05329100  0.35016100  1
  H  186  1  0.73519000  0.03358200  0.36900200  1
  H  187  1  0.71178700  0.09239200  0.30526400  1
  H  188  1  0.65020900  0.07464200  0.32466800  1
  H  189  1  0.76219400  0.16521500  0.27785100  1
  H  190  1  0.76242100  0.21890700  0.26225700  1
  H  191  1  0.89941400  0.21083000  0.25296800  1
  H  192  1  0.90007900  0.16015500  0.27173300  1
  H  193  1  0.88742100  0.10282200  0.27381800  1
  H  194  1  0.83402000  0.03937000  0.31877200  1
  H  195  1  0.77459800  0.13332000  0.30563700  1
  H  220  1  0.98661800  0.54623200  0.21573800  1
  H  221  1  0.04756500  0.58318000  0.21297200  1
  H  222  1  0.06655200  0.46170200  0.19953000  1
  H  223  1  0.12856600  0.49785000  0.19976200  1
  H  224  1  0.20401100  0.55246800  0.15085000  1
  H  225  1  0.26576200  0.53272800  0.13211200  1
  H  226  1  0.28895500  0.59241200  0.19589400  1
  H  227  1  0.35061600  0.57458500  0.17659400  1
  H  228  1  0.23815600  0.66598800  0.22297000  1
  H  229  1  0.23759500  0.71999200  0.23842900  1
  H  230  1  0.10051600  0.71100000  0.24740300  1
  H  231  1  0.10020800  0.65996800  0.22875600  1
  H  232  1  0.11304200  0.60274400  0.22695400  1
  H  233  1  0.16664900  0.53876300  0.18220700  1
  H  234  1  0.22622800  0.63321900  0.19530900  1
  H  259  1  0.01339600  0.43062600  0.21559200  1
  H  260  1  0.95243100  0.39367300  0.21271300  1
  H  261  1  0.93351500  0.51508200  0.19956400  1
  H  262  1  0.87149100  0.47894800  0.19968000  1
  H  263  1  0.79629800  0.42407000  0.15058500  1
  H  264  1  0.73472600  0.44397300  0.13188100  1
  H  265  1  0.71100600  0.38454200  0.19544000  1
  H  266  1  0.64950800  0.40251300  0.17615900  1
  H  267  1  0.76172300  0.31103500  0.22252000  1
  H  268  1  0.76224400  0.25721100  0.23797600  1
  H  269  1  0.89932500  0.26625800  0.24695100  1
  H  270  1  0.89966900  0.31706200  0.22832400  1
  H  271  1  0.88687200  0.37425600  0.22664700  1
  H  272  1  0.83350500  0.43792700  0.18197800  1
  H  273  1  0.77367500  0.34365500  0.19491100  1
  H  298  1  0.98619800  0.93114100  0.28508300  1
  H  299  1  0.04690200  0.89432700  0.28797300  1
  H  300  1  0.06662200  0.01592300  0.30122500  1
  H  301  1  0.12839000  0.97989500  0.30115000  1
  H  302  1  0.20313100  0.92568500  0.35032900  1
  H  303  1  0.26493300  0.94560600  0.36912200  1
  H  304  1  0.28806600  0.88581300  0.30542100  1
  H  305  1  0.34972800  0.90380000  0.32477400  1
  H  306  1  0.23763500  0.81252300  0.27822600  1
  H  307  1  0.23739200  0.75857100  0.26271700  1
  H  308  1  0.10041300  0.76653900  0.25337300  1
  H  309  1  0.09975400  0.81753100  0.27207300  1
  H  310  1  0.11245800  0.87489200  0.27406900  1
  H  311  1  0.16592500  0.93912100  0.31891000  1
  H  312  1  0.22522900  0.84489200  0.30595200  1
  H  337  1  0.67150300  0.05479700  0.61179300  1
  H  338  1  0.60978800  0.03356900  0.59355900  1
  H  339  1  0.61290200  0.02305900  0.66672100  1
  H  340  1  0.55071600  0.00273100  0.64864700  1
  H  341  1  0.44998400  0.97844500  0.64866700  1
  H  342  1  0.38790100  0.95826100  0.66677700  1
  H  343  1  0.39075400  0.94695600  0.59360700  1
  H  344  1  0.32913900  0.92586400  0.61187900  1
  H  345  1  0.44955600  0.95276400  0.55133800  1
  H  346  1  0.45020000  0.95212100  0.51538800  1
  H  347  1  0.55019900  0.02796500  0.51545800  1
  H  348  1  0.55084700  0.02758100  0.55140500  1
  H  373  1  0.32990400  0.55618600  0.88964800  1
  H  374  1  0.39121700  0.53467000  0.90779300  1
  H  375  1  0.38811200  0.52441700  0.83457400  1
  H  376  1  0.44992200  0.50380300  0.85256900  1
  H  377  1  0.55021600  0.47861600  0.85246700  1
  H  378  1  0.61222900  0.45836600  0.83437000  1
  H  379  1  0.60901600  0.44767500  0.90752100  1
  H  380  1  0.67052500  0.42654300  0.88927500  1
  H  381  1  0.55015600  0.45299100  0.94957800  1
  H  382  1  0.54963200  0.45212400  0.98551700  1
  H  383  1  0.45063600  0.52813400  0.98602400  1
  H  384  1  0.44985300  0.52798500  0.95007000  1
  H  409  1  0.32843000  0.92608700  0.38944600  1
  H  410  1  0.38999500  0.94756800  0.40767000  1
  H  411  1  0.38714100  0.95750900  0.33447700  1
  H  412  1  0.44921300  0.97808200  0.35255300  1
  H  413  1  0.55091200  0.00065600  0.35253300  1
  H  414  1  0.61287900  0.02108400  0.33441800  1
  H  415  1  0.61028200  0.03184500  0.40761700  1
  H  416  1  0.67174100  0.05319000  0.38935400  1
  H  417  1  0.56933500  0.99496300  0.44986100  1
  H  418  1  0.56939500  0.99437100  0.48580200  1
  H  419  1  0.43100400  0.98551500  0.48580000  1
  H  420  1  0.43105200  0.98468200  0.44986000  1
  H  445  1  0.67101500  0.42472300  0.11151400  1
  H  446  1  0.60986100  0.44649700  0.09337600  1
  H  447  1  0.61269100  0.45619200  0.16662300  1
  H  448  1  0.55100300  0.47705100  0.14862400  1
  H  449  1  0.44970500  0.50050600  0.14872000  1
  H  450  1  0.38780500  0.52099600  0.16682000  1
  H  451  1  0.39073900  0.53110700  0.09363700  1
  H  452  1  0.32938600  0.55248900  0.11187600  1
  H  453  1  0.43128900  0.49467700  0.05141100  1
  H  454  1  0.43112000  0.49436500  0.01547200  1
  H  455  1  0.56938800  0.48525900  0.01532600  1
  H  456  1  0.56943200  0.48414800  0.05126800  1
  H  481  1  0.98667500  0.80429300  0.57964700  1
  H  482  1  0.04740100  0.76743600  0.57686400  1
  H  483  1  0.06713800  0.88879200  0.56341300  1
  H  484  1  0.12891100  0.85277400  0.56358400  1
  H  485  1  0.20379500  0.79771000  0.51452400  1
  H  486  1  0.26568200  0.81707800  0.49566700  1
  H  487  1  0.28859300  0.75851000  0.55951800  1
  H  488  1  0.35030800  0.77593200  0.54011400  1
  H  489  1  0.23815800  0.68584800  0.58685800  1
  H  490  1  0.23791700  0.63215300  0.60244000  1
  H  491  1  0.10092300  0.64024200  0.61173000  1
  H  492  1  0.10027100  0.69092900  0.59296700  1
  H  493  1  0.11294600  0.74826600  0.59085200  1
  H  494  1  0.16649000  0.81168000  0.54590500  1
  H  495  1  0.22574400  0.71767600  0.55905700  1
  H  520  1  0.01379300  0.30484200  0.64903300  1
  H  521  1  0.95284500  0.26789600  0.65179200  1
  H  522  1  0.93386000  0.38936700  0.66524100  1
  H  523  1  0.87183900  0.35321500  0.66500800  1
  H  524  1  0.79610100  0.29852800  0.71387000  1
  H  525  1  0.73416300  0.31792200  0.73262000  1
  H  526  1  0.71149100  0.25849900  0.66871700  1
  H  527  1  0.64968400  0.27599600  0.68801100  1
  H  528  1  0.76231300  0.18507500  0.64172000  1
  H  529  1  0.76288600  0.13107600  0.62626800  1
  H  530  1  0.89996600  0.14007300  0.61729900  1
  H  531  1  0.90026200  0.19111300  0.63594600  1
  H  532  1  0.88741300  0.24834200  0.63777900  1
  H  533  1  0.83366300  0.31228200  0.68251900  1
  H  534  1  0.77424300  0.21778000  0.66939400  1
  H  559  1  0.98702200  0.42043700  0.64916800  1
  H  560  1  0.04798100  0.45739300  0.65204500  1
  H  561  1  0.06689500  0.33599200  0.66521400  1
  H  562  1  0.12892400  0.37213000  0.66510300  1
  H  563  1  0.20441300  0.42707800  0.71414200  1
  H  564  1  0.26617800  0.40751100  0.73285500  1
  H  565  1  0.28936000  0.46671200  0.66918000  1
  H  566  1  0.35101100  0.44906000  0.68845200  1
  H  567  1  0.23862400  0.54004400  0.64217000  1
  H  568  1  0.23809200  0.59386500  0.62672000  1
  H  569  1  0.10101200  0.58480000  0.61774000  1
  H  570  1  0.10068100  0.53399300  0.63637000  1
  H  571  1  0.11350000  0.47679000  0.63808700  1
  H  572  1  0.16700600  0.41318000  0.68276000  1
  H  573  1  0.22667100  0.50749900  0.66979200  1
  H  598  1  0.01421500  0.91992950  0.57956400  1
  H  599  1  0.95351800  0.95674350  0.57667400  1
  H  600  1  0.93379600  0.83516000  0.56340000  1
  H  601  1  0.87202500  0.87119200  0.56347000  1
  H  602  1  0.79699000  0.92547250  0.51434100  1
  H  603  1  0.73500900  0.90588250  0.49553800  1
  H  604  1  0.71238800  0.96540850  0.55936500  1
  H  605  1  0.65058400  0.94774150  0.54001900  1
  H  606  1  0.76283600  0.03855100  0.58648600  1
  H  607  1  0.76308800  0.09249600  0.60199400  1
  H  608  1  0.90007100  0.08452800  0.61132600  1
  H  609  1  0.90071800  0.03353500  0.59262100  1
  H  610  1  0.88799400  0.97615850  0.59059600  1
  H  611  1  0.83439900  0.91198450  0.54575300  1
  H  612  1  0.77523500  0.00625100  0.55874600  1
  H  637  1  0.01374100  0.91788550  0.14849600  1
  H  638  1  0.95301100  0.95474350  0.15128300  1
  H  639  1  0.93328100  0.83338100  0.16473100  1
  H  640  1  0.87150900  0.86939500  0.16455800  1
  H  641  1  0.79689900  0.92439250  0.21366400  1
  H  642  1  0.73519000  0.90468350  0.23250500  1
  H  643  1  0.71178700  0.96349350  0.16876700  1
  H  644  1  0.65020900  0.94574350  0.18817100  1
  H  645  1  0.76219400  0.03631600  0.14135400  1
  H  646  1  0.76242100  0.09000800  0.12576000  1
  H  647  1  0.89941400  0.08193100  0.11647100  1
  H  648  1  0.90007900  0.03125600  0.13523600  1
  H  649  1  0.88742100  0.97392350  0.13732100  1
  H  650  1  0.83402000  0.91047150  0.18227500  1
  H  651  1  0.77459800  0.00442100  0.16914000  1
  H  676  1  0.98661800  0.41733300  0.07924100  1
  H  677  1  0.04756500  0.45428100  0.07647500  1
  H  678  1  0.06655200  0.33280300  0.06303300  1
  H  679  1  0.12856600  0.36895100  0.06326500  1
  H  680  1  0.20401100  0.42356900  0.01435300  1
  H  681  1  0.26576200  0.40382900  0.99561455  1
  H  682  1  0.28895500  0.46351300  0.05939700  1
  H  683  1  0.35061600  0.44568600  0.04009700  1
  H  684  1  0.23815600  0.53708900  0.08647300  1
  H  685  1  0.23759500  0.59109300  0.10193200  1
  H  686  1  0.10051600  0.58210100  0.11090600  1
  H  687  1  0.10020800  0.53106900  0.09225900  1
  H  688  1  0.11304200  0.47384500  0.09045700  1
  H  689  1  0.16664900  0.40986400  0.04571000  1
  H  690  1  0.22622800  0.50432000  0.05881200  1
  H  715  1  0.01339600  0.30172700  0.07909500  1
  H  716  1  0.95243100  0.26477400  0.07621600  1
  H  717  1  0.93351500  0.38618300  0.06306700  1
  H  718  1  0.87149100  0.35004900  0.06318300  1
  H  719  1  0.79629800  0.29517100  0.01408800  1
  H  720  1  0.73472600  0.31507400  0.99538355  1
  H  721  1  0.71100600  0.25564300  0.05894300  1
  H  722  1  0.64950800  0.27361400  0.03966200  1
  H  723  1  0.76172300  0.18213600  0.08602300  1
  H  724  1  0.76224400  0.12831200  0.10147900  1
  H  725  1  0.89932500  0.13735900  0.11045400  1
  H  726  1  0.89966900  0.18816300  0.09182700  1
  H  727  1  0.88687200  0.24535700  0.09015000  1
  H  728  1  0.83350500  0.30902800  0.04548100  1
  H  729  1  0.77367500  0.21475600  0.05841400  1
  H  754  1  0.98619800  0.80224200  0.14858600  1
  H  755  1  0.04690200  0.76542800  0.15147600  1
  H  756  1  0.06662200  0.88702400  0.16472800  1
  H  757  1  0.12839000  0.85099600  0.16465300  1
  H  758  1  0.20313100  0.79678600  0.21383200  1
  H  759  1  0.26493300  0.81670700  0.23262500  1
  H  760  1  0.28806600  0.75691400  0.16892400  1
  H  761  1  0.34972800  0.77490100  0.18827700  1
  H  762  1  0.23763500  0.68362400  0.14172900  1
  H  763  1  0.23739200  0.62967200  0.12622000  1
  H  764  1  0.10041300  0.63764000  0.11687600  1
  H  765  1  0.09975400  0.68863200  0.13557600  1
  H  766  1  0.11245800  0.74599300  0.13757200  1
  H  767  1  0.16592500  0.81022200  0.18241300  1
  H  768  1  0.22522900  0.71599300  0.16945500  1
  H  793  1  0.67150300  0.92589850  0.47529600  1
  H  794  1  0.60978800  0.90467050  0.45706200  1
  H  795  1  0.61290200  0.89416000  0.53022400  1
  H  796  1  0.55071600  0.87383200  0.51215000  1
  H  797  1  0.44998400  0.84954600  0.51217000  1
  H  798  1  0.38790100  0.82936200  0.53028000  1
  H  799  1  0.39075400  0.81805700  0.45711000  1
  H  800  1  0.32913900  0.79696500  0.47538200  1
  H  801  1  0.44955600  0.82386500  0.41484100  1
  H  802  1  0.45020000  0.82322200  0.37889100  1
  H  803  1  0.55019900  0.89906600  0.37896100  1
  H  804  1  0.55084700  0.89868200  0.41490800  1
  H  829  1  0.32990400  0.42728700  0.75315100  1
  H  830  1  0.39121700  0.40577100  0.77129600  1
  H  831  1  0.38811200  0.39551800  0.69807700  1
  H  832  1  0.44992200  0.37490400  0.71607200  1
  H  833  1  0.55021600  0.34971700  0.71597000  1
  H  834  1  0.61222900  0.32946700  0.69787300  1
  H  835  1  0.60901600  0.31877600  0.77102400  1
  H  836  1  0.67052500  0.29764400  0.75277800  1
  H  837  1  0.55015600  0.32409200  0.81308100  1
  H  838  1  0.54963200  0.32322500  0.84902000  1
  H  839  1  0.45063600  0.39923500  0.84952700  1
  H  840  1  0.44985300  0.39908600  0.81357300  1
  H  865  1  0.32843000  0.79718800  0.25294900  1
  H  866  1  0.38999500  0.81866900  0.27117300  1
  H  867  1  0.38714100  0.82861000  0.19798000  1
  H  868  1  0.44921300  0.84918300  0.21605600  1
  H  869  1  0.55091200  0.87175700  0.21603600  1
  H  870  1  0.61287900  0.89218500  0.19792100  1
  H  871  1  0.61028200  0.90294650  0.27112000  1
  H  872  1  0.67174100  0.92429150  0.25285700  1
  H  873  1  0.56933500  0.86606400  0.31336400  1
  H  874  1  0.56939500  0.86547200  0.34930500  1
  H  875  1  0.43100400  0.85661600  0.34930300  1
  H  876  1  0.43105200  0.85578300  0.31336300  1
  H  901  1  0.67101500  0.29582400  0.97501660  1
  H  902  1  0.60986100  0.31759800  0.95687860  1
  H  903  1  0.61269100  0.32729300  0.03012600  1
  H  904  1  0.55100300  0.34815200  0.01212700  1
  H  905  1  0.44970500  0.37160700  0.01222300  1
  H  906  1  0.38780500  0.39209700  0.03032300  1
  H  907  1  0.39073900  0.40220800  0.95713960  1
  H  908  1  0.32938600  0.42359000  0.97537860  1
  H  909  1  0.43128900  0.36577800  0.91491360  1
  H  910  1  0.43112000  0.36546600  0.87897500  1
  H  911  1  0.56938800  0.35636000  0.87882900  1
  H  912  1  0.56943200  0.35524900  0.91477060  1
  C  1  1  0.13244900  0.91172100  0.70457600  1
  C  2  1  0.13550100  0.88103000  0.71612500  1
  C  3  1  0.16885600  0.85600600  0.71317700  1
  C  4  1  0.20178000  0.86415500  0.69871400  1
  C  5  1  0.20267000  0.89561700  0.68794100  1
  C  6  1  0.16697600  0.91839500  0.69068600  1
  C  7  1  0.16918400  0.82379600  0.72424900  1
  C  8  1  0.13011800  0.80857900  0.73186000  1
  C  9  1  0.13041200  0.77732500  0.74265500  1
  C  10  1  0.16943500  0.75808500  0.74584000  1
  C  11  1  0.20836100  0.77319800  0.73787700  1
  C  12  1  0.20840600  0.80520900  0.72787800  1
  C  13  1  0.09541600  0.93469400  0.70656800  1
  C  14  1  0.05278400  0.92209500  0.71119400  1
  C  15  1  0.01613500  0.94406000  0.71228400  1
  C  16  1  0.01947900  0.97982800  0.70813600  1
  C  17  1  0.06217800  0.99239900  0.70355100  1
  C  18  1  0.09908500  0.97063500  0.70311300  1
  C  19  1  0.23956800  0.90479800  0.67547900  1
  C  20  1  0.23447400  0.92187100  0.65668300  1
  C  21  1  0.27116300  0.93288500  0.64536100  1
  C  22  1  0.31458100  0.92739700  0.65235500  1
  C  23  1  0.31965700  0.90982900  0.67098600  1
  C  24  1  0.28302000  0.89886500  0.68230100  1
  C  40  1  0.86784300  0.41208800  0.79696500  1
  C  41  1  0.86478900  0.38119000  0.78545800  1
  C  42  1  0.83139100  0.35603200  0.78840500  1
  C  43  1  0.79829600  0.36430700  0.80275400  1
  C  44  1  0.79738200  0.39597000  0.81345800  1
  C  45  1  0.83318700  0.41885500  0.81076300  1
  C  46  1  0.83126300  0.32357200  0.77744700  1
  C  47  1  0.87046700  0.30849100  0.76999600  1
  C  48  1  0.87039000  0.27702900  0.75927500  1
  C  49  1  0.83145100  0.25743800  0.75602200  1
  C  50  1  0.79239300  0.27238000  0.76386700  1
  C  51  1  0.79213900  0.30458700  0.77378500  1
  C  52  1  0.90503600  0.43513000  0.79503000  1
  C  53  1  0.94760900  0.42256700  0.79044700  1
  C  54  1  0.98440200  0.44459700  0.78937800  1
  C  55  1  0.98128700  0.48040800  0.79352900  1
  C  56  1  0.93865900  0.49293900  0.79809100  1
  C  57  1  0.90160000  0.47110400  0.79849500  1
  C  58  1  0.76042100  0.40519400  0.82584700  1
  C  59  1  0.76544600  0.42252600  0.84464900  1
  C  60  1  0.72872200  0.43357300  0.85590100  1
  C  61  1  0.68533200  0.42784200  0.84883600  1
  C  62  1  0.68031800  0.41005400  0.83018500  1
  C  63  1  0.71699600  0.39906600  0.81893300  1
  C  79  1  0.13295800  0.57101900  0.79722800  1
  C  80  1  0.13608300  0.60182100  0.78577700  1
  C  81  1  0.16951300  0.62697500  0.78877900  1
  C  82  1  0.20257900  0.61877700  0.80312600  1
  C  83  1  0.20338700  0.58720900  0.81379900  1
  C  84  1  0.16755000  0.56434000  0.81104400  1
  C  85  1  0.16967900  0.65934500  0.77786500  1
  C  86  1  0.13048800  0.67436100  0.77042100  1
  C  87  1  0.13058300  0.70570200  0.75971600  1
  C  88  1  0.16953500  0.72523800  0.75646400  1
  C  89  1  0.20857800  0.71037600  0.76431300  1
  C  90  1  0.20881100  0.67828500  0.77422700  1
  C  91  1  0.09575100  0.54798500  0.79522900  1
  C  92  1  0.05320000  0.56053000  0.79064600  1
  C  93  1  0.01640000  0.53850000  0.78950500  1
  C  94  1  0.01949500  0.50271300  0.79357100  1
  C  95  1  0.06211000  0.49019600  0.79812300  1
  C  96  1  0.09917500  0.51202900  0.79860000  1
  C  97  1  0.24027100  0.57802100  0.82621100  1
  C  98  1  0.23510900  0.56078200  0.84496100  1
  C  99  1  0.27173900  0.54965800  0.85620500  1
  C  100  1  0.31518100  0.55518300  0.84917600  1
  C  101  1  0.32033700  0.57293000  0.83059600  1
  C  102  1  0.28374900  0.58399700  0.81935300  1
  C  118  1  0.86848200  0.07012000  0.70437000  1
  C  119  1  0.86545400  0.10101500  0.71586700  1
  C  120  1  0.83212000  0.12600100  0.71288000  1
  C  121  1  0.79919000  0.11761700  0.69843300  1
  C  122  1  0.79826100  0.08595900  0.68772100  1
  C  123  1  0.83394200  0.06321400  0.69049500  1
  C  124  1  0.83180400  0.15839400  0.72390300  1
  C  125  1  0.87087300  0.17372500  0.73150000  1
  C  126  1  0.87058500  0.20515900  0.74225200  1
  C  127  1  0.83156300  0.22444800  0.74541200  1
  C  128  1  0.79264000  0.20922400  0.73745400  1
  C  129  1  0.79258900  0.17705100  0.72750100  1
  C  130  1  0.90551300  0.04717600  0.70640000  1
  C  131  1  0.94813700  0.05984900  0.71102600  1
  C  132  1  0.98476900  0.03789800  0.71219300  1
  C  133  1  0.98143000  0.00205800  0.70810400  1
  C  134  1  0.93874100  0.98941100  0.70351700  1
  C  135  1  0.90184100  0.01117700  0.70300400  1
  C  136  1  0.76132200  0.07658600  0.67529800  1
  C  137  1  0.76633600  0.05921000  0.65651800  1
  C  138  1  0.72959600  0.04805000  0.64523300  1
  C  139  1  0.68620900  0.05369600  0.65224900  1
  C  140  1  0.68121100  0.07152800  0.67087700  1
  C  141  1  0.71790100  0.08262100  0.68215900  1
  C  157  1  0.86797300  0.06824600  0.29658600  1
  C  158  1  0.86489100  0.09894700  0.28505300  1
  C  159  1  0.83150800  0.12394900  0.28800900  1
  C  160  1  0.79859200  0.11576600  0.30247400  1
  C  161  1  0.79777200  0.08430700  0.31325200  1
  C  162  1  0.83349000  0.06155600  0.31049300  1
  C  163  1  0.83116500  0.15616900  0.27694800  1
  C  164  1  0.87022300  0.17139000  0.26933300  1
  C  165  1  0.86992500  0.20264500  0.25853900  1
  C  166  1  0.83089900  0.22188000  0.25535300  1
  C  167  1  0.79197600  0.20676500  0.26331900  1
  C  168  1  0.79193900  0.17475400  0.27332200  1
  C  169  1  0.90501000  0.04528100  0.29458500  1
  C  170  1  0.94764000  0.05788500  0.28996200  1
  C  171  1  0.98428200  0.03591800  0.28885800  1
  C  172  1  0.98093700  0.00014500  0.29300300  1
  C  173  1  0.93824200  0.98757500  0.29758800  1
  C  174  1  0.90133500  0.00933600  0.29802400  1
  C  175  1  0.76095300  0.07507800  0.32575000  1
  C  176  1  0.76618200  0.05794900  0.34452000  1
  C  177  1  0.72958900  0.04672000  0.35583100  1
  C  178  1  0.68612500  0.05206600  0.34886400  1
  C  179  1  0.68090200  0.06973600  0.33027200  1
  C  180  1  0.71745200  0.08087600  0.31895300  1
  C  196  1  0.13255800  0.56787700  0.20427200  1
  C  197  1  0.13564100  0.59878700  0.21576000  1
  C  198  1  0.16906500  0.62392300  0.21280300  1
  C  199  1  0.20215000  0.61561400  0.19845100  1
  C  200  1  0.20298700  0.58395300  0.18774000  1
  C  201  1  0.16716600  0.56109400  0.19045500  1
  C  202  1  0.16920700  0.65639300  0.22375000  1
  C  203  1  0.13000800  0.67148200  0.23120300  1
  C  204  1  0.13009100  0.70294100  0.24192500  1
  C  205  1  0.16903300  0.72252900  0.24517700  1
  C  206  1  0.20808800  0.70758200  0.23733200  1
  C  207  1  0.20833500  0.67537700  0.22740700  1
  C  208  1  0.09536200  0.54484200  0.20621600  1
  C  209  1  0.05279300  0.55741000  0.21079700  1
  C  210  1  0.01600500  0.53537600  0.21188100  1
  C  211  1  0.01912000  0.49956500  0.20773200  1
  C  212  1  0.06174700  0.48703100  0.20317100  1
  C  213  1  0.09880500  0.50886600  0.20276400  1
  C  214  1  0.23987800  0.57468000  0.17532100  1
  C  215  1  0.23470700  0.55729700  0.15654300  1
  C  216  1  0.27133100  0.54606200  0.14528900  1
  C  217  1  0.31477000  0.55162500  0.15233200  1
  C  218  1  0.31994000  0.56951600  0.17094100  1
  C  219  1  0.28335300  0.58069700  0.18219500  1
  C  235  1  0.86746600  0.40895800  0.20401400  1
  C  236  1  0.86429700  0.37814600  0.21545200  1
  C  237  1  0.83084600  0.35301500  0.21243000  1
  C  238  1  0.79778800  0.36125500  0.19808600  1
  C  239  1  0.79706000  0.39281700  0.18740700  1
  C  240  1  0.83291700  0.41565800  0.19018400  1
  C  241  1  0.83066900  0.32062500  0.22332800  1
  C  242  1  0.86985700  0.30559300  0.23076400  1
  C  243  1  0.86975500  0.27425700  0.24147400  1
  C  244  1  0.83079900  0.25472600  0.24472700  1
  C  245  1  0.79175800  0.26959600  0.23687800  1
  C  246  1  0.79153600  0.30168500  0.22695800  1
  C  247  1  0.90466800  0.43198700  0.20603200  1
  C  248  1  0.94722100  0.41943500  0.21060100  1
  C  249  1  0.98401800  0.44146700  0.21175300  1
  C  250  1  0.98091900  0.47725700  0.20769600  1
  C  251  1  0.93830700  0.48977400  0.20314500  1
  C  252  1  0.90124200  0.46794600  0.20267000  1
  C  253  1  0.76024400  0.40207200  0.17497000  1
  C  254  1  0.76556100  0.41934500  0.15623800  1
  C  255  1  0.72903500  0.43067800  0.14499900  1
  C  256  1  0.68554200  0.42530300  0.15199900  1
  C  257  1  0.68022900  0.40745500  0.17053900  1
  C  258  1  0.71671500  0.39619400  0.18178500  1
  C  274  1  0.13192500  0.90986100  0.29678000  1
  C  275  1  0.13499400  0.87895900  0.28529500  1
  C  276  1  0.16834100  0.85398800  0.28830200  1
  C  277  1  0.20126400  0.86240900  0.30274900  1
  C  278  1  0.20211800  0.89406100  0.31346700  1
  C  279  1  0.16642500  0.91678600  0.31066900  1
  C  280  1  0.16866700  0.82157700  0.27729400  1
  C  281  1  0.12960100  0.80623700  0.26970200  1
  C  282  1  0.12989700  0.77480900  0.25894500  1
  C  283  1  0.16892200  0.75551900  0.25578700  1
  C  284  1  0.20784200  0.77074800  0.26374600  1
  C  285  1  0.20788600  0.80291900  0.27370700  1
  C  286  1  0.09490200  0.93280200  0.29473200  1
  C  287  1  0.05227900  0.92012200  0.29011200  1
  C  288  1  0.01564400  0.94207400  0.28894800  1
  C  289  1  0.01898300  0.97791500  0.29303700  1
  C  290  1  0.06166900  0.99056400  0.29762700  1
  C  291  1  0.09857000  0.96880400  0.29812400  1
  C  292  1  0.23898800  0.90349700  0.32591800  1
  C  293  1  0.23382700  0.92090800  0.34467800  1
  C  294  1  0.27047100  0.93224200  0.35596800  1
  C  295  1  0.31390700  0.92676100  0.34897300  1
  C  296  1  0.31905600  0.90882300  0.33039000  1
  C  297  1  0.28245900  0.89754600  0.31910100  1
  C  313  1  0.53618000  0.00313300  0.60820700  1
  C  315  1  0.50021400  0.99025900  0.57683400  1
  C  317  1  0.46437600  0.97761700  0.60821500  1
  C  319  1  0.50019700  0.99018900  0.55520700  1
  C  320  1  0.52945700  0.01136000  0.54407900  1
  C  321  1  0.52922000  0.01145200  0.52272900  1
  C  322  1  0.50020000  0.99003000  0.51150500  1
  C  323  1  0.47116900  0.96869300  0.52268900  1
  C  324  1  0.47092400  0.96894500  0.54404000  1
  C  325  1  0.57343500  0.01595600  0.61911700  1
  C  326  1  0.60972600  0.03112500  0.60900400  1
  C  327  1  0.64652600  0.04350500  0.61979400  1
  C  328  1  0.64874900  0.04127000  0.64119500  1
  C  329  1  0.61254900  0.02602300  0.65130700  1
  C  330  1  0.57574000  0.01372100  0.64053300  1
  C  331  1  0.42717800  0.96488000  0.61914600  1
  C  332  1  0.42494900  0.96734200  0.64056500  1
  C  333  1  0.38820700  0.95511500  0.65136300  1
  C  334  1  0.35198600  0.93972500  0.64127300  1
  C  335  1  0.35413600  0.93726000  0.61986700  1
  C  336  1  0.39086900  0.94956600  0.60905300  1
  C  349  1  0.46435200  0.50397100  0.89302700  1
  C  351  1  0.49996200  0.49076300  0.92435400  1
  C  353  1  0.53572800  0.47816700  0.89292000  1
  C  355  1  0.49999000  0.49052900  0.94598400  1
  C  356  1  0.47103300  0.51166600  0.95727400  1
  C  357  1  0.47136500  0.51163200  0.97862700  1
  C  358  1  0.50015900  0.49009800  0.98969100  1
  C  359  1  0.52885800  0.46878100  0.97834200  1
  C  360  1  0.52900800  0.46915700  0.95699300  1
  C  361  1  0.42735600  0.51701000  0.88216000  1
  C  362  1  0.39129400  0.53229800  0.89233400  1
  C  363  1  0.35473200  0.54486000  0.88159100  1
  C  364  1  0.35249600  0.54269000  0.86017600  1
  C  365  1  0.38848800  0.52735600  0.85000300  1
  C  366  1  0.42507400  0.51488300  0.86072900  1
  C  367  1  0.57281800  0.46534700  0.88198200  1
  C  368  1  0.57514000  0.46762300  0.86056700  1
  C  369  1  0.61183900  0.45536500  0.84978200  1
  C  370  1  0.64791400  0.44014200  0.85988200  1
  C  371  1  0.64565100  0.43783400  0.88128000  1
  C  372  1  0.60895900  0.45015000  0.89207900  1
  C  385  1  0.46378500  0.97765400  0.39299300  1
  C  387  1  0.50018500  0.98972800  0.42437500  1
  C  389  1  0.53647800  0.00152700  0.39298300  1
  C  391  1  0.50019200  0.98981400  0.44601000  1
  C  392  1  0.46063400  0.98663000  0.45716400  1
  C  393  1  0.46063200  0.98693500  0.47851400  1
  C  394  1  0.50019900  0.98995600  0.48971900  1
  C  395  1  0.53976300  0.99291100  0.47851600  1
  C  396  1  0.53975400  0.99308400  0.45716500  1
  C  397  1  0.42637000  0.96509800  0.38209600  1
  C  398  1  0.39006600  0.94997100  0.39222300  1
  C  399  1  0.35337100  0.93740800  0.38143400  1
  C  400  1  0.35124900  0.93943000  0.36002200  1
  C  401  1  0.38742200  0.95470100  0.34990100  1
  C  402  1  0.42414600  0.96716700  0.36067400  1
  C  403  1  0.57383600  0.01399700  0.38206500  1
  C  404  1  0.57598600  0.01169200  0.36063900  1
  C  405  1  0.61264800  0.02408000  0.34984300  1
  C  406  1  0.64883500  0.03950400  0.35994000  1
  C  407  1  0.64678300  0.04176200  0.38135500  1
  C  408  1  0.61015100  0.02927700  0.39216900  1
  C  421  1  0.53653300  0.47684000  0.10816600  1
  C  423  1  0.50042300  0.48916500  0.07682700  1
  C  425  1  0.46422500  0.50098300  0.10826500  1
  C  427  1  0.50037500  0.48936900  0.05519200  1
  C  428  1  0.53985400  0.48618200  0.04399100  1
  C  429  1  0.53979800  0.48667500  0.02264100  1
  C  430  1  0.50024300  0.48986600  0.01147900  1
  C  431  1  0.46075600  0.49279800  0.02272800  1
  C  432  1  0.46082800  0.49279000  0.04407900  1
  C  433  1  0.57369600  0.46407600  0.11902100  1
  C  434  1  0.60976800  0.44882700  0.10883800  1
  C  435  1  0.64622700  0.43608100  0.11957900  1
  C  436  1  0.64835300  0.43804100  0.14100400  1
  C  437  1  0.61239400  0.45340800  0.15118300  1
  C  438  1  0.57589800  0.46604800  0.14045800  1
  C  439  1  0.42697000  0.51353200  0.11919100  1
  C  440  1  0.42473400  0.51142400  0.14061200  1
  C  441  1  0.38811800  0.52383900  0.15139700  1
  C  442  1  0.35206600  0.53908600  0.14128900  1
  C  443  1  0.35422300  0.54117100  0.11988000  1
  C  444  1  0.39081200  0.52868100  0.10908300  1
  C  457  1  0.13244900  0.78282200  0.56807900  1
  C  458  1  0.13550100  0.75213100  0.57962800  1
  C  459  1  0.16885600  0.72710700  0.57668000  1
  C  460  1  0.20178000  0.73525600  0.56221700  1
  C  461  1  0.20267000  0.76671800  0.55144400  1
  C  462  1  0.16697600  0.78949600  0.55418900  1
  C  463  1  0.16918400  0.69489700  0.58775200  1
  C  464  1  0.13011800  0.67968000  0.59536300  1
  C  465  1  0.13041200  0.64842600  0.60615800  1
  C  466  1  0.16943500  0.62918600  0.60934300  1
  C  467  1  0.20836100  0.64429900  0.60138000  1
  C  468  1  0.20840600  0.67631000  0.59138100  1
  C  469  1  0.09541600  0.80579500  0.57007100  1
  C  470  1  0.05278400  0.79319600  0.57469700  1
  C  471  1  0.01613500  0.81516100  0.57578700  1
  C  472  1  0.01947900  0.85092900  0.57163900  1
  C  473  1  0.06217800  0.86350000  0.56705400  1
  C  474  1  0.09908500  0.84173600  0.56661600  1
  C  475  1  0.23956800  0.77589900  0.53898200  1
  C  476  1  0.23447400  0.79297200  0.52018600  1
  C  477  1  0.27116300  0.80398600  0.50886400  1
  C  478  1  0.31458100  0.79849800  0.51585800  1
  C  479  1  0.31965700  0.78093000  0.53448900  1
  C  480  1  0.28302000  0.76996600  0.54580400  1
  C  496  1  0.86784300  0.28318900  0.66046800  1
  C  497  1  0.86478900  0.25229100  0.64896100  1
  C  498  1  0.83139100  0.22713300  0.65190800  1
  C  499  1  0.79829600  0.23540800  0.66625700  1
  C  500  1  0.79738200  0.26707100  0.67696100  1
  C  501  1  0.83318700  0.28995600  0.67426600  1
  C  502  1  0.83126300  0.19467300  0.64095000  1
  C  503  1  0.87046700  0.17959200  0.63349900  1
  C  504  1  0.87039000  0.14813000  0.62277800  1
  C  505  1  0.83145100  0.12853900  0.61952500  1
  C  506  1  0.79239300  0.14348100  0.62737000  1
  C  507  1  0.79213900  0.17568800  0.63728800  1
  C  508  1  0.90503600  0.30623100  0.65853300  1
  C  509  1  0.94760900  0.29366800  0.65395000  1
  C  510  1  0.98440200  0.31569800  0.65288100  1
  C  511  1  0.98128700  0.35150900  0.65703200  1
  C  512  1  0.93865900  0.36404000  0.66159400  1
  C  513  1  0.90160000  0.34220500  0.66199800  1
  C  514  1  0.76042100  0.27629500  0.68935000  1
  C  515  1  0.76544600  0.29362700  0.70815200  1
  C  516  1  0.72872200  0.30467400  0.71940400  1
  C  517  1  0.68533200  0.29894300  0.71233900  1
  C  518  1  0.68031800  0.28115500  0.69368800  1
  C  519  1  0.71699600  0.27016700  0.68243600  1
  C  535  1  0.13295800  0.44212000  0.66073100  1
  C  536  1  0.13608300  0.47292200  0.64928000  1
  C  537  1  0.16951300  0.49807600  0.65228200  1
  C  538  1  0.20257900  0.48987800  0.66662900  1
  C  539  1  0.20338700  0.45831000  0.67730200  1
  C  540  1  0.16755000  0.43544100  0.67454700  1
  C  541  1  0.16967900  0.53044600  0.64136800  1
  C  542  1  0.13048800  0.54546200  0.63392400  1
  C  543  1  0.13058300  0.57680300  0.62321900  1
  C  544  1  0.16953500  0.59633900  0.61996700  1
  C  545  1  0.20857800  0.58147700  0.62781600  1
  C  546  1  0.20881100  0.54938600  0.63773000  1
  C  547  1  0.09575100  0.41908600  0.65873200  1
  C  548  1  0.05320000  0.43163100  0.65414900  1
  C  549  1  0.01640000  0.40960100  0.65300800  1
  C  550  1  0.01949500  0.37381400  0.65707400  1
  C  551  1  0.06211000  0.36129700  0.66162600  1
  C  552  1  0.09917500  0.38313000  0.66210300  1
  C  553  1  0.24027100  0.44912200  0.68971400  1
  C  554  1  0.23510900  0.43188300  0.70846400  1
  C  555  1  0.27173900  0.42075900  0.71970800  1
  C  556  1  0.31518100  0.42628400  0.71267900  1
  C  557  1  0.32033700  0.44403100  0.69409900  1
  C  558  1  0.28374900  0.45509800  0.68285600  1
  C  574  1  0.86848200  0.94122150  0.56787300  1
  C  575  1  0.86545400  0.97211650  0.57937000  1
  C  576  1  0.83212000  0.99710246  0.57638300  1
  C  577  1  0.79919000  0.98871850  0.56193600  1
  C  578  1  0.79826100  0.95706050  0.55122400  1
  C  579  1  0.83394200  0.93431550  0.55399800  1
  C  580  1  0.83180400  0.02949500  0.58740600  1
  C  581  1  0.87087300  0.04482600  0.59500300  1
  C  582  1  0.87058500  0.07626000  0.60575500  1
  C  583  1  0.83156300  0.09554900  0.60891500  1
  C  584  1  0.79264000  0.08032500  0.60095700  1
  C  585  1  0.79258900  0.04815200  0.59100400  1
  C  586  1  0.90551300  0.91827750  0.56990300  1
  C  587  1  0.94813700  0.93095050  0.57452900  1
  C  588  1  0.98476900  0.90899950  0.57569600  1
  C  589  1  0.98143000  0.87315900  0.57160700  1
  C  590  1  0.93874100  0.86051200  0.56702000  1
  C  591  1  0.90184100  0.88227800  0.56650700  1
  C  592  1  0.76132200  0.94768750  0.53880100  1
  C  593  1  0.76633600  0.93031150  0.52002100  1
  C  594  1  0.72959600  0.91915150  0.50873600  1
  C  595  1  0.68620900  0.92479750  0.51575200  1
  C  596  1  0.68121100  0.94262950  0.53438000  1
  C  597  1  0.71790100  0.95372250  0.54566200  1
  C  613  1  0.86797300  0.93934750  0.16008900  1
  C  614  1  0.86489100  0.97004850  0.14855600  1
  C  615  1  0.83150800  0.99505046  0.15151200  1
  C  616  1  0.79859200  0.98686750  0.16597700  1
  C  617  1  0.79777200  0.95540850  0.17675500  1
  C  618  1  0.83349000  0.93265750  0.17399600  1
  C  619  1  0.83116500  0.02727000  0.14045100  1
  C  620  1  0.87022300  0.04249100  0.13283600  1
  C  621  1  0.86992500  0.07374600  0.12204200  1
  C  622  1  0.83089900  0.09298100  0.11885600  1
  C  623  1  0.79197600  0.07786600  0.12682200  1
  C  624  1  0.79193900  0.04585500  0.13682500  1
  C  625  1  0.90501000  0.91638250  0.15808800  1
  C  626  1  0.94764000  0.92898650  0.15346500  1
  C  627  1  0.98428200  0.90701950  0.15236100  1
  C  628  1  0.98093700  0.87124600  0.15650600  1
  C  629  1  0.93824200  0.85867600  0.16109100  1
  C  630  1  0.90133500  0.88043700  0.16152700  1
  C  631  1  0.76095300  0.94617950  0.18925300  1
  C  632  1  0.76618200  0.92905050  0.20802300  1
  C  633  1  0.72958900  0.91782150  0.21933400  1
  C  634  1  0.68612500  0.92316750  0.21236700  1
  C  635  1  0.68090200  0.94083750  0.19377500  1
  C  636  1  0.71745200  0.95197750  0.18245600  1
  C  652  1  0.13255800  0.43897800  0.06777500  1
  C  653  1  0.13564100  0.46988800  0.07926300  1
  C  654  1  0.16906500  0.49502400  0.07630600  1
  C  655  1  0.20215000  0.48671500  0.06195400  1
  C  656  1  0.20298700  0.45505400  0.05124300  1
  C  657  1  0.16716600  0.43219500  0.05395800  1
  C  658  1  0.16920700  0.52749400  0.08725300  1
  C  659  1  0.13000800  0.54258300  0.09470600  1
  C  660  1  0.13009100  0.57404200  0.10542800  1
  C  661  1  0.16903300  0.59363000  0.10868000  1
  C  662  1  0.20808800  0.57868300  0.10083500  1
  C  663  1  0.20833500  0.54647800  0.09091000  1
  C  664  1  0.09536200  0.41594300  0.06971900  1
  C  665  1  0.05279300  0.42851100  0.07430000  1
  C  666  1  0.01600500  0.40647700  0.07538400  1
  C  667  1  0.01912000  0.37066600  0.07123500  1
  C  668  1  0.06174700  0.35813200  0.06667400  1
  C  669  1  0.09880500  0.37996700  0.06626700  1
  C  670  1  0.23987800  0.44578100  0.03882400  1
  C  671  1  0.23470700  0.42839800  0.02004600  1
  C  672  1  0.27133100  0.41716300  0.00879200  1
  C  673  1  0.31477000  0.42272600  0.01583500  1
  C  674  1  0.31994000  0.44061700  0.03444400  1
  C  675  1  0.28335300  0.45179800  0.04569800  1
  C  691  1  0.86746600  0.28005900  0.06751700  1
  C  692  1  0.86429700  0.24924700  0.07895500  1
  C  693  1  0.83084600  0.22411600  0.07593300  1
  C  694  1  0.79778800  0.23235600  0.06158900  1
  C  695  1  0.79706000  0.26391800  0.05091000  1
  C  696  1  0.83291700  0.28675900  0.05368700  1
  C  697  1  0.83066900  0.19172600  0.08683100  1
  C  698  1  0.86985700  0.17669400  0.09426700  1
  C  699  1  0.86975500  0.14535800  0.10497700  1
  C  700  1  0.83079900  0.12582700  0.10823000  1
  C  701  1  0.79175800  0.14069700  0.10038100  1
  C  702  1  0.79153600  0.17278600  0.09046100  1
  C  703  1  0.90466800  0.30308800  0.06953500  1
  C  704  1  0.94722100  0.29053600  0.07410400  1
  C  705  1  0.98401800  0.31256800  0.07525600  1
  C  706  1  0.98091900  0.34835800  0.07119900  1
  C  707  1  0.93830700  0.36087500  0.06664800  1
  C  708  1  0.90124200  0.33904700  0.06617300  1
  C  709  1  0.76024400  0.27317300  0.03847300  1
  C  710  1  0.76556100  0.29044600  0.01974100  1
  C  711  1  0.72903500  0.30177900  0.00850200  1
  C  712  1  0.68554200  0.29640400  0.01550200  1
  C  713  1  0.68022900  0.27855600  0.03404200  1
  C  714  1  0.71671500  0.26729500  0.04528800  1
  C  730  1  0.13192500  0.78096200  0.16028300  1
  C  731  1  0.13499400  0.75006000  0.14879800  1
  C  732  1  0.16834100  0.72508900  0.15180500  1
  C  733  1  0.20126400  0.73351000  0.16625200  1
  C  734  1  0.20211800  0.76516200  0.17697000  1
  C  735  1  0.16642500  0.78788700  0.17417200  1
  C  736  1  0.16866700  0.69267800  0.14079700  1
  C  737  1  0.12960100  0.67733800  0.13320500  1
  C  738  1  0.12989700  0.64591000  0.12244800  1
  C  739  1  0.16892200  0.62662000  0.11929000  1
  C  740  1  0.20784200  0.64184900  0.12724900  1
  C  741  1  0.20788600  0.67402000  0.13721000  1
  C  742  1  0.09490200  0.80390300  0.15823500  1
  C  743  1  0.05227900  0.79122300  0.15361500  1
  C  744  1  0.01564400  0.81317500  0.15245100  1
  C  745  1  0.01898300  0.84901600  0.15654000  1
  C  746  1  0.06166900  0.86166500  0.16113000  1
  C  747  1  0.09857000  0.83990500  0.16162700  1
  C  748  1  0.23898800  0.77459800  0.18942100  1
  C  749  1  0.23382700  0.79200900  0.20818100  1
  C  750  1  0.27047100  0.80334300  0.21947100  1
  C  751  1  0.31390700  0.79786200  0.21247600  1
  C  752  1  0.31905600  0.77992400  0.19389300  1
  C  753  1  0.28245900  0.76864700  0.18260400  1
  C  769  1  0.53618000  0.87423400  0.47171000  1
  C  771  1  0.50021400  0.86136000  0.44033700  1
  C  773  1  0.46437600  0.84871800  0.47171800  1
  C  775  1  0.50019700  0.86129000  0.41871000  1
  C  776  1  0.52945700  0.88246100  0.40758200  1
  C  777  1  0.52922000  0.88255300  0.38623200  1
  C  778  1  0.50020000  0.86113100  0.37500800  1
  C  779  1  0.47116900  0.83979400  0.38619200  1
  C  780  1  0.47092400  0.84004600  0.40754300  1
  C  781  1  0.57343500  0.88705700  0.48262000  1
  C  782  1  0.60972600  0.90222650  0.47250700  1
  C  783  1  0.64652600  0.91460650  0.48329700  1
  C  784  1  0.64874900  0.91237150  0.50469800  1
  C  785  1  0.61254900  0.89712400  0.51481000  1
  C  786  1  0.57574000  0.88482200  0.50403600  1
  C  787  1  0.42717800  0.83598100  0.48264900  1
  C  788  1  0.42494900  0.83844300  0.50406800  1
  C  789  1  0.38820700  0.82621600  0.51486600  1
  C  790  1  0.35198600  0.81082600  0.50477600  1
  C  791  1  0.35413600  0.80836100  0.48337000  1
  C  792  1  0.39086900  0.82066700  0.47255600  1
  C  805  1  0.46435200  0.37507200  0.75653000  1
  C  807  1  0.49996200  0.36186400  0.78785700  1
  C  809  1  0.53572800  0.34926800  0.75642300  1
  C  811  1  0.49999000  0.36163000  0.80948700  1
  C  812  1  0.47103300  0.38276700  0.82077700  1
  C  813  1  0.47136500  0.38273300  0.84213000  1
  C  814  1  0.50015900  0.36119900  0.85319400  1
  C  815  1  0.52885800  0.33988200  0.84184500  1
  C  816  1  0.52900800  0.34025800  0.82049600  1
  C  817  1  0.42735600  0.38811100  0.74566300  1
  C  818  1  0.39129400  0.40339900  0.75583700  1
  C  819  1  0.35473200  0.41596100  0.74509400  1
  C  820  1  0.35249600  0.41379100  0.72367900  1
  C  821  1  0.38848800  0.39845700  0.71350600  1
  C  822  1  0.42507400  0.38598400  0.72423200  1
  C  823  1  0.57281800  0.33644800  0.74548500  1
  C  824  1  0.57514000  0.33872400  0.72407000  1
  C  825  1  0.61183900  0.32646600  0.71328500  1
  C  826  1  0.64791400  0.31124300  0.72338500  1
  C  827  1  0.64565100  0.30893500  0.74478300  1
  C  828  1  0.60895900  0.32125100  0.75558200  1
  C  841  1  0.46378500  0.84875500  0.25649600  1
  C  843  1  0.50018500  0.86082900  0.28787800  1
  C  845  1  0.53647800  0.87262800  0.25648600  1
  C  847  1  0.50019200  0.86091500  0.30951300  1
  C  848  1  0.46063400  0.85773100  0.32066700  1
  C  849  1  0.46063200  0.85803600  0.34201700  1
  C  850  1  0.50019900  0.86105700  0.35322200  1
  C  851  1  0.53976300  0.86401200  0.34201900  1
  C  852  1  0.53975400  0.86418500  0.32066800  1
  C  853  1  0.42637000  0.83619900  0.24559900  1
  C  854  1  0.39006600  0.82107200  0.25572600  1
  C  855  1  0.35337100  0.80850900  0.24493700  1
  C  856  1  0.35124900  0.81053100  0.22352500  1
  C  857  1  0.38742200  0.82580200  0.21340400  1
  C  858  1  0.42414600  0.83826800  0.22417700  1
  C  859  1  0.57383600  0.88509800  0.24556800  1
  C  860  1  0.57598600  0.88279300  0.22414200  1
  C  861  1  0.61264800  0.89518100  0.21334600  1
  C  862  1  0.64883500  0.91060550  0.22344300  1
  C  863  1  0.64678300  0.91286350  0.24485800  1
  C  864  1  0.61015100  0.90037850  0.25567200  1
  C  877  1  0.53653300  0.34794100  0.97166860  1
  C  879  1  0.50042300  0.36026600  0.94032960  1
  C  881  1  0.46422500  0.37208400  0.97176760  1
  C  883  1  0.50037500  0.36047000  0.91869460  1
  C  884  1  0.53985400  0.35728300  0.90749360  1
  C  885  1  0.53979800  0.35777600  0.88614400  1
  C  886  1  0.50024300  0.36096700  0.87498200  1
  C  887  1  0.46075600  0.36389900  0.88623100  1
  C  888  1  0.46082800  0.36389100  0.90758160  1
  C  889  1  0.57369600  0.33517700  0.98252360  1
  C  890  1  0.60976800  0.31992800  0.97234060  1
  C  891  1  0.64622700  0.30718200  0.98308160  1
  C  892  1  0.64835300  0.30914200  0.00450700  1
  C  893  1  0.61239400  0.32450900  0.01468600  1
  C  894  1  0.57589800  0.33714900  0.00396100  1
  C  895  1  0.42697000  0.38463300  0.98269360  1
  C  896  1  0.42473400  0.38252500  0.00411500  1
  C  897  1  0.38811800  0.39494000  0.01490000  1
  C  898  1  0.35206600  0.41018700  0.00479200  1
  C  899  1  0.35422300  0.41227200  0.98338260  1
  C  900  1  0.39081200  0.39978200  0.97258560  1
  N  314  1  0.53500500  0.00278000  0.58757800  1
  N  316  1  0.46546500  0.97781300  0.58758300  1
  N  318  1  0.50029700  0.99041300  0.61801100  1
  N  350  1  0.46542800  0.50349100  0.91366000  1
  N  352  1  0.53453600  0.47826000  0.91354900  1
  N  354  1  0.50006500  0.49116000  0.88317100  1
  N  386  1  0.46488200  0.97815400  0.41362200  1
  N  388  1  0.53545400  0.00120700  0.41361500  1
  N  390  1  0.50011200  0.98954900  0.38318200  1
  N  422  1  0.53551100  0.47742500  0.08753300  1
  N  424  1  0.46532500  0.50072500  0.08763600  1
  N  426  1  0.50035900  0.48883000  0.11802500  1
  N  770  1  0.53500500  0.87388100  0.45108100  1
  N  772  1  0.46546500  0.84891400  0.45108600  1
  N  774  1  0.50029700  0.86151400  0.48151400  1
  N  806  1  0.46542800  0.37459200  0.77716300  1
  N  808  1  0.53453600  0.34936100  0.77705200  1
  N  810  1  0.50006500  0.36226100  0.74667400  1
  N  842  1  0.46488200  0.84925500  0.27712500  1
  N  844  1  0.53545400  0.87230800  0.27711800  1
  N  846  1  0.50011200  0.86065000  0.24668500  1
  N  878  1  0.53551100  0.34852600  0.95103560  1
  N  880  1  0.46532500  0.37182600  0.95113860  1
  N  882  1  0.50035900  0.35993100  0.98152760  1
