# generated using pymatgen
data_H28C53(NO)8
_symmetry_space_group_name_H-M   'P 1'
_cell_length_a   33.78495000
_cell_length_b   33.78500000
_cell_length_c   40.40020000
_cell_angle_alpha   90.00000000
_cell_angle_beta   90.00000000
_cell_angle_gamma   120.00014687
_symmetry_Int_Tables_number   1
_chemical_formula_structural   H28C53(NO)8
_chemical_formula_sum   'H252 C477 N72 O72'
_cell_volume   39935.64543401
_cell_formula_units_Z   9
loop_
 _symmetry_equiv_pos_site_id
 _symmetry_equiv_pos_as_xyz
  1  'x, y, z'
loop_
 _atom_site_type_symbol
 _atom_site_label
 _atom_site_symmetry_multiplicity
 _atom_site_fract_x
 _atom_site_fract_y
 _atom_site_fract_z
 _atom_site_occupancy
  H  11  1  0.95693000  0.60689900  0.30250900  1
  H  12  1  0.91182900  0.44832000  0.27861800  1
  H  13  1  0.91540000  0.46507400  0.37513300  1
  H  14  1  0.95373700  0.34945600  0.34170700  1
  H  18  1  0.89513300  0.56328100  0.26495000  1
  H  19  1  0.89475600  0.33101400  0.38191700  1
  H  20  1  0.88265100  0.51462500  0.20771000  1
  H  21  1  0.89569500  0.37140400  0.44238700  1
  H  46  1  0.32367700  0.42329500  0.04858700  1
  H  47  1  0.34213700  0.38273100  0.00841400  1
  H  48  1  0.37469000  0.35162200  0.96925300  1
  H  49  1  0.41833800  0.33349000  0.93168400  1
  H  50  1  0.53319800  0.46522400  0.94529900  1
  H  51  1  0.45771300  0.53674300  0.04175300  1
  H  52  1  0.44095800  0.52352500  0.94532200  1
  H  53  1  0.55583100  0.65524800  0.93176200  1
  H  54  1  0.59946300  0.63707800  0.96930600  1
  H  55  1  0.51637600  0.45192200  0.04176100  1
  H  56  1  0.63200100  0.60593900  0.00845900  1
  H  57  1  0.65042900  0.56534500  0.04863000  1
  H  75  1  0.07957600  0.65782900  0.38186000  1
  H  76  1  0.02053100  0.63938400  0.34170700  1
  H  77  1  0.05884000  0.52373200  0.37508500  1
  H  78  1  0.06235900  0.54055300  0.27864800  1
  H  79  1  0.07916700  0.42566600  0.26497000  1
  H  80  1  0.01734000  0.38199100  0.30249700  1
  H  109  1  0.55817400  0.90215500  0.71536300  1
  H  110  1  0.59876300  0.96120000  0.67520500  1
  H  111  1  0.62981100  0.02474700  0.63593500  1
  H  112  1  0.64792600  0.08649400  0.59834200  1
  H  113  1  0.51619300  0.06961600  0.61194500  1
  H  114  1  0.44468500  0.92267000  0.70844200  1
  H  115  1  0.45800600  0.91918300  0.61195500  1
  H  116  1  0.32623700  0.90222800  0.59835900  1
  H  117  1  0.34434900  0.96400900  0.63592300  1
  H  118  1  0.52942900  0.06610100  0.70847000  1
  H  119  1  0.37541500  0.02763600  0.67511300  1
  H  120  1  0.41594700  0.08663500  0.71531100  1
  H  132  1  0.45537800  0.19007400  0.84807900  1
  H  133  1  0.43992100  0.12269400  0.81935400  1
  H  140  1  0.50208300  0.36195600  0.82166400  1
  H  141  1  0.51975900  0.31562300  0.91401300  1
  H  142  1  0.55750300  0.19904000  0.76033700  1
  H  143  1  0.57355200  0.26682800  0.79012100  1
  H  152  1  0.45548700  0.08571800  0.77577600  1
  H  153  1  0.46699300  0.36975600  0.87436400  1
  H  160  1  0.71404000  0.52561200  0.18153500  1
  H  161  1  0.66207100  0.54101500  0.15284400  1
  H  168  1  0.83984400  0.47980900  0.15491400  1
  H  169  1  0.77554500  0.46135300  0.24722000  1
  H  170  1  0.62148500  0.42391800  0.09340400  1
  H  171  1  0.67327400  0.40791500  0.12316100  1
  H  180  1  0.60980700  0.52570400  0.10907700  1
  H  187  1  0.79139400  0.26715800  0.51481000  1
  H  188  1  0.85877400  0.31908600  0.48608500  1
  H  195  1  0.61962800  0.14172700  0.48831000  1
  H  196  1  0.66573800  0.20587600  0.58063600  1
  H  197  1  0.78235400  0.36003000  0.42687700  1
  H  198  1  0.71456900  0.30829100  0.45665900  1
  H  207  1  0.61183900  0.09895000  0.54103700  1
  H  214  1  0.51847500  0.79875700  0.84820400  1
  H  215  1  0.53390600  0.86612700  0.81949500  1
  H  222  1  0.47232400  0.62702500  0.82166000  1
  H  223  1  0.45418500  0.67306800  0.91397900  1
  H  224  1  0.41663600  0.78967100  0.76020200  1
  H  225  1  0.40061100  0.72188400  0.78997600  1
  H  234  1  0.51849700  0.90310800  0.77579300  1
  H  235  1  0.50724800  0.61913700  0.87441900  1
  H  242  1  0.25976200  0.46283200  0.18140800  1
  H  243  1  0.31168700  0.44737300  0.15268800  1
  H  250  1  0.13442600  0.50930300  0.15496800  1
  H  251  1  0.19856800  0.52723400  0.24728700  1
  H  252  1  0.35273300  0.56480100  0.09353300  1
  H  253  1  0.30099400  0.58085500  0.12331200  1
  H  262  1  0.36414400  0.46286500  0.10907000  1
  H  263  1  0.09163800  0.47429400  0.20768300  1
  H  270  1  0.18289500  0.72160800  0.51476800  1
  H  271  1  0.11553800  0.66969900  0.48603800  1
  H  278  1  0.35472000  0.84706400  0.48824300  1
  H  279  1  0.30852100  0.78300000  0.58058400  1
  H  280  1  0.19197300  0.62879500  0.42680800  1
  H  281  1  0.25974500  0.68051300  0.45661000  1
  H  290  1  0.07860300  0.61740500  0.44230800  1
  H  291  1  0.36250900  0.88994300  0.54102300  1
  H  302  1  0.95693000  0.60689900  0.03023300  1
  H  303  1  0.91182900  0.44832000  0.00634200  1
  H  304  1  0.91540000  0.46507400  0.10285700  1
  H  305  1  0.95373700  0.34945600  0.06943100  1
  H  309  1  0.89513300  0.56328100  0.99267412  1
  H  310  1  0.89475600  0.33101400  0.10964100  1
  H  311  1  0.88265100  0.51462500  0.93543410  1
  H  312  1  0.89569500  0.37140400  0.17011100  1
  H  337  1  0.32367700  0.42329500  0.77631100  1
  H  338  1  0.34213700  0.38273100  0.73613800  1
  H  339  1  0.37469000  0.35162200  0.69697700  1
  H  340  1  0.41833800  0.33349000  0.65940800  1
  H  341  1  0.53319800  0.46522400  0.67302300  1
  H  342  1  0.45771300  0.53674300  0.76947700  1
  H  343  1  0.44095800  0.52352500  0.67304600  1
  H  344  1  0.55583100  0.65524800  0.65948600  1
  H  345  1  0.59946300  0.63707800  0.69703000  1
  H  346  1  0.51637600  0.45192200  0.76948500  1
  H  347  1  0.63200100  0.60593900  0.73618300  1
  H  348  1  0.65042900  0.56534500  0.77635400  1
  H  366  1  0.07957600  0.65782900  0.10958400  1
  H  367  1  0.02053100  0.63938400  0.06943100  1
  H  368  1  0.05884000  0.52373200  0.10280900  1
  H  369  1  0.06235900  0.54055300  0.00637200  1
  H  370  1  0.07916700  0.42566600  0.99269412  1
  H  371  1  0.01734000  0.38199100  0.03022100  1
  H  400  1  0.55817400  0.90215500  0.44308700  1
  H  401  1  0.59876300  0.96120000  0.40292900  1
  H  402  1  0.62981100  0.02474700  0.36365900  1
  H  403  1  0.64792600  0.08649400  0.32606600  1
  H  404  1  0.51619300  0.06961600  0.33966900  1
  H  405  1  0.44468500  0.92267000  0.43616600  1
  H  406  1  0.45800600  0.91918300  0.33967900  1
  H  407  1  0.32623700  0.90222800  0.32608300  1
  H  408  1  0.34434900  0.96400900  0.36364700  1
  H  409  1  0.52942900  0.06610100  0.43619400  1
  H  410  1  0.37541500  0.02763600  0.40283700  1
  H  411  1  0.41594700  0.08663500  0.44303500  1
  H  423  1  0.45537800  0.19007400  0.57580300  1
  H  424  1  0.43992100  0.12269400  0.54707800  1
  H  431  1  0.50208300  0.36195600  0.54938800  1
  H  432  1  0.51975900  0.31562300  0.64173700  1
  H  433  1  0.55750300  0.19904000  0.48806100  1
  H  434  1  0.57355200  0.26682800  0.51784500  1
  H  443  1  0.45548700  0.08571800  0.50350000  1
  H  444  1  0.46699300  0.36975600  0.60208800  1
  H  451  1  0.71404000  0.52561200  0.90925910  1
  H  452  1  0.66207100  0.54101500  0.88056800  1
  H  459  1  0.83984400  0.47980900  0.88263800  1
  H  460  1  0.77554500  0.46135300  0.97494410  1
  H  461  1  0.62148500  0.42391800  0.82112800  1
  H  462  1  0.67327400  0.40791500  0.85088500  1
  H  471  1  0.60980700  0.52570400  0.83680100  1
  H  478  1  0.79139400  0.26715800  0.24253400  1
  H  479  1  0.85877400  0.31908600  0.21380900  1
  H  486  1  0.61962800  0.14172700  0.21603400  1
  H  487  1  0.66573800  0.20587600  0.30836000  1
  H  488  1  0.78235400  0.36003000  0.15460100  1
  H  489  1  0.71456900  0.30829100  0.18438300  1
  H  498  1  0.61183900  0.09895000  0.26876100  1
  H  505  1  0.51847500  0.79875700  0.57592800  1
  H  506  1  0.53390600  0.86612700  0.54721900  1
  H  513  1  0.47232400  0.62702500  0.54938400  1
  H  514  1  0.45418500  0.67306800  0.64170300  1
  H  515  1  0.41663600  0.78967100  0.48792600  1
  H  516  1  0.40061100  0.72188400  0.51770000  1
  H  525  1  0.51849700  0.90310800  0.50351700  1
  H  526  1  0.50724800  0.61913700  0.60214300  1
  H  533  1  0.25976200  0.46283200  0.90913210  1
  H  534  1  0.31168700  0.44737300  0.88041200  1
  H  541  1  0.13442600  0.50930300  0.88269200  1
  H  542  1  0.19856800  0.52723400  0.97501110  1
  H  543  1  0.35273300  0.56480100  0.82125700  1
  H  544  1  0.30099400  0.58085500  0.85103600  1
  H  553  1  0.36414400  0.46286500  0.83679400  1
  H  554  1  0.09163800  0.47429400  0.93540710  1
  H  561  1  0.18289500  0.72160800  0.24249200  1
  H  562  1  0.11553800  0.66969900  0.21376200  1
  H  569  1  0.35472000  0.84706400  0.21596700  1
  H  570  1  0.30852100  0.78300000  0.30830800  1
  H  571  1  0.19197300  0.62879500  0.15453200  1
  H  572  1  0.25974500  0.68051300  0.18433400  1
  H  581  1  0.07860300  0.61740500  0.17003200  1
  H  582  1  0.36250900  0.88994300  0.26874700  1
  H  593  1  0.95693000  0.60689900  0.75795700  1
  H  594  1  0.91182900  0.44832000  0.73406600  1
  H  595  1  0.91540000  0.46507400  0.83058100  1
  H  596  1  0.95373700  0.34945600  0.79715500  1
  H  600  1  0.89513300  0.56328100  0.72039800  1
  H  601  1  0.89475600  0.33101400  0.83736500  1
  H  602  1  0.88265100  0.51462500  0.66315800  1
  H  603  1  0.89569500  0.37140400  0.89783500  1
  H  628  1  0.32367700  0.42329500  0.50403500  1
  H  629  1  0.34213700  0.38273100  0.46386200  1
  H  630  1  0.37469000  0.35162200  0.42470100  1
  H  631  1  0.41833800  0.33349000  0.38713200  1
  H  632  1  0.53319800  0.46522400  0.40074700  1
  H  633  1  0.45771300  0.53674300  0.49720100  1
  H  634  1  0.44095800  0.52352500  0.40077000  1
  H  635  1  0.55583100  0.65524800  0.38721000  1
  H  636  1  0.59946300  0.63707800  0.42475400  1
  H  637  1  0.51637600  0.45192200  0.49720900  1
  H  638  1  0.63200100  0.60593900  0.46390700  1
  H  639  1  0.65042900  0.56534500  0.50407800  1
  H  657  1  0.07957600  0.65782900  0.83730800  1
  H  658  1  0.02053100  0.63938400  0.79715500  1
  H  659  1  0.05884000  0.52373200  0.83053300  1
  H  660  1  0.06235900  0.54055300  0.73409600  1
  H  661  1  0.07916700  0.42566600  0.72041800  1
  H  662  1  0.01734000  0.38199100  0.75794500  1
  H  691  1  0.55817400  0.90215500  0.17081100  1
  H  692  1  0.59876300  0.96120000  0.13065300  1
  H  693  1  0.62981100  0.02474700  0.09138300  1
  H  694  1  0.64792600  0.08649400  0.05379000  1
  H  695  1  0.51619300  0.06961600  0.06739300  1
  H  696  1  0.44468500  0.92267000  0.16389000  1
  H  697  1  0.45800600  0.91918300  0.06740300  1
  H  698  1  0.32623700  0.90222800  0.05380700  1
  H  699  1  0.34434900  0.96400900  0.09137100  1
  H  700  1  0.52942900  0.06610100  0.16391800  1
  H  701  1  0.37541500  0.02763600  0.13056100  1
  H  702  1  0.41594700  0.08663500  0.17075900  1
  H  714  1  0.45537800  0.19007400  0.30352700  1
  H  715  1  0.43992100  0.12269400  0.27480200  1
  H  722  1  0.50208300  0.36195600  0.27711200  1
  H  723  1  0.51975900  0.31562300  0.36946100  1
  H  724  1  0.55750300  0.19904000  0.21578500  1
  H  725  1  0.57355200  0.26682800  0.24556900  1
  H  734  1  0.45548700  0.08571800  0.23122400  1
  H  735  1  0.46699300  0.36975600  0.32981200  1
  H  742  1  0.71404000  0.52561200  0.63698300  1
  H  743  1  0.66207100  0.54101500  0.60829200  1
  H  750  1  0.83984400  0.47980900  0.61036200  1
  H  751  1  0.77554500  0.46135300  0.70266800  1
  H  752  1  0.62148500  0.42391800  0.54885200  1
  H  753  1  0.67327400  0.40791500  0.57860900  1
  H  762  1  0.60980700  0.52570400  0.56452500  1
  H  769  1  0.79139400  0.26715800  0.97025820  1
  H  770  1  0.85877400  0.31908600  0.94153320  1
  H  777  1  0.61962800  0.14172700  0.94375820  1
  H  778  1  0.66573800  0.20587600  0.03608400  1
  H  779  1  0.78235400  0.36003000  0.88232500  1
  H  780  1  0.71456900  0.30829100  0.91210720  1
  H  789  1  0.61183900  0.09895000  0.99648524  1
  H  796  1  0.51847500  0.79875700  0.30365200  1
  H  797  1  0.53390600  0.86612700  0.27494300  1
  H  804  1  0.47232400  0.62702500  0.27710800  1
  H  805  1  0.45418500  0.67306800  0.36942700  1
  H  806  1  0.41663600  0.78967100  0.21565000  1
  H  807  1  0.40061100  0.72188400  0.24542400  1
  H  816  1  0.51849700  0.90310800  0.23124100  1
  H  817  1  0.50724800  0.61913700  0.32986700  1
  H  824  1  0.25976200  0.46283200  0.63685600  1
  H  825  1  0.31168700  0.44737300  0.60813600  1
  H  832  1  0.13442600  0.50930300  0.61041600  1
  H  833  1  0.19856800  0.52723400  0.70273500  1
  H  834  1  0.35273300  0.56480100  0.54898100  1
  H  835  1  0.30099400  0.58085500  0.57876000  1
  H  844  1  0.36414400  0.46286500  0.56451800  1
  H  845  1  0.09163800  0.47429400  0.66313100  1
  H  852  1  0.18289500  0.72160800  0.97021620  1
  H  853  1  0.11553800  0.66969900  0.94148620  1
  H  860  1  0.35472000  0.84706400  0.94369120  1
  H  861  1  0.30852100  0.78300000  0.03603200  1
  H  862  1  0.19197300  0.62879500  0.88225600  1
  H  863  1  0.25974500  0.68051300  0.91205820  1
  H  872  1  0.07860300  0.61740500  0.89775600  1
  H  873  1  0.36250900  0.88994300  0.99647124  1
  C  1  1  0.95887800  0.45190200  0.34487300  1
  C  2  1  0.96923500  0.41817300  0.33549400  1
  C  3  1  0.94628900  0.37398500  0.34901400  1
  C  4  1  0.91191000  0.36351000  0.37249600  1
  C  5  1  0.92390700  0.44104700  0.36856300  1
  C  6  1  0.97077600  0.55313100  0.31185300  1
  C  7  1  0.95866500  0.50783600  0.30501200  1
  C  8  1  0.94842200  0.57407300  0.29686800  1
  C  9  1  0.91244300  0.54839900  0.27486800  1
  C  10  1  0.92208400  0.48193200  0.28286100  1
  C  15  1  0.98708600  0.49441000  0.32522400  1
  C  16  1  0.90075200  0.39678000  0.38297400  1
  C  17  1  0.89901100  0.50238500  0.26738300  1
  C  22  1  0.52956200  0.50862000  0.01154600  1
  C  23  1  0.56329200  0.55272700  0.00220700  1
  C  24  1  0.54579000  0.56937700  0.97851300  1
  C  25  1  0.50048500  0.53620200  0.97169100  1
  C  26  1  0.47457000  0.54688600  0.94955800  1
  C  27  1  0.49500700  0.59040000  0.93406200  1
  C  28  1  0.54099100  0.62302100  0.94161400  1
  C  29  1  0.56669500  0.61270800  0.96357800  1
  C  30  1  0.60746600  0.57395700  0.01574900  1
  C  31  1  0.61794000  0.55001400  0.03919900  1
  C  32  1  0.58467200  0.50555900  0.04962200  1
  C  33  1  0.54040400  0.48446700  0.03521400  1
  C  34  1  0.44458300  0.48003200  0.01157500  1
  C  35  1  0.41086000  0.43593200  0.00221600  1
  C  36  1  0.42838200  0.41929300  0.97852900  1
  C  37  1  0.47364000  0.45253100  0.97163900  1
  C  38  1  0.40747900  0.37598000  0.96356500  1
  C  39  1  0.43318200  0.36569300  0.94158000  1
  C  40  1  0.47917900  0.39830900  0.93408500  1
  C  41  1  0.49959200  0.44184700  0.94954100  1
  C  42  1  0.43370100  0.50418500  0.03521600  1
  C  43  1  0.38944200  0.48306600  0.04963900  1
  C  44  1  0.35617800  0.43862700  0.03918200  1
  C  45  1  0.36667300  0.41469400  0.01573400  1
  C  58  1  0.48706700  0.49434800  0.99189100  1
  C  63  1  0.00337400  0.43568400  0.31179100  1
  C  64  1  0.01551500  0.48100200  0.30500200  1
  C  65  1  0.05208100  0.50692500  0.28284600  1
  C  66  1  0.07520300  0.48651400  0.26737800  1
  C  67  1  0.06179900  0.44050800  0.27485600  1
  C  68  1  0.02579800  0.41479400  0.29683100  1
  C  69  1  0.01528100  0.53688800  0.34490500  1
  C  70  1  0.00495300  0.57063900  0.33552900  1
  C  71  1  0.05032800  0.54776100  0.36853400  1
  C  72  1  0.07353900  0.59204600  0.38291500  1
  C  73  1  0.06238000  0.62532200  0.37246200  1
  C  74  1  0.02795700  0.61484400  0.34901600  1
  C  85  1  0.47276300  0.02258000  0.67823500  1
  C  86  1  0.42865200  0.01217200  0.66888600  1
  C  87  1  0.41204400  0.97804800  0.64516800  1
  C  88  1  0.44525500  0.96597300  0.63834100  1
  C  89  1  0.43462200  0.92940600  0.61618800  1
  C  90  1  0.39107900  0.90625700  0.60073300  1
  C  91  1  0.35844400  0.91960500  0.60824700  1
  C  92  1  0.36871600  0.95558900  0.63023200  1
  C  93  1  0.40740000  0.03510500  0.68240800  1
  C  94  1  0.43130200  0.06949700  0.70588500  1
  C  95  1  0.47574700  0.08069000  0.71634100  1
  C  96  1  0.49688000  0.05756200  0.70191800  1
  C  97  1  0.50137600  0.96619600  0.67822700  1
  C  98  1  0.54550900  0.97662600  0.66891800  1
  C  99  1  0.56215900  0.01080300  0.64524200  1
  C  100  1  0.52893900  0.02285100  0.63837100  1
  C  101  1  0.60546500  0.03320500  0.63027200  1
  C  102  1  0.61572900  0.06915400  0.60825000  1
  C  103  1  0.58310000  0.08250500  0.60071300  1
  C  104  1  0.53958200  0.05940800  0.61620500  1
  C  105  1  0.47724000  0.93121200  0.70190500  1
  C  106  1  0.49835400  0.90806600  0.71633100  1
  C  107  1  0.54282300  0.91928600  0.70591800  1
  C  108  1  0.56675400  0.95370000  0.68246200  1
  C  121  1  0.48708500  0.99440200  0.65856900  1
  C  126  1  0.49764100  0.15357700  0.78721100  1
  C  127  1  0.53656200  0.19629900  0.77957200  1
  C  128  1  0.54597800  0.23630800  0.79701500  1
  C  129  1  0.51671000  0.23498700  0.82257800  1
  C  130  1  0.47835000  0.19226900  0.83059400  1
  C  131  1  0.46923300  0.15240200  0.81346000  1
  C  134  1  0.52176900  0.27543000  0.83802400  1
  C  135  1  0.51506900  0.30715300  0.81915500  1
  C  136  1  0.51010500  0.34151800  0.83552300  1
  C  137  1  0.51128800  0.34522700  0.87037900  1
  C  138  1  0.52029900  0.31494700  0.88868200  1
  C  139  1  0.52536100  0.28018100  0.87305700  1
  C  150  1  0.49347200  0.37001700  0.88552900  1
  C  151  1  0.48291200  0.11433600  0.76792400  1
  C  154  1  0.63553300  0.48351500  0.12049500  1
  C  155  1  0.63957000  0.44477200  0.11271100  1
  C  156  1  0.67020900  0.43539500  0.13012700  1
  C  157  1  0.69793300  0.46449000  0.15584200  1
  C  158  1  0.69340000  0.50272400  0.16395600  1
  C  159  1  0.66261800  0.51181000  0.14683900  1
  C  162  1  0.73343000  0.45957100  0.17123500  1
  C  163  1  0.77196200  0.46654700  0.15238400  1
  C  164  1  0.81134900  0.47168400  0.16876200  1
  C  165  1  0.81381900  0.47027100  0.20360600  1
  C  166  1  0.77442600  0.46100600  0.22188600  1
  C  167  1  0.73454700  0.45581400  0.20626200  1
  C  178  1  0.85634900  0.48820000  0.21886100  1
  C  179  1  0.61105100  0.49830700  0.10123600  1
  C  181  1  0.82785300  0.34577500  0.45384500  1
  C  182  1  0.78511300  0.34189900  0.44615400  1
  C  183  1  0.74510300  0.31130500  0.46359700  1
  C  184  1  0.74644300  0.28343300  0.48921100  1
  C  185  1  0.78918200  0.28788300  0.49728500  1
  C  186  1  0.82904800  0.31863300  0.48015200  1
  C  189  1  0.70600600  0.24802700  0.50464700  1
  C  190  1  0.67435300  0.20955600  0.48578500  1
  C  191  1  0.64000600  0.17021900  0.50215600  1
  C  192  1  0.63625100  0.16773200  0.53701000  1
  C  193  1  0.66645300  0.20706600  0.55530500  1
  C  194  1  0.70119700  0.24690300  0.53967600  1
  C  205  1  0.61151800  0.12514800  0.55219600  1
  C  206  1  0.86709500  0.37026300  0.43455000  1
  C  208  1  0.47632300  0.83519100  0.78722000  1
  C  209  1  0.43752600  0.79243000  0.77947900  1
  C  210  1  0.42813700  0.75241800  0.79690700  1
  C  211  1  0.45727000  0.75377300  0.82258700  1
  C  212  1  0.49556200  0.79652200  0.83065200  1
  C  213  1  0.50466400  0.83639000  0.81352400  1
  C  216  1  0.45232100  0.71335300  0.83799100  1
  C  217  1  0.45918400  0.68172700  0.81913600  1
  C  218  1  0.46428100  0.64745100  0.83551400  1
  C  219  1  0.46294300  0.64361700  0.87035800  1
  C  220  1  0.45378900  0.67381500  0.88864500  1
  C  221  1  0.44863500  0.70852600  0.87302300  1
  C  232  1  0.48081300  0.61895700  0.88561000  1
  C  233  1  0.49110600  0.87445600  0.76795400  1
  C  236  1  0.33842600  0.50501600  0.12047600  1
  C  237  1  0.33457300  0.54389500  0.11279500  1
  C  238  1  0.30398300  0.55331700  0.13023500  1
  C  239  1  0.27608700  0.52409100  0.15583900  1
  C  240  1  0.28050100  0.48577500  0.16389400  1
  C  241  1  0.31125100  0.47665700  0.14676000  1
  C  244  1  0.24070100  0.52914400  0.17128700  1
  C  245  1  0.20223700  0.52236400  0.15243100  1
  C  246  1  0.16291300  0.51739000  0.16881200  1
  C  247  1  0.16042700  0.51863200  0.20366800  1
  C  248  1  0.19975600  0.52772800  0.22195500  1
  C  249  1  0.23958100  0.53280500  0.20631700  1
  C  260  1  0.11784500  0.50078500  0.21885600  1
  C  261  1  0.36294000  0.49027500  0.10119600  1
  C  264  1  0.14645900  0.64300000  0.45379800  1
  C  265  1  0.18921200  0.64693000  0.44608300  1
  C  266  1  0.22921700  0.67752900  0.46352600  1
  C  267  1  0.22787000  0.70533300  0.48918900  1
  C  268  1  0.18512800  0.70091100  0.49723100  1
  C  269  1  0.14526400  0.67015900  0.48009200  1
  C  272  1  0.26829100  0.74079800  0.50460000  1
  C  273  1  0.29996200  0.77925300  0.48573600  1
  C  274  1  0.33425200  0.81862200  0.50210900  1
  C  275  1  0.33805800  0.82115600  0.53695300  1
  C  276  1  0.30780200  0.78183600  0.55525000  1
  C  277  1  0.27307800  0.74197200  0.53963400  1
  C  288  1  0.36279600  0.86372200  0.55215900  1
  C  289  1  0.10722700  0.61858000  0.43448900  1
  C  292  1  0.95887800  0.45190200  0.07259700  1
  C  293  1  0.96923500  0.41817300  0.06321800  1
  C  294  1  0.94628900  0.37398500  0.07673800  1
  C  295  1  0.91191000  0.36351000  0.10022000  1
  C  296  1  0.92390700  0.44104700  0.09628700  1
  C  297  1  0.97077600  0.55313100  0.03957700  1
  C  298  1  0.95866500  0.50783600  0.03273600  1
  C  299  1  0.94842200  0.57407300  0.02459200  1
  C  300  1  0.91244300  0.54839900  0.00259200  1
  C  301  1  0.92208400  0.48193200  0.01058500  1
  C  306  1  0.98708600  0.49441000  0.05294800  1
  C  307  1  0.90075200  0.39678000  0.11069800  1
  C  308  1  0.89901100  0.50238500  0.99510712  1
  C  313  1  0.52956200  0.50862000  0.73927000  1
  C  314  1  0.56329200  0.55272700  0.72993100  1
  C  315  1  0.54579000  0.56937700  0.70623700  1
  C  316  1  0.50048500  0.53620200  0.69941500  1
  C  317  1  0.47457000  0.54688600  0.67728200  1
  C  318  1  0.49500700  0.59040000  0.66178600  1
  C  319  1  0.54099100  0.62302100  0.66933800  1
  C  320  1  0.56669500  0.61270800  0.69130200  1
  C  321  1  0.60746600  0.57395700  0.74347300  1
  C  322  1  0.61794000  0.55001400  0.76692300  1
  C  323  1  0.58467200  0.50555900  0.77734600  1
  C  324  1  0.54040400  0.48446700  0.76293800  1
  C  325  1  0.44458300  0.48003200  0.73929900  1
  C  326  1  0.41086000  0.43593200  0.72994000  1
  C  327  1  0.42838200  0.41929300  0.70625300  1
  C  328  1  0.47364000  0.45253100  0.69936300  1
  C  329  1  0.40747900  0.37598000  0.69128900  1
  C  330  1  0.43318200  0.36569300  0.66930400  1
  C  331  1  0.47917900  0.39830900  0.66180900  1
  C  332  1  0.49959200  0.44184700  0.67726500  1
  C  333  1  0.43370100  0.50418500  0.76294000  1
  C  334  1  0.38944200  0.48306600  0.77736300  1
  C  335  1  0.35617800  0.43862700  0.76690600  1
  C  336  1  0.36667300  0.41469400  0.74345800  1
  C  349  1  0.48706700  0.49434800  0.71961500  1
  C  354  1  0.00337400  0.43568400  0.03951500  1
  C  355  1  0.01551500  0.48100200  0.03272600  1
  C  356  1  0.05208100  0.50692500  0.01057000  1
  C  357  1  0.07520300  0.48651400  0.99510212  1
  C  358  1  0.06179900  0.44050800  0.00258000  1
  C  359  1  0.02579800  0.41479400  0.02455500  1
  C  360  1  0.01528100  0.53688800  0.07262900  1
  C  361  1  0.00495300  0.57063900  0.06325300  1
  C  362  1  0.05032800  0.54776100  0.09625800  1
  C  363  1  0.07353900  0.59204600  0.11063900  1
  C  364  1  0.06238000  0.62532200  0.10018600  1
  C  365  1  0.02795700  0.61484400  0.07674000  1
  C  376  1  0.47276300  0.02258000  0.40595900  1
  C  377  1  0.42865200  0.01217200  0.39661000  1
  C  378  1  0.41204400  0.97804800  0.37289200  1
  C  379  1  0.44525500  0.96597300  0.36606500  1
  C  380  1  0.43462200  0.92940600  0.34391200  1
  C  381  1  0.39107900  0.90625700  0.32845700  1
  C  382  1  0.35844400  0.91960500  0.33597100  1
  C  383  1  0.36871600  0.95558900  0.35795600  1
  C  384  1  0.40740000  0.03510500  0.41013200  1
  C  385  1  0.43130200  0.06949700  0.43360900  1
  C  386  1  0.47574700  0.08069000  0.44406500  1
  C  387  1  0.49688000  0.05756200  0.42964200  1
  C  388  1  0.50137600  0.96619600  0.40595100  1
  C  389  1  0.54550900  0.97662600  0.39664200  1
  C  390  1  0.56215900  0.01080300  0.37296600  1
  C  391  1  0.52893900  0.02285100  0.36609500  1
  C  392  1  0.60546500  0.03320500  0.35799600  1
  C  393  1  0.61572900  0.06915400  0.33597400  1
  C  394  1  0.58310000  0.08250500  0.32843700  1
  C  395  1  0.53958200  0.05940800  0.34392900  1
  C  396  1  0.47724000  0.93121200  0.42962900  1
  C  397  1  0.49835400  0.90806600  0.44405500  1
  C  398  1  0.54282300  0.91928600  0.43364200  1
  C  399  1  0.56675400  0.95370000  0.41018600  1
  C  412  1  0.48708500  0.99440200  0.38629300  1
  C  417  1  0.49764100  0.15357700  0.51493500  1
  C  418  1  0.53656200  0.19629900  0.50729600  1
  C  419  1  0.54597800  0.23630800  0.52473900  1
  C  420  1  0.51671000  0.23498700  0.55030200  1
  C  421  1  0.47835000  0.19226900  0.55831800  1
  C  422  1  0.46923300  0.15240200  0.54118400  1
  C  425  1  0.52176900  0.27543000  0.56574800  1
  C  426  1  0.51506900  0.30715300  0.54687900  1
  C  427  1  0.51010500  0.34151800  0.56324700  1
  C  428  1  0.51128800  0.34522700  0.59810300  1
  C  429  1  0.52029900  0.31494700  0.61640600  1
  C  430  1  0.52536100  0.28018100  0.60078100  1
  C  441  1  0.49347200  0.37001700  0.61325300  1
  C  442  1  0.48291200  0.11433600  0.49564800  1
  C  445  1  0.63553300  0.48351500  0.84821900  1
  C  446  1  0.63957000  0.44477200  0.84043500  1
  C  447  1  0.67020900  0.43539500  0.85785100  1
  C  448  1  0.69793300  0.46449000  0.88356600  1
  C  449  1  0.69340000  0.50272400  0.89168000  1
  C  450  1  0.66261800  0.51181000  0.87456300  1
  C  453  1  0.73343000  0.45957100  0.89895900  1
  C  454  1  0.77196200  0.46654700  0.88010800  1
  C  455  1  0.81134900  0.47168400  0.89648600  1
  C  456  1  0.81381900  0.47027100  0.93133010  1
  C  457  1  0.77442600  0.46100600  0.94961010  1
  C  458  1  0.73454700  0.45581400  0.93398610  1
  C  469  1  0.85634900  0.48820000  0.94658510  1
  C  470  1  0.61105100  0.49830700  0.82896000  1
  C  472  1  0.82785300  0.34577500  0.18156900  1
  C  473  1  0.78511300  0.34189900  0.17387800  1
  C  474  1  0.74510300  0.31130500  0.19132100  1
  C  475  1  0.74644300  0.28343300  0.21693500  1
  C  476  1  0.78918200  0.28788300  0.22500900  1
  C  477  1  0.82904800  0.31863300  0.20787600  1
  C  480  1  0.70600600  0.24802700  0.23237100  1
  C  481  1  0.67435300  0.20955600  0.21350900  1
  C  482  1  0.64000600  0.17021900  0.22988000  1
  C  483  1  0.63625100  0.16773200  0.26473400  1
  C  484  1  0.66645300  0.20706600  0.28302900  1
  C  485  1  0.70119700  0.24690300  0.26740000  1
  C  496  1  0.61151800  0.12514800  0.27992000  1
  C  497  1  0.86709500  0.37026300  0.16227400  1
  C  499  1  0.47632300  0.83519100  0.51494400  1
  C  500  1  0.43752600  0.79243000  0.50720300  1
  C  501  1  0.42813700  0.75241800  0.52463100  1
  C  502  1  0.45727000  0.75377300  0.55031100  1
  C  503  1  0.49556200  0.79652200  0.55837600  1
  C  504  1  0.50466400  0.83639000  0.54124800  1
  C  507  1  0.45232100  0.71335300  0.56571500  1
  C  508  1  0.45918400  0.68172700  0.54686000  1
  C  509  1  0.46428100  0.64745100  0.56323800  1
  C  510  1  0.46294300  0.64361700  0.59808200  1
  C  511  1  0.45378900  0.67381500  0.61636900  1
  C  512  1  0.44863500  0.70852600  0.60074700  1
  C  523  1  0.48081300  0.61895700  0.61333400  1
  C  524  1  0.49110600  0.87445600  0.49567800  1
  C  527  1  0.33842600  0.50501600  0.84820000  1
  C  528  1  0.33457300  0.54389500  0.84051900  1
  C  529  1  0.30398300  0.55331700  0.85795900  1
  C  530  1  0.27608700  0.52409100  0.88356300  1
  C  531  1  0.28050100  0.48577500  0.89161800  1
  C  532  1  0.31125100  0.47665700  0.87448400  1
  C  535  1  0.24070100  0.52914400  0.89901100  1
  C  536  1  0.20223700  0.52236400  0.88015500  1
  C  537  1  0.16291300  0.51739000  0.89653600  1
  C  538  1  0.16042700  0.51863200  0.93139210  1
  C  539  1  0.19975600  0.52772800  0.94967910  1
  C  540  1  0.23958100  0.53280500  0.93404110  1
  C  551  1  0.11784500  0.50078500  0.94658010  1
  C  552  1  0.36294000  0.49027500  0.82892000  1
  C  555  1  0.14645900  0.64300000  0.18152200  1
  C  556  1  0.18921200  0.64693000  0.17380700  1
  C  557  1  0.22921700  0.67752900  0.19125000  1
  C  558  1  0.22787000  0.70533300  0.21691300  1
  C  559  1  0.18512800  0.70091100  0.22495500  1
  C  560  1  0.14526400  0.67015900  0.20781600  1
  C  563  1  0.26829100  0.74079800  0.23232400  1
  C  564  1  0.29996200  0.77925300  0.21346000  1
  C  565  1  0.33425200  0.81862200  0.22983300  1
  C  566  1  0.33805800  0.82115600  0.26467700  1
  C  567  1  0.30780200  0.78183600  0.28297400  1
  C  568  1  0.27307800  0.74197200  0.26735800  1
  C  579  1  0.36279600  0.86372200  0.27988300  1
  C  580  1  0.10722700  0.61858000  0.16221300  1
  C  583  1  0.95887800  0.45190200  0.80032100  1
  C  584  1  0.96923500  0.41817300  0.79094200  1
  C  585  1  0.94628900  0.37398500  0.80446200  1
  C  586  1  0.91191000  0.36351000  0.82794400  1
  C  587  1  0.92390700  0.44104700  0.82401100  1
  C  588  1  0.97077600  0.55313100  0.76730100  1
  C  589  1  0.95866500  0.50783600  0.76046000  1
  C  590  1  0.94842200  0.57407300  0.75231600  1
  C  591  1  0.91244300  0.54839900  0.73031600  1
  C  592  1  0.92208400  0.48193200  0.73830900  1
  C  597  1  0.98708600  0.49441000  0.78067200  1
  C  598  1  0.90075200  0.39678000  0.83842200  1
  C  599  1  0.89901100  0.50238500  0.72283100  1
  C  604  1  0.52956200  0.50862000  0.46699400  1
  C  605  1  0.56329200  0.55272700  0.45765500  1
  C  606  1  0.54579000  0.56937700  0.43396100  1
  C  607  1  0.50048500  0.53620200  0.42713900  1
  C  608  1  0.47457000  0.54688600  0.40500600  1
  C  609  1  0.49500700  0.59040000  0.38951000  1
  C  610  1  0.54099100  0.62302100  0.39706200  1
  C  611  1  0.56669500  0.61270800  0.41902600  1
  C  612  1  0.60746600  0.57395700  0.47119700  1
  C  613  1  0.61794000  0.55001400  0.49464700  1
  C  614  1  0.58467200  0.50555900  0.50507000  1
  C  615  1  0.54040400  0.48446700  0.49066200  1
  C  616  1  0.44458300  0.48003200  0.46702300  1
  C  617  1  0.41086000  0.43593200  0.45766400  1
  C  618  1  0.42838200  0.41929300  0.43397700  1
  C  619  1  0.47364000  0.45253100  0.42708700  1
  C  620  1  0.40747900  0.37598000  0.41901300  1
  C  621  1  0.43318200  0.36569300  0.39702800  1
  C  622  1  0.47917900  0.39830900  0.38953300  1
  C  623  1  0.49959200  0.44184700  0.40498900  1
  C  624  1  0.43370100  0.50418500  0.49066400  1
  C  625  1  0.38944200  0.48306600  0.50508700  1
  C  626  1  0.35617800  0.43862700  0.49463000  1
  C  627  1  0.36667300  0.41469400  0.47118200  1
  C  640  1  0.48706700  0.49434800  0.44733900  1
  C  645  1  0.00337400  0.43568400  0.76723900  1
  C  646  1  0.01551500  0.48100200  0.76045000  1
  C  647  1  0.05208100  0.50692500  0.73829400  1
  C  648  1  0.07520300  0.48651400  0.72282600  1
  C  649  1  0.06179900  0.44050800  0.73030400  1
  C  650  1  0.02579800  0.41479400  0.75227900  1
  C  651  1  0.01528100  0.53688800  0.80035300  1
  C  652  1  0.00495300  0.57063900  0.79097700  1
  C  653  1  0.05032800  0.54776100  0.82398200  1
  C  654  1  0.07353900  0.59204600  0.83836300  1
  C  655  1  0.06238000  0.62532200  0.82791000  1
  C  656  1  0.02795700  0.61484400  0.80446400  1
  C  667  1  0.47276300  0.02258000  0.13368300  1
  C  668  1  0.42865200  0.01217200  0.12433400  1
  C  669  1  0.41204400  0.97804800  0.10061600  1
  C  670  1  0.44525500  0.96597300  0.09378900  1
  C  671  1  0.43462200  0.92940600  0.07163600  1
  C  672  1  0.39107900  0.90625700  0.05618100  1
  C  673  1  0.35844400  0.91960500  0.06369500  1
  C  674  1  0.36871600  0.95558900  0.08568000  1
  C  675  1  0.40740000  0.03510500  0.13785600  1
  C  676  1  0.43130200  0.06949700  0.16133300  1
  C  677  1  0.47574700  0.08069000  0.17178900  1
  C  678  1  0.49688000  0.05756200  0.15736600  1
  C  679  1  0.50137600  0.96619600  0.13367500  1
  C  680  1  0.54550900  0.97662600  0.12436600  1
  C  681  1  0.56215900  0.01080300  0.10069000  1
  C  682  1  0.52893900  0.02285100  0.09381900  1
  C  683  1  0.60546500  0.03320500  0.08572000  1
  C  684  1  0.61572900  0.06915400  0.06369800  1
  C  685  1  0.58310000  0.08250500  0.05616100  1
  C  686  1  0.53958200  0.05940800  0.07165300  1
  C  687  1  0.47724000  0.93121200  0.15735300  1
  C  688  1  0.49835400  0.90806600  0.17177900  1
  C  689  1  0.54282300  0.91928600  0.16136600  1
  C  690  1  0.56675400  0.95370000  0.13791000  1
  C  703  1  0.48708500  0.99440200  0.11401700  1
  C  708  1  0.49764100  0.15357700  0.24265900  1
  C  709  1  0.53656200  0.19629900  0.23502000  1
  C  710  1  0.54597800  0.23630800  0.25246300  1
  C  711  1  0.51671000  0.23498700  0.27802600  1
  C  712  1  0.47835000  0.19226900  0.28604200  1
  C  713  1  0.46923300  0.15240200  0.26890800  1
  C  716  1  0.52176900  0.27543000  0.29347200  1
  C  717  1  0.51506900  0.30715300  0.27460300  1
  C  718  1  0.51010500  0.34151800  0.29097100  1
  C  719  1  0.51128800  0.34522700  0.32582700  1
  C  720  1  0.52029900  0.31494700  0.34413000  1
  C  721  1  0.52536100  0.28018100  0.32850500  1
  C  732  1  0.49347200  0.37001700  0.34097700  1
  C  733  1  0.48291200  0.11433600  0.22337200  1
  C  736  1  0.63553300  0.48351500  0.57594300  1
  C  737  1  0.63957000  0.44477200  0.56815900  1
  C  738  1  0.67020900  0.43539500  0.58557500  1
  C  739  1  0.69793300  0.46449000  0.61129000  1
  C  740  1  0.69340000  0.50272400  0.61940400  1
  C  741  1  0.66261800  0.51181000  0.60228700  1
  C  744  1  0.73343000  0.45957100  0.62668300  1
  C  745  1  0.77196200  0.46654700  0.60783200  1
  C  746  1  0.81134900  0.47168400  0.62421000  1
  C  747  1  0.81381900  0.47027100  0.65905400  1
  C  748  1  0.77442600  0.46100600  0.67733400  1
  C  749  1  0.73454700  0.45581400  0.66171000  1
  C  760  1  0.85634900  0.48820000  0.67430900  1
  C  761  1  0.61105100  0.49830700  0.55668400  1
  C  763  1  0.82785300  0.34577500  0.90929320  1
  C  764  1  0.78511300  0.34189900  0.90160220  1
  C  765  1  0.74510300  0.31130500  0.91904520  1
  C  766  1  0.74644300  0.28343300  0.94465920  1
  C  767  1  0.78918200  0.28788300  0.95273320  1
  C  768  1  0.82904800  0.31863300  0.93560020  1
  C  771  1  0.70600600  0.24802700  0.96009520  1
  C  772  1  0.67435300  0.20955600  0.94123320  1
  C  773  1  0.64000600  0.17021900  0.95760420  1
  C  774  1  0.63625100  0.16773200  0.99245824  1
  C  775  1  0.66645300  0.20706600  0.01075300  1
  C  776  1  0.70119700  0.24690300  0.99512424  1
  C  787  1  0.61151800  0.12514800  0.00764400  1
  C  788  1  0.86709500  0.37026300  0.88999800  1
  C  790  1  0.47632300  0.83519100  0.24266800  1
  C  791  1  0.43752600  0.79243000  0.23492700  1
  C  792  1  0.42813700  0.75241800  0.25235500  1
  C  793  1  0.45727000  0.75377300  0.27803500  1
  C  794  1  0.49556200  0.79652200  0.28610000  1
  C  795  1  0.50466400  0.83639000  0.26897200  1
  C  798  1  0.45232100  0.71335300  0.29343900  1
  C  799  1  0.45918400  0.68172700  0.27458400  1
  C  800  1  0.46428100  0.64745100  0.29096200  1
  C  801  1  0.46294300  0.64361700  0.32580600  1
  C  802  1  0.45378900  0.67381500  0.34409300  1
  C  803  1  0.44863500  0.70852600  0.32847100  1
  C  814  1  0.48081300  0.61895700  0.34105800  1
  C  815  1  0.49110600  0.87445600  0.22340200  1
  C  818  1  0.33842600  0.50501600  0.57592400  1
  C  819  1  0.33457300  0.54389500  0.56824300  1
  C  820  1  0.30398300  0.55331700  0.58568300  1
  C  821  1  0.27608700  0.52409100  0.61128700  1
  C  822  1  0.28050100  0.48577500  0.61934200  1
  C  823  1  0.31125100  0.47665700  0.60220800  1
  C  826  1  0.24070100  0.52914400  0.62673500  1
  C  827  1  0.20223700  0.52236400  0.60787900  1
  C  828  1  0.16291300  0.51739000  0.62426000  1
  C  829  1  0.16042700  0.51863200  0.65911600  1
  C  830  1  0.19975600  0.52772800  0.67740300  1
  C  831  1  0.23958100  0.53280500  0.66176500  1
  C  842  1  0.11784500  0.50078500  0.67430400  1
  C  843  1  0.36294000  0.49027500  0.55664400  1
  C  846  1  0.14645900  0.64300000  0.90924620  1
  C  847  1  0.18921200  0.64693000  0.90153120  1
  C  848  1  0.22921700  0.67752900  0.91897420  1
  C  849  1  0.22787000  0.70533300  0.94463720  1
  C  850  1  0.18512800  0.70091100  0.95267920  1
  C  851  1  0.14526400  0.67015900  0.93554020  1
  C  854  1  0.26829100  0.74079800  0.96004820  1
  C  855  1  0.29996200  0.77925300  0.94118420  1
  C  856  1  0.33425200  0.81862200  0.95755720  1
  C  857  1  0.33805800  0.82115600  0.99240124  1
  C  858  1  0.30780200  0.78183600  0.01069800  1
  C  859  1  0.27307800  0.74197200  0.99508224  1
  C  870  1  0.36279600  0.86372200  0.00760700  1
  C  871  1  0.10722700  0.61858000  0.88993700  1
  N  59  1  0.50265200  0.38434700  0.91567700  1
  N  60  1  0.59823600  0.48485300  0.07123800  1
  N  61  1  0.47155300  0.60444200  0.91571200  1
  N  62  1  0.37583700  0.50377500  0.07122100  1
  N  81  1  0.86156600  0.47894300  0.24897500  1
  N  82  1  0.86648300  0.38320200  0.40458800  1
  N  83  1  0.11265000  0.50999900  0.24898200  1
  N  84  1  0.10781300  0.60561100  0.40452800  1
  N  122  1  0.59706600  0.11994400  0.58231200  1
  N  123  1  0.49643300  0.11496800  0.73795000  1
  N  124  1  0.37715100  0.86884900  0.58230200  1
  N  125  1  0.47765700  0.87380300  0.73795000  1
  N  144  1  0.53216300  0.24885100  0.89214800  1
  N  145  1  0.50985200  0.30211400  0.78432200  1
  N  172  1  0.69630200  0.44870200  0.22535100  1
  N  173  1  0.77218200  0.47190700  0.11756500  1
  N  199  1  0.73245800  0.28508100  0.55876000  1
  N  200  1  0.67945000  0.20934100  0.45096100  1
  N  226  1  0.44163400  0.73972700  0.89211600  1
  N  227  1  0.46447200  0.68681600  0.78431000  1
  N  254  1  0.27775200  0.53968400  0.22539300  1
  N  255  1  0.20202100  0.51708100  0.11760400  1
  N  282  1  0.24183900  0.70380200  0.55873800  1
  N  283  1  0.29491300  0.77942300  0.45090400  1
  N  350  1  0.50265200  0.38434700  0.64340100  1
  N  351  1  0.59823600  0.48485300  0.79896200  1
  N  352  1  0.47155300  0.60444200  0.64343600  1
  N  353  1  0.37583700  0.50377500  0.79894500  1
  N  372  1  0.86156600  0.47894300  0.97669910  1
  N  373  1  0.86648300  0.38320200  0.13231200  1
  N  374  1  0.11265000  0.50999900  0.97670610  1
  N  375  1  0.10781300  0.60561100  0.13225200  1
  N  413  1  0.59706600  0.11994400  0.31003600  1
  N  414  1  0.49643300  0.11496800  0.46567400  1
  N  415  1  0.37715100  0.86884900  0.31002600  1
  N  416  1  0.47765700  0.87380300  0.46567400  1
  N  435  1  0.53216300  0.24885100  0.61987200  1
  N  436  1  0.50985200  0.30211400  0.51204600  1
  N  463  1  0.69630200  0.44870200  0.95307510  1
  N  464  1  0.77218200  0.47190700  0.84528900  1
  N  490  1  0.73245800  0.28508100  0.28648400  1
  N  491  1  0.67945000  0.20934100  0.17868500  1
  N  517  1  0.44163400  0.73972700  0.61984000  1
  N  518  1  0.46447200  0.68681600  0.51203400  1
  N  545  1  0.27775200  0.53968400  0.95311710  1
  N  546  1  0.20202100  0.51708100  0.84532800  1
  N  573  1  0.24183900  0.70380200  0.28646200  1
  N  574  1  0.29491300  0.77942300  0.17862800  1
  N  641  1  0.50265200  0.38434700  0.37112500  1
  N  642  1  0.59823600  0.48485300  0.52668600  1
  N  643  1  0.47155300  0.60444200  0.37116000  1
  N  644  1  0.37583700  0.50377500  0.52666900  1
  N  663  1  0.86156600  0.47894300  0.70442300  1
  N  664  1  0.86648300  0.38320200  0.86003600  1
  N  665  1  0.11265000  0.50999900  0.70443000  1
  N  666  1  0.10781300  0.60561100  0.85997600  1
  N  704  1  0.59706600  0.11994400  0.03776000  1
  N  705  1  0.49643300  0.11496800  0.19339800  1
  N  706  1  0.37715100  0.86884900  0.03775000  1
  N  707  1  0.47765700  0.87380300  0.19339800  1
  N  726  1  0.53216300  0.24885100  0.34759600  1
  N  727  1  0.50985200  0.30211400  0.23977000  1
  N  754  1  0.69630200  0.44870200  0.68079900  1
  N  755  1  0.77218200  0.47190700  0.57301300  1
  N  781  1  0.73245800  0.28508100  0.01420800  1
  N  782  1  0.67945000  0.20934100  0.90640920  1
  N  808  1  0.44163400  0.73972700  0.34756400  1
  N  809  1  0.46447200  0.68681600  0.23975800  1
  N  836  1  0.27775200  0.53968400  0.68084100  1
  N  837  1  0.20202100  0.51708100  0.57305200  1
  N  864  1  0.24183900  0.70380200  0.01418600  1
  N  865  1  0.29491300  0.77942300  0.90635220  1
  O  146  1  0.53958500  0.33722700  0.76958500  1
  O  147  1  0.56861400  0.26890000  0.90850700  1
  O  148  1  0.49957400  0.22649100  0.91179300  1
  O  149  1  0.47091100  0.29386500  0.77512000  1
  O  174  1  0.77778900  0.44236200  0.10275500  1
  O  175  1  0.68003100  0.41217000  0.24160100  1
  O  176  1  0.70633300  0.48114700  0.24509400  1
  O  177  1  0.80274900  0.51095400  0.10845100  1
  O  201  1  0.64433500  0.20387900  0.43617700  1
  O  202  1  0.71233500  0.30145000  0.57506700  1
  O  203  1  0.75482700  0.27492700  0.57845300  1
  O  204  1  0.68778200  0.17868700  0.44181500  1
  O  228  1  0.43485500  0.65167200  0.76953800  1
  O  229  1  0.40513100  0.71953600  0.90840900  1
  O  230  1  0.47413200  0.76212300  0.91182300  1
  O  231  1  0.50347800  0.69521700  0.77515500  1
  O  256  1  0.19658000  0.54675700  0.10284000  1
  O  257  1  0.29414100  0.57616500  0.24171500  1
  O  258  1  0.26757800  0.50714000  0.24507100  1
  O  259  1  0.17134800  0.47810800  0.10844600  1
  O  284  1  0.33005800  0.78489500  0.43616400  1
  O  285  1  0.26198300  0.68747500  0.57506400  1
  O  286  1  0.21944700  0.71395100  0.57841100  1
  O  287  1  0.28656500  0.81004800  0.44170900  1
  O  437  1  0.53958500  0.33722700  0.49730900  1
  O  438  1  0.56861400  0.26890000  0.63623100  1
  O  439  1  0.49957400  0.22649100  0.63951700  1
  O  440  1  0.47091100  0.29386500  0.50284400  1
  O  465  1  0.77778900  0.44236200  0.83047900  1
  O  466  1  0.68003100  0.41217000  0.96932510  1
  O  467  1  0.70633300  0.48114700  0.97281810  1
  O  468  1  0.80274900  0.51095400  0.83617500  1
  O  492  1  0.64433500  0.20387900  0.16390100  1
  O  493  1  0.71233500  0.30145000  0.30279100  1
  O  494  1  0.75482700  0.27492700  0.30617700  1
  O  495  1  0.68778200  0.17868700  0.16953900  1
  O  519  1  0.43485500  0.65167200  0.49726200  1
  O  520  1  0.40513100  0.71953600  0.63613300  1
  O  521  1  0.47413200  0.76212300  0.63954700  1
  O  522  1  0.50347800  0.69521700  0.50287900  1
  O  547  1  0.19658000  0.54675700  0.83056400  1
  O  548  1  0.29414100  0.57616500  0.96943910  1
  O  549  1  0.26757800  0.50714000  0.97279510  1
  O  550  1  0.17134800  0.47810800  0.83617000  1
  O  575  1  0.33005800  0.78489500  0.16388800  1
  O  576  1  0.26198300  0.68747500  0.30278800  1
  O  577  1  0.21944700  0.71395100  0.30613500  1
  O  578  1  0.28656500  0.81004800  0.16943300  1
  O  728  1  0.53958500  0.33722700  0.22503300  1
  O  729  1  0.56861400  0.26890000  0.36395500  1
  O  730  1  0.49957400  0.22649100  0.36724100  1
  O  731  1  0.47091100  0.29386500  0.23056800  1
  O  756  1  0.77778900  0.44236200  0.55820300  1
  O  757  1  0.68003100  0.41217000  0.69704900  1
  O  758  1  0.70633300  0.48114700  0.70054200  1
  O  759  1  0.80274900  0.51095400  0.56389900  1
  O  783  1  0.64433500  0.20387900  0.89162500  1
  O  784  1  0.71233500  0.30145000  0.03051500  1
  O  785  1  0.75482700  0.27492700  0.03390100  1
  O  786  1  0.68778200  0.17868700  0.89726300  1
  O  810  1  0.43485500  0.65167200  0.22498600  1
  O  811  1  0.40513100  0.71953600  0.36385700  1
  O  812  1  0.47413200  0.76212300  0.36727100  1
  O  813  1  0.50347800  0.69521700  0.23060300  1
  O  838  1  0.19658000  0.54675700  0.55828800  1
  O  839  1  0.29414100  0.57616500  0.69716300  1
  O  840  1  0.26757800  0.50714000  0.70051900  1
  O  841  1  0.17134800  0.47810800  0.56389400  1
  O  866  1  0.33005800  0.78489500  0.89161200  1
  O  867  1  0.26198300  0.68747500  0.03051200  1
  O  868  1  0.21944700  0.71395100  0.03385900  1
  O  869  1  0.28656500  0.81004800  0.89715700  1
