# generated using pymatgen
data_SiH36(C12N)4
_symmetry_space_group_name_H-M   'P 1'
_cell_length_a   12.13016667
_cell_length_b   32.09347995
_cell_length_c   36.39120000
_cell_angle_alpha   90.01319081
_cell_angle_beta   90.06980000
_cell_angle_gamma   79.10672222
_symmetry_Int_Tables_number   1
_chemical_formula_structural   SiH36(C12N)4
_chemical_formula_sum   'Si9 H324 C432 N36'
_cell_volume   13911.77901371
_cell_formula_units_Z   9
loop_
 _symmetry_equiv_pos_site_id
 _symmetry_equiv_pos_as_xyz
  1  'x, y, z'
loop_
 _atom_site_type_symbol
 _atom_site_label
 _atom_site_symmetry_multiplicity
 _atom_site_fract_x
 _atom_site_fract_y
 _atom_site_fract_z
 _atom_site_occupancy
  C  1  1  0.03396100  0.04407000  0.87943200  1
  C  2  1  0.11707500  0.06022900  0.89896700  1
  C  3  1  0.09090300  0.08144800  0.93257400  1
  C  4  1  0.97974700  0.08936500  0.94655600  1
  C  5  1  0.89770500  0.07201500  0.92721800  1
  C  6  1  0.92414800  0.05004800  0.89401300  1
  C  8  1  0.96932500  0.07269000  0.01651400  1
  C  9  1  0.88985100  0.04567900  0.01873000  1
  C  10  1  0.89828200  0.01399100  0.04586400  1
  C  11  1  0.99131700  0.00650100  0.06984400  1
  C  12  1  0.07519500  0.03125300  0.06608900  1
  C  13  1  0.06366200  0.06383600  0.03991700  1
  C  14  1  0.02355200  0.15097900  0.99476200  1
  C  15  1  0.82434900  0.14275400  0.99166300  1
  C  16  1  0.78481300  0.15466400  0.02751200  1
  C  17  1  0.68888200  0.18595600  0.03290000  1
  C  18  1  0.62550300  0.20365400  0.00224800  1
  C  19  1  0.66900100  0.19481700  0.96651600  1
  C  20  1  0.76946500  0.16553200  0.96141900  1
  C  21  1  0.04882300  0.17638500  0.96528300  1
  C  22  1  0.11659900  0.20658400  0.97113000  1
  C  23  1  0.15866500  0.21172600  0.00661900  1
  C  24  1  0.11050500  0.19473400  0.03703800  1
  C  25  1  0.04239500  0.16467600  0.03092300  1
  C  42  1  0.19002800  0.32836000  0.54632400  1
  C  43  1  0.77604900  0.02046400  0.56621900  1
  C  44  1  0.73885900  0.00325100  0.59849600  1
  C  45  1  0.12085500  0.29519800  0.61351600  1
  C  46  1  0.21575900  0.27358800  0.59414400  1
  C  47  1  0.24923700  0.28972700  0.56092100  1
  C  49  1  0.16668400  0.29715400  0.68353900  1
  C  50  1  0.28275100  0.27974400  0.68577800  1
  C  51  1  0.35110300  0.29307100  0.71296900  1
  C  52  1  0.30651800  0.32646800  0.73700800  1
  C  53  1  0.86214700  0.01316400  0.73251200  1
  C  54  1  0.79481700  0.99897600  0.70572500  1
  C  55  1  0.94792800  0.28921500  0.66162100  1
  C  56  1  0.09959400  0.22549300  0.65853800  1
  C  57  1  0.09862800  0.20813900  0.69433000  1
  C  58  1  0.08991600  0.16566800  0.69966600  1
  C  59  1  0.09168700  0.13849700  0.66905200  1
  C  60  1  0.08269900  0.15625300  0.63339500  1
  C  61  1  0.08306500  0.19959100  0.62831400  1
  C  62  1  0.87162600  0.28943000  0.63210900  1
  C  63  1  0.75603800  0.30206600  0.63796500  1
  C  64  1  0.71587900  0.31417800  0.67345700  1
  C  65  1  0.78791900  0.30352600  0.70381000  1
  C  66  1  0.90343200  0.29075500  0.69775100  1
  C  83  1  0.42271800  0.28634700  0.21267300  1
  C  84  1  0.43089600  0.24806400  0.23235300  1
  C  85  1  0.48814000  0.24262700  0.26617000  1
  C  86  1  0.54461600  0.27412800  0.28022400  1
  C  87  1  0.20207300  0.97902100  0.25993800  1
  C  88  1  0.14205700  0.98498300  0.22670000  1
  C  90  1  0.50880200  0.28850600  0.35025500  1
  C  91  1  0.14333500  0.00043600  0.35135400  1
  C  92  1  0.07139000  0.01971200  0.37935800  1
  C  93  1  0.34794300  0.32528200  0.40384200  1
  C  94  1  0.37795000  0.28082300  0.40008600  1
  C  95  1  0.45741900  0.26296200  0.37381600  1
  C  96  1  0.67318400  0.21821700  0.32847200  1
  C  97  1  0.72083400  0.28997700  0.32566900  1
  C  98  1  0.76118200  0.29546300  0.36159000  1
  C  99  1  0.86653900  0.30619900  0.36729500  1
  C  100  1  0.92929300  0.31563300  0.33679800  1
  C  101  1  0.89482000  0.30678600  0.30100100  1
  C  102  1  0.79314400  0.29278600  0.29564800  1
  C  103  1  0.72292900  0.19263800  0.29896000  1
  C  104  1  0.77130100  0.14997100  0.30486800  1
  C  105  1  0.77077300  0.13266700  0.34040900  1
  C  106  1  0.74749100  0.16019200  0.37076500  1
  C  107  1  0.69977700  0.20290100  0.36461600  1
  C  124  1  0.04074100  0.95773600  0.17682000  1
  C  125  1  0.94877300  0.99093300  0.16920000  1
  C  126  1  0.92334300  0.00384100  0.13238600  1
  C  127  1  0.98921200  0.98368200  0.10301100  1
  C  128  1  0.41042300  0.28248900  0.11101400  1
  C  129  1  0.43521800  0.26957400  0.14749300  1
  C  131  1  0.77816700  0.06016800  0.15369600  1
  C  132  1  0.80301500  0.04712800  0.19040200  1
  C  136  1  0.69279000  0.09799300  0.14381900  1
  C  137  1  0.61378000  0.11583700  0.17599700  1
  C  140  1  0.67860200  0.11486400  0.21277300  1
  C  143  1  0.74118900  0.06921900  0.22203900  1
  C  148  1  0.38821600  0.35937600  0.84394000  1
  C  149  1  0.37246300  0.31760300  0.83635600  1
  C  150  1  0.35894700  0.30476800  0.79957500  1
  C  151  1  0.36143900  0.33344300  0.77014500  1
  C  152  1  0.05153500  0.04076100  0.77785800  1
  C  153  1  0.06500300  0.05347900  0.81429300  1
  C  155  1  0.32518700  0.23754200  0.82107500  1
  C  156  1  0.33950800  0.25022000  0.85774000  1
  C  160  1  0.29391900  0.19642200  0.81133900  1
  C  161  1  0.30546800  0.16418400  0.84359100  1
  C  164  1  0.26501800  0.18616200  0.88035600  1
  C  167  1  0.32994100  0.22224500  0.88945400  1
  C  172  1  0.21772800  0.34132500  0.51080200  1
  C  173  1  0.32557000  0.35008900  0.50319800  1
  C  174  1  0.36417400  0.34992700  0.46640100  1
  C  175  1  0.29535900  0.34121400  0.43699600  1
  C  176  1  0.86591500  0.01090000  0.44626700  1
  C  177  1  0.82851300  0.01186600  0.48285600  1
  C  179  1  0.54362600  0.36119500  0.48782100  1
  C  180  1  0.50483100  0.36170900  0.52450000  1
  C  184  1  0.66026800  0.36457700  0.47804100  1
  C  185  1  0.42748700  0.03538100  0.50865300  1
  C  188  1  0.70407200  0.35842800  0.54705200  1
  C  191  1  0.57667200  0.36793400  0.55618100  1
  C  196  1  0.50858200  0.20728900  0.00552300  1
  C  197  1  0.46568000  0.16934800  0.00899900  1
  C  198  1  0.34898300  0.17062500  0.01014700  1
  C  199  1  0.27498100  0.21061700  0.00824900  1
  C  200  1  0.31801600  0.24804600  0.00286800  1
  C  201  1  0.43446900  0.24650800  0.00167900  1
  C  203  1  0.38369400  0.09388300  0.01262900  1
  C  204  1  0.50023200  0.09313100  0.01320300  1
  C  208  1  0.33923900  0.05395100  0.01427400  1
  C  209  1  0.42551500  0.01350200  0.00404400  1
  C  212  1  0.53799600  0.01308400  0.02419700  1
  C  215  1  0.58541000  0.05352900  0.01514800  1
  C  220  1  0.16119800  0.09831900  0.67233000  1
  C  221  1  0.27822700  0.09684900  0.67584700  1
  C  222  1  0.35359900  0.05762800  0.67680600  1
  C  223  1  0.31052600  0.01943200  0.67474800  1
  C  224  1  0.19446400  0.02114800  0.66941200  1
  C  225  1  0.11982000  0.06039400  0.66832900  1
  C  227  1  0.50871700  0.09519600  0.67937800  1
  C  228  1  0.43228600  0.13415000  0.68017500  1
  C  232  1  0.63141200  0.09395100  0.68084000  1
  C  233  1  0.66744900  0.13639500  0.67082100  1
  C  236  1  0.59325200  0.17372000  0.69122200  1
  C  239  1  0.46727300  0.17584600  0.68221400  1
  C  244  1  0.64442200  0.01886100  0.33992800  1
  C  245  1  0.57011600  0.05843900  0.34337400  1
  C  246  1  0.61193100  0.09650700  0.34443500  1
  C  247  1  0.72988100  0.09457200  0.34254400  1
  C  248  1  0.80301200  0.05525300  0.33740000  1
  C  249  1  0.76066500  0.01744000  0.33623200  1
  C  251  1  0.42131800  0.13612300  0.34677900  1
  C  252  1  0.38080800  0.09777600  0.34741900  1
  C  256  1  0.34295100  0.17756900  0.34837000  1
  C  257  1  0.21965400  0.17576700  0.33827700  1
  C  260  1  0.18152900  0.13858000  0.35849900  1
  C  263  1  0.26006300  0.09585200  0.34932600  1
  C  268  1  0.36721000  0.37742200  0.87940200  1
  C  269  1  0.45035000  0.39356300  0.89893700  1
  C  270  1  0.42423300  0.41474000  0.93256600  1
  C  271  1  0.31310700  0.42263200  0.94657500  1
  C  272  1  0.23104300  0.40528800  0.92724300  1
  C  273  1  0.25743500  0.38336500  0.89401500  1
  C  275  1  0.30280200  0.40596700  0.01655700  1
  C  276  1  0.22338600  0.37893500  0.01881900  1
  C  277  1  0.23189800  0.34727700  0.04599000  1
  C  278  1  0.32496700  0.33982400  0.06996200  1
  C  279  1  0.40880300  0.36458700  0.06614600  1
  C  280  1  0.39718500  0.39714200  0.03994400  1
  C  281  1  0.35691200  0.48426200  0.99476500  1
  C  282  1  0.15772900  0.47602200  0.99167600  1
  C  283  1  0.11818400  0.48794000  0.02752500  1
  C  284  1  0.02226900  0.51924600  0.03290700  1
  C  285  1  0.95890600  0.53694500  0.00225200  1
  C  286  1  0.00241800  0.52809800  0.96652200  1
  C  287  1  0.10286800  0.49880500  0.96143300  1
  C  288  1  0.38219100  0.50965600  0.96527400  1
  C  289  1  0.44998100  0.53985500  0.97111100  1
  C  290  1  0.49205000  0.54501100  0.00659600  1
  C  291  1  0.44388600  0.52803200  0.03702200  1
  C  292  1  0.37576200  0.49797600  0.03091800  1
  C  309  1  0.52322800  0.66181200  0.54630000  1
  C  310  1  0.09722400  0.35073300  0.56589800  1
  C  311  1  0.06543600  0.33496000  0.59954600  1
  C  312  1  0.45386700  0.62881200  0.61352200  1
  C  313  1  0.54880800  0.60714300  0.59419300  1
  C  314  1  0.58237800  0.62320500  0.56095700  1
  C  316  1  0.49983500  0.63072200  0.68355500  1
  C  317  1  0.61590300  0.61325100  0.68573400  1
  C  318  1  0.68441600  0.62650200  0.71291700  1
  C  319  1  0.63997100  0.65984100  0.73703200  1
  C  320  1  0.19278000  0.34612200  0.73322700  1
  C  321  1  0.12443500  0.33147200  0.70698400  1
  C  322  1  0.28073500  0.62293500  0.66164900  1
  C  323  1  0.43242000  0.55923900  0.65855200  1
  C  324  1  0.43144900  0.54193600  0.69436000  1
  C  325  1  0.42227900  0.49953100  0.69971800  1
  C  326  1  0.42378900  0.47240800  0.66909600  1
  C  327  1  0.41496600  0.49008800  0.63341900  1
  C  328  1  0.41568300  0.53338200  0.62832200  1
  C  329  1  0.20441200  0.62312900  0.63214200  1
  C  330  1  0.08879200  0.63572300  0.63799800  1
  C  331  1  0.04852400  0.64785700  0.67348100  1
  C  332  1  0.12060700  0.63716700  0.70382100  1
  C  333  1  0.23615700  0.62442300  0.69776700  1
  C  350  1  0.75595800  0.61965800  0.21263300  1
  C  351  1  0.76401000  0.58140000  0.23234000  1
  C  352  1  0.82117700  0.57598600  0.26617000  1
  C  353  1  0.87771400  0.60748200  0.28020000  1
  C  354  1  0.53315500  0.31288800  0.26075600  1
  C  355  1  0.47387700  0.31878300  0.22736700  1
  C  357  1  0.84198300  0.62187900  0.35021600  1
  C  358  1  0.47203600  0.33299900  0.35247800  1
  C  359  1  0.39579900  0.35130400  0.37974300  1
  C  360  1  0.68125100  0.65865100  0.40381500  1
  C  361  1  0.71091900  0.61419300  0.39997000  1
  C  362  1  0.79029100  0.59632600  0.37367300  1
  C  363  1  0.00619800  0.55156300  0.32840600  1
  C  364  1  0.05401900  0.62328400  0.32565000  1
  C  365  1  0.09433900  0.62874200  0.36157900  1
  C  366  1  0.19967700  0.63948300  0.36729800  1
  C  367  1  0.26247600  0.64889700  0.33680700  1
  C  368  1  0.22803800  0.64007000  0.30100100  1
  C  369  1  0.12633600  0.62609600  0.29563500  1
  C  370  1  0.05596700  0.52601700  0.29887700  1
  C  371  1  0.10401500  0.48331700  0.30473800  1
  C  372  1  0.10314400  0.46596600  0.34025000  1
  C  373  1  0.07999300  0.49344200  0.37064400  1
  C  374  1  0.03256000  0.53618300  0.36454100  1
  C  391  1  0.37432300  0.29133700  0.17708100  1
  C  392  1  0.28220600  0.32443100  0.16935400  1
  C  393  1  0.25688100  0.33725000  0.13251100  1
  C  394  1  0.32293100  0.31707700  0.10318300  1
  C  395  1  0.74384900  0.61581500  0.11098000  1
  C  396  1  0.76860600  0.60289100  0.14745800  1
  C  398  1  0.11133900  0.39351500  0.15369800  1
  C  399  1  0.13600100  0.38052500  0.19042400  1
  C  403  1  0.02596400  0.43131600  0.14375700  1
  C  404  1  0.94682800  0.44920900  0.17589200  1
  C  407  1  0.01146900  0.44825700  0.21270200  1
  C  410  1  0.07391900  0.40260600  0.22201300  1
  C  415  1  0.72166200  0.69269500  0.84395400  1
  C  416  1  0.70589800  0.65092800  0.83636100  1
  C  417  1  0.69244700  0.63809000  0.79957800  1
  C  418  1  0.69504600  0.66676200  0.77015000  1
  C  419  1  0.38384400  0.37416900  0.77780900  1
  C  420  1  0.39785400  0.38685200  0.81422700  1
  C  422  1  0.65856900  0.57087800  0.82106400  1
  C  423  1  0.67285300  0.58355100  0.85773500  1
  C  427  1  0.62728600  0.52976100  0.81132200  1
  C  428  1  0.63881100  0.49751900  0.84357200  1
  C  431  1  0.59833700  0.51949300  0.88033400  1
  C  434  1  0.66325000  0.55557700  0.88944600  1
  C  439  1  0.55101600  0.67471400  0.51077200  1
  C  440  1  0.65887700  0.68345900  0.50317600  1
  C  441  1  0.69751400  0.68326800  0.46638200  1
  C  442  1  0.62869400  0.67455500  0.43697900  1
  C  443  1  0.18550100  0.33505500  0.44469500  1
  C  444  1  0.14689500  0.33542900  0.48112700  1
  C  446  1  0.87696000  0.69453600  0.48780700  1
  C  447  1  0.83812400  0.69508200  0.52448100  1
  C  451  1  0.99362200  0.69789900  0.47803000  1
  C  452  1  0.72794600  0.37924900  0.51025000  1
  C  455  1  0.03735200  0.69179100  0.54704700  1
  C  458  1  0.90993500  0.70133300  0.55615900  1
  C  463  1  0.84197900  0.54058100  0.00552100  1
  C  464  1  0.79907400  0.50264100  0.00899500  1
  C  465  1  0.68237500  0.50391600  0.01013200  1
  C  466  1  0.60837300  0.54390300  0.00822700  1
  C  467  1  0.65140500  0.58133600  0.00285200  1
  C  468  1  0.76786000  0.57980100  0.00167100  1
  C  470  1  0.71710400  0.42717200  0.01261500  1
  C  471  1  0.83364400  0.42642300  0.01320100  1
  C  475  1  0.67266700  0.38723600  0.01425100  1
  C  476  1  0.75895800  0.34679500  0.00401800  1
  C  479  1  0.87142100  0.34637600  0.02418400  1
  C  482  1  0.91883100  0.38682700  0.01515000  1
  C  487  1  0.49289600  0.43222100  0.67240100  1
  C  488  1  0.61001200  0.43056100  0.67597400  1
  C  489  1  0.68479700  0.39123400  0.67712000  1
  C  490  1  0.64082200  0.35324000  0.67511900  1
  C  491  1  0.52477300  0.35512800  0.66968400  1
  C  492  1  0.45073800  0.39446700  0.66848600  1
  C  494  1  0.84077600  0.42835900  0.67971600  1
  C  495  1  0.76487500  0.46746400  0.68028200  1
  C  499  1  0.96360700  0.42681100  0.68138400  1
  C  500  1  0.00047400  0.46906300  0.67118400  1
  C  503  1  0.92656100  0.50668300  0.69132100  1
  C  506  1  0.80053200  0.50905000  0.68223100  1
  C  511  1  0.97679500  0.35215400  0.34005200  1
  C  512  1  0.90249400  0.39173200  0.34351200  1
  C  513  1  0.94425300  0.42981600  0.34442100  1
  C  514  1  0.06216700  0.42788900  0.34231900  1
  C  515  1  0.13515900  0.38859700  0.33692200  1
  C  516  1  0.09290000  0.35076100  0.33596900  1
  C  518  1  0.75358500  0.46936200  0.34691600  1
  C  519  1  0.71309500  0.43099900  0.34769100  1
  C  523  1  0.67521200  0.51080200  0.34839700  1
  C  524  1  0.55196900  0.50891400  0.33830200  1
  C  527  1  0.51380700  0.47178600  0.35862000  1
  C  530  1  0.59232200  0.42899400  0.34960900  1
  C  535  1  0.70061500  0.71074400  0.87941000  1
  C  536  1  0.78373100  0.72689500  0.89895100  1
  C  537  1  0.75758600  0.74808100  0.93257400  1
  C  538  1  0.64644900  0.75597600  0.94657200  1
  C  539  1  0.56440000  0.73862900  0.92723500  1
  C  540  1  0.59082400  0.71669300  0.89401300  1
  C  542  1  0.63614100  0.73930500  0.01654600  1
  C  543  1  0.55674400  0.71226700  0.01880000  1
  C  544  1  0.56528800  0.68059600  0.04595900  1
  C  545  1  0.65835700  0.67314300  0.06993000  1
  C  546  1  0.74217600  0.69791500  0.06612300  1
  C  547  1  0.73053100  0.73048000  0.03992900  1
  C  548  1  0.69022700  0.81760700  0.99476200  1
  C  549  1  0.49104900  0.80936000  0.99167400  1
  C  550  1  0.45150800  0.82127800  0.02752200  1
  C  551  1  0.35560000  0.85258000  0.03290600  1
  C  552  1  0.29223300  0.87028300  0.00225200  1
  C  553  1  0.33573800  0.86144000  0.96652200  1
  C  554  1  0.43619100  0.83214300  0.96143000  1
  C  555  1  0.71550400  0.84300400  0.96527400  1
  C  556  1  0.78330400  0.87319600  0.97111600  1
  C  557  1  0.82538200  0.87834600  0.00660000  1
  C  558  1  0.77721500  0.86136700  0.03702400  1
  C  559  1  0.70907800  0.83131800  0.03091800  1
  C  576  1  0.87268400  0.99933600  0.54763200  1
  C  577  1  0.43036900  0.68423300  0.56581800  1
  C  578  1  0.39846800  0.66853600  0.59948000  1
  C  579  1  0.79289700  0.96319100  0.61222200  1
  C  580  1  0.89038900  0.94239400  0.59363200  1
  C  581  1  0.92896400  0.95995400  0.56179200  1
  C  583  1  0.83730600  0.96462800  0.68235200  1
  C  584  1  0.95296000  0.94677300  0.68516300  1
  C  585  1  0.02036600  0.95968400  0.71285400  1
  C  586  1  0.97530500  0.99306500  0.73684000  1
  C  587  1  0.52619800  0.67949200  0.73336100  1
  C  588  1  0.45769900  0.66491500  0.70713000  1
  C  589  1  0.61890000  0.95707600  0.66058800  1
  C  590  1  0.77014700  0.89325300  0.65716400  1
  C  591  1  0.76798400  0.87613400  0.69302200  1
  C  592  1  0.75678300  0.83397000  0.69856400  1
  C  593  1  0.75833500  0.80662800  0.66809000  1
  C  594  1  0.75133300  0.82408900  0.63231800  1
  C  595  1  0.75361500  0.86726900  0.62700900  1
  C  596  1  0.54193100  0.95665100  0.63140500  1
  C  597  1  0.42622100  0.96797900  0.63778000  1
  C  598  1  0.38635000  0.98042100  0.67323400  1
  C  599  1  0.45974400  0.97045400  0.70332400  1
  C  600  1  0.57524800  0.95837400  0.69686100  1
  C  617  1  0.08963000  0.95273200  0.21231900  1
  C  618  1  0.09747000  0.91453800  0.23210200  1
  C  619  1  0.15539400  0.90905500  0.26579300  1
  C  620  1  0.21287300  0.94039900  0.27957900  1
  C  621  1  0.86634300  0.64622600  0.26071500  1
  C  622  1  0.80713000  0.65209600  0.22731400  1
  C  624  1  0.17740500  0.95579400  0.34947500  1
  C  625  1  0.80561300  0.66638400  0.35253000  1
  C  626  1  0.72938300  0.68467700  0.37979800  1
  C  627  1  0.02546400  0.99446100  0.40461400  1
  C  628  1  0.05089100  0.94992700  0.40094600  1
  C  629  1  0.12588700  0.93107600  0.37377400  1
  C  630  1  0.34001200  0.88454000  0.32809800  1
  C  631  1  0.38955400  0.95600100  0.32514200  1
  C  632  1  0.42952100  0.96153400  0.36111200  1
  C  633  1  0.53430500  0.97268800  0.36693200  1
  C  634  1  0.59700200  0.98233700  0.33650700  1
  C  635  1  0.56299200  0.97344600  0.30066100  1
  C  636  1  0.46182500  0.95909700  0.29518100  1
  C  637  1  0.39021900  0.85886600  0.29870100  1
  C  638  1  0.43845400  0.81621400  0.30473000  1
  C  639  1  0.43732900  0.79900600  0.34028500  1
  C  640  1  0.41368200  0.82661800  0.37057600  1
  C  641  1  0.36588000  0.86929300  0.36430000  1
  C  658  1  0.70761100  0.62462700  0.17703900  1
  C  659  1  0.61545500  0.65770000  0.16930800  1
  C  660  1  0.59019400  0.67054100  0.13246700  1
  C  661  1  0.65632300  0.65039200  0.10314600  1
  C  662  1  0.07657300  0.94902000  0.11074300  1
  C  663  1  0.10144000  0.93600100  0.14718600  1
  C  665  1  0.44457700  0.72678100  0.15365700  1
  C  666  1  0.46913300  0.71374600  0.19037900  1
  C  670  1  0.35929300  0.76461600  0.14373000  1
  C  671  1  0.28020000  0.78254400  0.17586800  1
  C  674  1  0.34479200  0.78148100  0.21269900  1
  C  677  1  0.40689700  0.73577300  0.22196200  1
  C  682  1  0.05502800  0.02601500  0.84398100  1
  C  683  1  0.03923300  0.98425400  0.83637000  1
  C  684  1  0.02604900  0.97139600  0.79957200  1
  C  685  1  0.02918500  0.00003700  0.77016100  1
  C  686  1  0.71747100  0.70748200  0.77782300  1
  C  687  1  0.73139100  0.72016800  0.81424600  1
  C  689  1  0.99194500  0.90420600  0.82105000  1
  C  690  1  0.00611200  0.91688600  0.85772400  1
  C  694  1  0.96067800  0.86308300  0.81131400  1
  C  695  1  0.97213600  0.83085100  0.84357200  1
  C  698  1  0.93159400  0.85283400  0.88032500  1
  C  701  1  0.99648400  0.88891900  0.88943700  1
  C  706  1  0.90354700  0.01299700  0.51250000  1
  C  707  1  0.01541100  0.01721300  0.50452800  1
  C  708  1  0.05382900  0.01525700  0.46762400  1
  C  709  1  0.97963100  0.01104200  0.43839700  1
  C  710  1  0.51881800  0.66841200  0.44467300  1
  C  711  1  0.48018800  0.66880500  0.48110000  1
  C  713  1  0.23970100  0.01899400  0.48833000  1
  C  714  1  0.19998400  0.02347700  0.52492900  1
  C  718  1  0.35937500  0.01695000  0.47859100  1
  C  719  1  0.06129100  0.71258100  0.51023900  1
  C  722  1  0.39910500  0.02087800  0.54753600  1
  C  725  1  0.27127000  0.03341100  0.55548900  1
  C  730  1  0.17530500  0.87391900  0.00552100  1
  C  731  1  0.13240600  0.83597900  0.00899600  1
  C  732  1  0.01570900  0.83725100  0.01013400  1
  C  733  1  0.94170000  0.87724200  0.00823000  1
  C  734  1  0.98473200  0.91467100  0.00285100  1
  C  735  1  0.10118900  0.91313500  0.00166800  1
  C  737  1  0.05044700  0.76050700  0.01261600  1
  C  738  1  0.16698200  0.75976200  0.01320100  1
  C  742  1  0.00601400  0.72057100  0.01425100  1
  C  743  1  0.09231400  0.68013000  0.00402000  1
  C  746  1  0.20477200  0.67971400  0.02418600  1
  C  749  1  0.25217800  0.72016500  0.01514900  1
  C  754  1  0.82659600  0.76627300  0.67184600  1
  C  755  1  0.94372700  0.76432800  0.67573500  1
  C  756  1  0.01807800  0.72490500  0.67709800  1
  C  757  1  0.97367200  0.68700900  0.67511100  1
  C  758  1  0.85755600  0.68912900  0.66954900  1
  C  759  1  0.78399500  0.72858600  0.66806500  1
  C  761  1  0.17458900  0.76175700  0.67978200  1
  C  762  1  0.09905400  0.80094200  0.68024400  1
  C  766  1  0.29745800  0.76008200  0.68147500  1
  C  767  1  0.33472200  0.80224900  0.67122800  1
  C  770  1  0.26103700  0.83996100  0.69131800  1
  C  773  1  0.13504100  0.84245200  0.68215700  1
  C  778  1  0.31021400  0.68535300  0.34007900  1
  C  779  1  0.23613600  0.72497800  0.34357500  1
  C  780  1  0.27825500  0.76297600  0.34451500  1
  C  781  1  0.39619500  0.76095800  0.34239600  1
  C  782  1  0.46891600  0.72161800  0.33693000  1
  C  783  1  0.42635900  0.68384600  0.33596600  1
  C  785  1  0.08789600  0.80276900  0.34708700  1
  C  786  1  0.04697600  0.76448600  0.34778700  1
  C  790  1  0.01013100  0.84434900  0.34862500  1
  C  791  1  0.88675000  0.84266500  0.33851600  1
  C  794  1  0.84805200  0.80557100  0.35873500  1
  C  797  1  0.92607400  0.76268100  0.34968600  1
  H  26  1  0.65539100  0.18978300  0.05881700  1
  H  27  1  0.82319800  0.14002900  0.05041400  1
  H  28  1  0.62194900  0.20559200  0.94384900  1
  H  29  1  0.79805400  0.15964600  0.93513200  1
  H  30  1  0.02819400  0.17064800  0.93871600  1
  H  31  1  0.15052600  0.21853600  0.94877300  1
  H  32  1  0.14254900  0.19692600  0.06288000  1
  H  33  1  0.01698800  0.15010300  0.05350400  1
  H  34  1  0.12291000  0.08234400  0.03972200  1
  H  35  1  0.14042300  0.02831500  0.08441200  1
  H  36  1  0.83431500  0.99754400  0.04891000  1
  H  37  1  0.82127500  0.05032600  0.00196700  1
  H  38  1  0.81695200  0.07563700  0.93661600  1
  H  39  1  0.15424100  0.09209100  0.94603600  1
  H  40  1  0.19716400  0.05651900  0.88894300  1
  H  41  1  0.86157800  0.03932000  0.88009200  1
  H  67  1  0.10394600  0.15318400  0.72555400  1
  H  68  1  0.10714500  0.22575800  0.71726400  1
  H  69  1  0.08841700  0.13708300  0.61068300  1
  H  70  1  0.07720800  0.21114700  0.60203800  1
  H  71  1  0.89864000  0.28456900  0.60554200  1
  H  72  1  0.70565700  0.30941200  0.61553600  1
  H  73  1  0.76185000  0.31318700  0.72973900  1
  H  74  1  0.95441100  0.28695900  0.72035800  1
  H  75  1  0.71236700  0.01276200  0.70517000  1
  H  76  1  0.82508200  0.03586300  0.75075300  1
  H  77  1  0.43222400  0.27730500  0.71598300  1
  H  78  1  0.31767800  0.25544700  0.66895300  1
  H  79  1  0.26101200  0.24540700  0.60351700  1
  H  80  1  0.66991300  0.02028300  0.61135100  1
  H  81  1  0.73223200  0.04868800  0.55641700  1
  H  82  1  0.31569800  0.27238100  0.54696700  1
  H  108  1  0.88553100  0.31527900  0.39319400  1
  H  109  1  0.71363500  0.29268900  0.38437300  1
  H  110  1  0.93625100  0.31504900  0.27840800  1
  H  111  1  0.77055500  0.28697300  0.26931300  1
  H  112  1  0.71611100  0.20324000  0.27237600  1
  H  113  1  0.78740400  0.13066000  0.28250500  1
  H  114  1  0.74300800  0.14831100  0.39674700  1
  H  115  1  0.67492700  0.22115500  0.38722000  1
  H  116  1  0.48116100  0.23088700  0.37367000  1
  H  117  1  0.34981500  0.26103600  0.41847200  1
  H  118  1  0.05654300  0.05202500  0.38215800  1
  H  119  1  0.17652800  0.01957900  0.33388800  1
  H  120  1  0.23886300  0.00324700  0.26918300  1
  H  121  1  0.49080700  0.21452700  0.27967700  1
  H  122  1  0.39496700  0.22399100  0.22227100  1
  H  123  1  0.13949900  0.01274900  0.21257000  1
  H  134  1  0.50572567  0.24707800  0.15237800  1
  H  135  1  0.46372500  0.26921900  0.09058500  1
  H  138  1  0.64144200  0.08991500  0.12114900  1
  H  139  1  0.73688500  0.12261500  0.13412600  1
  H  141  1  0.54833200  0.09683400  0.17889800  1
  H  142  1  0.57269100  0.14841800  0.16977500  1
  H  144  1  0.61996200  0.12659200  0.23488400  1
  H  145  1  0.73934000  0.13599800  0.21070400  1
  H  146  1  0.68085700  0.05027400  0.23155200  1
  H  147  1  0.80032300  0.07081700  0.24439000  1
  H  158  1  0.07041400  0.08449300  0.81905500  1
  H  159  1  0.04702000  0.06287800  0.75735100  1
  H  162  1  0.34675400  0.18199100  0.78866000  1
  H  163  1  0.20694900  0.20284800  0.80170500  1
  H  165  1  0.39349200  0.14872200  0.84643800  1
  H  166  1  0.25678700  0.13960600  0.83748500  1
  H  168  1  0.27701900  0.16275000  0.90252300  1
  H  169  1  0.17519500  0.19936500  0.87832200  1
  H  170  1  0.41459300  0.20845700  0.89882400  1
  H  171  1  0.28728500  0.24138900  0.91187100  1
  H  182  1  0.74871600  0.00701200  0.48762100  1
  H  183  1  0.81251700  0.00542000  0.42576500  1
  H  186  1  0.36477600  0.03439400  0.45299700  1
  H  187  1  0.70334000  0.33346200  0.46843700  1
  H  189  1  0.40829900  0.07001100  0.50738900  1
  H  190  1  0.81770600  0.37128800  0.50412500  1
  H  192  1  0.75078500  0.37028900  0.56918700  1
  H  193  1  0.73333300  0.32409500  0.54506000  1
  H  194  1  0.24986900  0.06751200  0.56067400  1
  H  195  1  0.56076300  0.34732800  0.57863700  1
  H  206  1  0.46452700  0.27386900  0.99753900  1
  H  207  1  0.26485300  0.27641900  0.99886100  1
  H  210  1  0.26796300  0.05612000  0.99563900  1
  H  211  1  0.31087400  0.05038500  0.04234800  1
  H  213  1  0.43974100  0.01269800  0.97434800  1
  H  214  1  0.72569100  0.31857700  0.01151200  1
  H  216  1  0.93229400  0.31818000  0.01622900  1
  H  217  1  0.52446200  0.01144200  0.05384700  1
  H  218  1  0.62816000  0.04925200  0.98862600  1
  H  219  1  0.64653900  0.05730400  0.03635200  1
  H  230  1  0.03599700  0.06113100  0.66416900  1
  H  231  1  0.49398800  0.32796000  0.66563600  1
  H  234  1  0.67368800  0.06973800  0.66197300  1
  H  235  1  0.65934500  0.08547700  0.70883300  1
  H  237  1  0.65934100  0.14165300  0.64115800  1
  H  238  1  0.75550500  0.13482300  0.67827100  1
  H  240  1  0.61789900  0.20356000  0.68342900  1
  H  241  1  0.60652400  0.16950900  0.72084400  1
  H  242  1  0.44832200  0.19160100  0.65572700  1
  H  243  1  0.41769600  0.19479200  0.70347200  1
  H  254  1  0.14670500  0.32251200  0.33176700  1
  H  255  1  0.88698700  0.05404800  0.33352000  1
  H  258  1  0.37157900  0.19979600  0.32964800  1
  H  259  1  0.34440400  0.18951100  0.37641200  1
  H  261  1  0.21258300  0.17152200  0.30859100  1
  H  262  1  0.16501300  0.20567200  0.34582800  1
  H  264  1  0.09534200  0.13706100  0.35064500  1
  H  265  1  0.18269200  0.14419500  0.38814900  1
  H  266  1  0.23572200  0.08458500  0.32274800  1
  H  267  1  0.24878700  0.07290500  0.37046600  1
  H  293  1  0.98876900  0.52307900  0.05882200  1
  H  294  1  0.15655600  0.47330900  0.05042900  1
  H  295  1  0.95538300  0.53887700  0.94385400  1
  H  296  1  0.13147000  0.49291500  0.93514900  1
  H  297  1  0.36155200  0.50391300  0.93871300  1
  H  298  1  0.48391000  0.55179800  0.94874800  1
  H  299  1  0.47593100  0.53023400  0.06286200  1
  H  300  1  0.35035500  0.48341500  0.05350500  1
  H  301  1  0.45640000  0.41566400  0.03972000  1
  H  302  1  0.47405600  0.36168600  0.08445600  1
  H  303  1  0.16794800  0.33083100  0.04907000  1
  H  304  1  0.15478700  0.38355200  0.00206800  1
  H  305  1  0.15031700  0.40888900  0.93666000  1
  H  306  1  0.48758300  0.42538000  0.94602500  1
  H  307  1  0.53041300  0.38987000  0.88889600  1
  H  308  1  0.19484800  0.37263700  0.88010000  1
  H  334  1  0.43623400  0.48704200  0.72561200  1
  H  335  1  0.44013400  0.55954400  0.71728600  1
  H  336  1  0.42049900  0.47089700  0.61072400  1
  H  337  1  0.40985700  0.54492500  0.60204400  1
  H  338  1  0.23143000  0.61826500  0.60557500  1
  H  339  1  0.03843000  0.64304000  0.61556900  1
  H  340  1  0.09453500  0.64680600  0.72975600  1
  H  341  1  0.28710500  0.62059700  0.72038000  1
  H  342  1  0.04174200  0.34505300  0.70675000  1
  H  343  1  0.15615700  0.36880000  0.75155000  1
  H  344  1  0.76554800  0.61072200  0.71587300  1
  H  345  1  0.65072100  0.58895500  0.66888400  1
  H  346  1  0.59399600  0.57897200  0.60360700  1
  H  347  1  0.99848700  0.35253800  0.61299700  1
  H  348  1  0.05248900  0.37868100  0.55586000  1
  H  349  1  0.64885700  0.60582300  0.54703300  1
  H  375  1  0.21867400  0.64854500  0.39319900  1
  H  376  1  0.04678300  0.62595300  0.38435900  1
  H  377  1  0.26952000  0.64832000  0.27841900  1
  H  378  1  0.10375300  0.62029800  0.26929500  1
  H  379  1  0.04930500  0.53666600  0.27230500  1
  H  380  1  0.12012600  0.46404300  0.28235700  1
  H  381  1  0.07534600  0.48152400  0.39660400  1
  H  382  1  0.00768100  0.55441300  0.38715900  1
  H  383  1  0.81373700  0.56423700  0.37343600  1
  H  384  1  0.68256900  0.59440000  0.41829900  1
  H  385  1  0.37853700  0.38359600  0.38275700  1
  H  386  1  0.50526700  0.35276400  0.33562500  1
  H  387  1  0.56911100  0.33723500  0.27021700  1
  H  388  1  0.82373600  0.54790800  0.27970800  1
  H  389  1  0.72804600  0.55732900  0.22227000  1
  H  390  1  0.47097500  0.34664300  0.21335500  1
  H  401  1  0.83914500  0.58041300  0.15235100  1
  H  402  1  0.79720100  0.60256400  0.09055600  1
  H  405  1  0.97471600  0.42319600  0.12107800  1
  H  406  1  0.07007100  0.45593000  0.13405400  1
  H  408  1  0.88132400  0.43022800  0.17877100  1
  H  409  1  0.90582100  0.48179100  0.16963600  1
  H  411  1  0.95273300  0.46001700  0.23477800  1
  H  412  1  0.07227000  0.46936800  0.21065600  1
  H  413  1  0.01347500  0.38366900  0.23145000  1
  H  414  1  0.13285100  0.40418700  0.24442500  1
  H  425  1  0.40321100  0.41787500  0.81898100  1
  H  426  1  0.37887900  0.39631400  0.75730900  1
  H  429  1  0.68012200  0.51533000  0.78864400  1
  H  430  1  0.54031700  0.53619600  0.80168500  1
  H  432  1  0.72683400  0.48205700  0.84642400  1
  H  433  1  0.59013600  0.47294100  0.83745800  1
  H  435  1  0.61032600  0.49607900  0.90249800  1
  H  436  1  0.50851600  0.53269300  0.87829700  1
  H  437  1  0.74789100  0.54178700  0.89882400  1
  H  438  1  0.62056700  0.57472000  0.91185800  1
  H  449  1  0.07101900  0.32684600  0.48591400  1
  H  450  1  0.13698300  0.32602700  0.42421500  1
  H  453  1  0.65840600  0.38699500  0.45533000  1
  H  454  1  0.03668100  0.66677800  0.46844000  1
  H  456  1  0.70516800  0.41374100  0.51305500  1
  H  457  1  0.15105700  0.70459800  0.50412500  1
  H  459  1  0.08406300  0.70365800  0.56918100  1
  H  460  1  0.06657000  0.65745500  0.54507700  1
  H  461  1  0.55228900  0.40074700  0.56550500  1
  H  462  1  0.89394200  0.68076100  0.57862900  1
  H  473  1  0.79791600  0.60716200  0.99753300  1
  H  474  1  0.59824300  0.60970700  0.99884400  1
  H  477  1  0.60139300  0.38940600  0.99561400  1
  H  478  1  0.64430200  0.38366300  0.04232300  1
  H  480  1  0.77320700  0.34599900  0.97432300  1
  H  481  1  0.05904900  0.65191200  0.01151500  1
  H  483  1  0.26564600  0.65152200  0.01623200  1
  H  484  1  0.85786100  0.34472600  0.05383100  1
  H  485  1  0.96161900  0.38255600  0.98863400  1
  H  486  1  0.97993300  0.39059900  0.03636500  1
  H  497  1  0.36685100  0.39538800  0.66428400  1
  H  498  1  0.82641400  0.66203100  0.66553200  1
  H  501  1  0.00592200  0.40235900  0.66274000  1
  H  502  1  0.99098100  0.41846900  0.70945400  1
  H  504  1  0.99278000  0.47411800  0.64148700  1
  H  505  1  0.08850900  0.46735600  0.67871900  1
  H  507  1  0.95180000  0.53637100  0.68337900  1
  H  508  1  0.93949500  0.50268200  0.72097400  1
  H  509  1  0.78194800  0.52475100  0.65570000  1
  H  510  1  0.75104400  0.52816500  0.70340900  1
  H  521  1  0.47998200  0.65556100  0.33172300  1
  H  522  1  0.21894500  0.38743600  0.33268800  1
  H  525  1  0.70384800  0.53296600  0.32960700  1
  H  526  1  0.67662300  0.52286300  0.37640100  1
  H  528  1  0.54500500  0.50455400  0.30862700  1
  H  529  1  0.49726300  0.53883900  0.34575700  1
  H  531  1  0.42764100  0.47024100  0.35075800  1
  H  532  1  0.51486800  0.47752300  0.38825000  1
  H  533  1  0.56806600  0.41757700  0.32307000  1
  H  534  1  0.58076500  0.40611900  0.37079600  1
  H  560  1  0.32210100  0.85641400  0.05882200  1
  H  561  1  0.48988300  0.80664100  0.05042600  1
  H  562  1  0.28870300  0.87221900  0.94385400  1
  H  563  1  0.46478600  0.82625700  0.93514600  1
  H  564  1  0.69486800  0.83726100  0.93871300  1
  H  565  1  0.81723000  0.88514300  0.94875400  1
  H  566  1  0.80926600  0.86356600  0.06286500  1
  H  567  1  0.68367400  0.81675000  0.05350400  1
  H  568  1  0.78973800  0.74900500  0.03971000  1
  H  569  1  0.80742700  0.69501800  0.08443300  1
  H  570  1  0.50134700  0.66414100  0.04903600  1
  H  571  1  0.48814000  0.71688400  0.00205000  1
  H  572  1  0.48366400  0.74223000  0.93664400  1
  H  573  1  0.82092600  0.75872400  0.94603300  1
  H  574  1  0.86380800  0.72319800  0.88891800  1
  H  575  1  0.52825100  0.70596200  0.88009400  1
  H  601  1  0.76965000  0.82165900  0.72455400  1
  H  602  1  0.77688900  0.89375700  0.71591500  1
  H  603  1  0.75696400  0.80474000  0.60972700  1
  H  604  1  0.74910000  0.87865400  0.60067800  1
  H  605  1  0.56836400  0.95163400  0.60478900  1
  H  606  1  0.37435200  0.97371300  0.61563800  1
  H  607  1  0.43416400  0.98009100  0.72930300  1
  H  608  1  0.62668400  0.95477600  0.71934400  1
  H  609  1  0.37499000  0.67846400  0.70699800  1
  H  610  1  0.48966500  0.70210400  0.75175300  1
  H  611  1  0.10111700  0.94367900  0.71621100  1
  H  612  1  0.98809000  0.92242900  0.66842500  1
  H  613  1  0.93454600  0.91391300  0.60277200  1
  H  614  1  0.33147500  0.68614000  0.61289000  1
  H  615  1  0.38567500  0.71216200  0.55573000  1
  H  616  1  0.99712900  0.94298100  0.54839300  1
  H  642  1  0.55287000  0.98179800  0.39286400  1
  H  643  1  0.38190700  0.95866000  0.38385900  1
  H  644  1  0.60434800  0.98189300  0.27812500  1
  H  645  1  0.43942500  0.95333200  0.26881800  1
  H  646  1  0.38395600  0.86940400  0.27209300  1
  H  647  1  0.45500100  0.79685500  0.28241700  1
  H  648  1  0.40887600  0.81480500  0.39656600  1
  H  649  1  0.34097300  0.88762100  0.38685200  1
  H  650  1  0.14728100  0.89892300  0.37373300  1
  H  651  1  0.02336700  0.93075200  0.42001400  1
  H  652  1  0.71234800  0.71696300  0.38288100  1
  H  653  1  0.83914900  0.68615600  0.33576200  1
  H  654  1  0.90232200  0.67057300  0.27017000  1
  H  655  1  0.15760100  0.88106500  0.27943800  1
  H  656  1  0.06073000  0.89058400  0.22220800  1
  H  657  1  0.80428500  0.67994300  0.21328300  1
  H  668  1  0.17185900  0.91346500  0.15201100  1
  H  669  1  0.12977400  0.93578200  0.09027800  1
  H  672  1  0.30800500  0.75652800  0.12104800  1
  H  673  1  0.40349200  0.78920500  0.13403200  1
  H  675  1  0.21451600  0.76363600  0.17870900  1
  H  676  1  0.23941300  0.81515700  0.16963600  1
  H  678  1  0.28607100  0.79326000  0.23477300  1
  H  679  1  0.40578400  0.80251600  0.21069800  1
  H  680  1  0.34622600  0.71687100  0.23127700  1
  H  681  1  0.46566800  0.73723000  0.24444600  1
  H  692  1  0.73674700  0.75118800  0.81900600  1
  H  693  1  0.71253200  0.72963000  0.75732600  1
  H  696  1  0.01356100  0.84863900  0.78864900  1
  H  697  1  0.87373300  0.86951200  0.80166100  1
  H  699  1  0.06015000  0.81538600  0.84644600  1
  H  700  1  0.92346500  0.80627300  0.83745500  1
  H  702  1  0.94355700  0.82942600  0.90249500  1
  H  703  1  0.84177500  0.86603100  0.87827300  1
  H  704  1  0.08112000  0.87513500  0.89882700  1
  H  705  1  0.95378600  0.90806800  0.91184400  1
  H  716  1  0.40429000  0.66024100  0.48588700  1
  H  717  1  0.47028900  0.65939400  0.42419000  1
  H  720  1  0.99178900  0.72030800  0.45531100  1
  H  721  1  0.39709600  0.98376200  0.47369100  1
  H  723  1  0.03855200  0.74707600  0.51302500  1
  H  724  1  0.51738000  0.02515500  0.50342700  1
  H  726  1  0.44594600  0.03530200  0.56814000  1
  H  727  1  0.42523800  0.98644600  0.54944600  1
  H  728  1  0.88558400  0.73415800  0.56545300  1
  H  729  1  0.25067600  0.01735200  0.58022000  1
  H  740  1  0.13124100  0.94049700  0.99752900  1
  H  741  1  0.93156900  0.94304200  0.99884100  1
  H  744  1  0.93474500  0.72273800  0.99561400  1
  H  745  1  0.97764400  0.71699800  0.04232200  1
  H  747  1  0.10655800  0.67933400  0.97432300  1
  H  748  1  0.39224900  0.98528800  0.01154900  1
  H  750  1  0.59885700  0.98488500  0.01624200  1
  H  751  1  0.19121300  0.67806400  0.05383300  1
  H  752  1  0.29495700  0.71589400  0.98863200  1
  H  753  1  0.31328100  0.72394100  0.03636200  1
  H  764  1  0.70013500  0.72964900  0.66368800  1
  H  765  1  0.16408300  0.99389300  0.66537200  1
  H  768  1  0.33964400  0.73556400  0.66286600  1
  H  769  1  0.32468900  0.75177800  0.70956200  1
  H  771  1  0.32711200  0.80726300  0.64152300  1
  H  772  1  0.42277800  0.80045300  0.67877400  1
  H  774  1  0.28657000  0.86959100  0.68337100  1
  H  775  1  0.27379300  0.83597600  0.72097900  1
  H  776  1  0.11678600  0.85807600  0.65558100  1
  H  777  1  0.08552600  0.86165500  0.70328000  1
  H  788  1  0.81455300  0.98917500  0.33217100  1
  H  789  1  0.55270500  0.72038400  0.33264600  1
  H  792  1  0.03912600  0.86644000  0.32984600  1
  H  793  1  0.01186300  0.85642900  0.37662100  1
  H  795  1  0.87975200  0.83839000  0.30883000  1
  H  796  1  0.83232300  0.87263400  0.34601200  1
  H  798  1  0.76180100  0.80420700  0.35083700  1
  H  799  1  0.84911000  0.81123500  0.38837700  1
  H  800  1  0.90164100  0.75133400  0.32314100  1
  H  801  1  0.91421000  0.73981900  0.37084800  1
  N  130  1  0.84070000  0.03831300  0.12664900  1
  N  133  1  0.88721900  0.01332200  0.19643200  1
  N  154  1  0.33386000  0.26567100  0.79395000  1
  N  157  1  0.36195200  0.28961500  0.86365600  1
  N  178  1  0.47201200  0.35467400  0.46072700  1
  N  181  1  0.39807700  0.35596500  0.53046600  1
  N  202  1  0.31389600  0.13252700  0.01164400  1
  N  205  1  0.53480100  0.13065700  0.01061400  1
  N  226  1  0.46571400  0.05892100  0.67825200  1
  N  229  1  0.32182600  0.13291700  0.67761400  1
  N  250  1  0.53472300  0.13360600  0.34582500  1
  N  253  1  0.45679400  0.06119900  0.34493800  1
  N  397  1  0.17411000  0.37166300  0.12670100  1
  N  400  1  0.22035400  0.34679800  0.19652900  1
  N  421  1  0.66732100  0.59900100  0.79394200  1
  N  424  1  0.69532000  0.62294200  0.86365900  1
  N  445  1  0.80536500  0.68800200  0.46071300  1
  N  448  1  0.73136200  0.68935100  0.53044400  1
  N  469  1  0.64730100  0.46581400  0.01162500  1
  N  472  1  0.86820200  0.46395100  0.01061600  1
  N  493  1  0.79709200  0.39222400  0.67867500  1
  N  496  1  0.65426000  0.46649000  0.67763900  1
  N  517  1  0.86697900  0.46689300  0.34582000  1
  N  520  1  0.78919400  0.39446400  0.34519900  1
  N  664  1  0.50742800  0.70495600  0.12666200  1
  N  667  1  0.55350900  0.68002800  0.19648200  1
  N  688  1  0.00089100  0.93231400  0.79392000  1
  N  691  1  0.02854500  0.95627700  0.86365900  1
  N  712  1  0.16479900  0.01483300  0.46153200  1
  N  715  1  0.09040000  0.02184800  0.53138700  1
  N  736  1  0.98063500  0.79914900  0.01162700  1
  N  739  1  0.20153500  0.79729000  0.01061700  1
  N  760  1  0.13046700  0.72572400  0.67875700  1
  N  763  1  0.98843600  0.80013600  0.67742500  1
  N  784  1  0.20130300  0.80012300  0.34596300  1
  N  787  1  0.12276500  0.72786300  0.34525600  1
  Si  7  1  0.95057800  0.11303100  0.98704900  1
  Si  48  1  0.08508200  0.27749500  0.65397700  1
  Si  89  1  0.60919000  0.26788200  0.32081400  1
  Si  274  1  0.28397000  0.44629600  0.98707400  1
  Si  315  1  0.41794700  0.61120800  0.65399900  1
  Si  356  1  0.94232100  0.60123500  0.32077500  1
  Si  541  1  0.61729100  0.77964100  0.98706800  1
  Si  582  1  0.75594700  0.94525300  0.65252300  1
  Si  623  1  0.27725200  0.93427800  0.32019000  1
