# generated using pymatgen
data_H9C13(N3O)2
_symmetry_space_group_name_H-M   'P 1'
_cell_length_a   43.75040000
_cell_length_b   43.75020000
_cell_length_c   52.76010000
_cell_angle_alpha   90.00130000
_cell_angle_beta   90.00000000
_cell_angle_gamma   90.00000000
_symmetry_Int_Tables_number   1
_chemical_formula_structural   H9C13(N3O)2
_chemical_formula_sum   'H288 C416 N192 O64'
_cell_volume   100987.51383710
_cell_formula_units_Z   32
loop_
 _symmetry_equiv_pos_site_id
 _symmetry_equiv_pos_as_xyz
  1  'x, y, z'
loop_
 _atom_site_type_symbol
 _atom_site_label
 _atom_site_symmetry_multiplicity
 _atom_site_fract_x
 _atom_site_fract_y
 _atom_site_fract_z
 _atom_site_occupancy
  H  7  1  0.16026100  0.42672400  0.90978600  1
  H  16  1  0.20451300  0.39444900  0.85629300  1
  H  19  1  0.17789400  0.33568100  0.86522800  1
  H  20  1  0.18811100  0.31027400  0.88627800  1
  H  21  1  0.08454300  0.39235300  0.87939000  1
  H  22  1  0.11134600  0.38316300  0.89947300  1
  H  23  1  0.11353100  0.41513300  0.78960800  1
  H  24  1  0.14985100  0.41610400  0.78179300  1
  H  25  1  0.18690900  0.33911500  0.97802300  1
  H  26  1  0.18009000  0.37473100  0.98594800  1
  H  31  1  0.20507800  0.43201300  0.80940900  1
  H  32  1  0.21017300  0.30941600  0.94021800  1
  H  33  1  0.14264600  0.42725800  0.95928500  1
  H  34  1  0.08322100  0.43057400  0.83110200  1
  H  41  1  0.35665200  0.52673100  0.40956900  1
  H  50  1  0.31235100  0.55899900  0.35615500  1
  H  53  1  0.33908500  0.61785600  0.36512600  1
  H  54  1  0.32898600  0.64327100  0.38621200  1
  H  55  1  0.43236400  0.56146800  0.37910700  1
  H  56  1  0.40555900  0.57052200  0.39924100  1
  H  57  1  0.40331500  0.53829800  0.28944600  1
  H  58  1  0.36699100  0.53727100  0.28164300  1
  H  59  1  0.33016600  0.61426100  0.47791600  1
  H  60  1  0.33699600  0.57864100  0.48581000  1
  H  65  1  0.31182300  0.52139100  0.30921500  1
  H  66  1  0.30674200  0.64399300  0.44000900  1
  H  67  1  0.37420400  0.52581300  0.45888100  1
  H  68  1  0.43365700  0.52282700  0.33135100  1
  H  75  1  0.80844700  0.87831500  0.16004200  1
  H  84  1  0.84104500  0.92272700  0.10643500  1
  H  87  1  0.89941500  0.89588600  0.11537600  1
  H  88  1  0.92491000  0.90597400  0.13639900  1
  H  89  1  0.84286500  0.80268500  0.12938500  1
  H  90  1  0.85242400  0.82941900  0.14944100  1
  H  91  1  0.81729500  0.83181800  0.04036700  1
  H  92  1  0.81696300  0.86811100  0.03236800  1
  H  93  1  0.89622000  0.90468900  0.22818800  1
  H  94  1  0.86061100  0.89790300  0.23615200  1
  H  99  1  0.80285100  0.92373400  0.05990600  1
  H  100  1  0.92577600  0.92817900  0.19033700  1
  H  101  1  0.80799700  0.86050400  0.20942500  1
  H  102  1  0.80110500  0.80274500  0.08483600  1
  H  109  1  0.70827900  0.07528500  0.66006500  1
  H  118  1  0.67561800  0.03080200  0.60655100  1
  H  121  1  0.61727800  0.05767600  0.61543900  1
  H  122  1  0.59183000  0.04751400  0.63647100  1
  H  123  1  0.67403200  0.15089600  0.62931600  1
  H  124  1  0.66448300  0.12422800  0.64943000  1
  H  125  1  0.69909500  0.12150500  0.54023600  1
  H  126  1  0.69942200  0.08519000  0.53232100  1
  H  127  1  0.62054700  0.04888400  0.72825500  1
  H  128  1  0.65615300  0.05571300  0.73620400  1
  H  133  1  0.71368700  0.02956700  0.56007500  1
  H  134  1  0.59095000  0.02550100  0.69052200  1
  H  135  1  0.70872200  0.09307100  0.70954800  1
  H  136  1  0.71554900  0.15061800  0.58430300  1
  H  143  1  0.34065300  0.42307300  0.60631800  1
  H  152  1  0.30832200  0.37868800  0.65967800  1
  H  155  1  0.35207900  0.32980600  0.64932400  1
  H  156  1  0.34311700  0.30302600  0.62913800  1
  H  157  1  0.42488000  0.40639500  0.63640300  1
  H  158  1  0.39950700  0.39623900  0.61530400  1
  H  159  1  0.39572400  0.40542600  0.72806900  1
  H  160  1  0.36009700  0.39858700  0.73593900  1
  H  161  1  0.32014500  0.33221200  0.53947200  1
  H  162  1  0.31910500  0.36855000  0.53171000  1
  H  167  1  0.30745500  0.36115800  0.70903200  1
  H  168  1  0.30462800  0.30176100  0.58136200  1
  H  169  1  0.30328200  0.42396000  0.55955500  1
  H  170  1  0.42542000  0.42890300  0.69010300  1
  H  177  1  0.17621900  0.53055300  0.10615000  1
  H  186  1  0.20854100  0.57482200  0.15961500  1
  H  189  1  0.16494400  0.62368100  0.14940000  1
  H  190  1  0.17407100  0.65050500  0.12931600  1
  H  191  1  0.09207000  0.54686700  0.13625700  1
  H  192  1  0.11741800  0.55714300  0.11517900  1
  H  193  1  0.12109900  0.54801700  0.22795800  1
  H  194  1  0.15670500  0.55492500  0.23584700  1
  H  195  1  0.19657000  0.62161100  0.03946400  1
  H  196  1  0.19757700  0.58529600  0.03163500  1
  H  201  1  0.20934000  0.59234100  0.20900500  1
  H  202  1  0.21211500  0.65191900  0.08097400  1
  H  203  1  0.21381800  0.53037600  0.05896000  1
  H  204  1  0.09141400  0.52463100  0.19015300  1
  H  211  1  0.70483400  0.89357300  0.35681500  1
  H  220  1  0.66005300  0.92626200  0.40979600  1
  H  223  1  0.61156000  0.88200800  0.39977400  1
  H  224  1  0.58479600  0.89113200  0.37963300  1
  H  225  1  0.68984500  0.80998800  0.38751600  1
  H  226  1  0.67912500  0.83488600  0.36625000  1
  H  227  1  0.68656000  0.83995100  0.47915900  1
  H  228  1  0.67940100  0.87560900  0.48662000  1
  H  229  1  0.61401400  0.91388400  0.28989300  1
  H  230  1  0.65035500  0.91491500  0.28215300  1
  H  235  1  0.64283200  0.92842400  0.45881600  1
  H  236  1  0.58366500  0.92942300  0.33121800  1
  H  237  1  0.70554700  0.93094300  0.30996700  1
  H  238  1  0.71155600  0.81166000  0.44358000  1
  H  245  1  0.81207900  0.05960700  0.85656000  1
  H  254  1  0.85691700  0.02699400  0.90964000  1
  H  257  1  0.90529800  0.07137300  0.89957600  1
  H  258  1  0.93210500  0.06236600  0.87942800  1
  H  259  1  0.82712600  0.14327400  0.88724100  1
  H  260  1  0.83799200  0.11838200  0.86600300  1
  H  261  1  0.82938400  0.11323200  0.97880400  1
  H  262  1  0.83671400  0.07763200  0.98635500  1
  H  263  1  0.90302900  0.03925300  0.78976700  1
  H  264  1  0.86670200  0.03820000  0.78197000  1
  H  269  1  0.87385000  0.02491000  0.95872600  1
  H  270  1  0.93334200  0.02368000  0.83157300  1
  H  271  1  0.81161500  0.02217200  0.80953200  1
  H  272  1  0.80418200  0.14126300  0.94236900  1
  H  279  1  0.85707300  0.52677700  0.10627100  1
  H  288  1  0.81260700  0.55941600  0.15988800  1
  H  291  1  0.83934000  0.61773100  0.15093500  1
  H  292  1  0.82900900  0.64314100  0.12992100  1
  H  293  1  0.93264000  0.56108200  0.13691600  1
  H  294  1  0.90591800  0.57070600  0.11687300  1
  H  295  1  0.90349000  0.53564400  0.22595700  1
  H  296  1  0.86720100  0.53535700  0.23395900  1
  H  297  1  0.83009900  0.61440200  0.03814500  1
  H  298  1  0.83704500  0.57882300  0.03018100  1
  H  303  1  0.81148000  0.52126500  0.20633400  1
  H  304  1  0.80669600  0.64392100  0.07605400  1
  H  305  1  0.87471400  0.52641500  0.05674300  1
  H  306  1  0.93253000  0.51933000  0.18159000  1
  H  313  1  0.65976300  0.42676200  0.60645800  1
  H  322  1  0.70425800  0.39406900  0.65997400  1
  H  325  1  0.67726600  0.33570700  0.65103000  1
  H  326  1  0.68742900  0.31026500  0.62998600  1
  H  327  1  0.58417700  0.39255200  0.63716500  1
  H  328  1  0.61084900  0.38294100  0.61707200  1
  H  329  1  0.61352100  0.41762700  0.72623800  1
  H  330  1  0.64983400  0.41795200  0.73417000  1
  H  331  1  0.68637500  0.33913100  0.53824400  1
  H  332  1  0.67948600  0.37472600  0.53030200  1
  H  337  1  0.70541700  0.43225000  0.70649600  1
  H  338  1  0.70994700  0.30958400  0.57626700  1
  H  339  1  0.64208700  0.42742300  0.55709700  1
  H  340  1  0.58455400  0.43424900  0.68209100  1
  H  347  1  0.20803700  0.07559900  0.85633300  1
  H  356  1  0.17507300  0.03070600  0.90954500  1
  H  359  1  0.11681000  0.05647600  0.90007600  1
  H  360  1  0.09184500  0.04573700  0.87886700  1
  H  361  1  0.17284800  0.15076300  0.88668700  1
  H  362  1  0.16329300  0.12402300  0.86663000  1
  H  363  1  0.19867100  0.12163400  0.97563100  1
  H  364  1  0.19902700  0.08534600  0.98363500  1
  H  365  1  0.12156400  0.04899000  0.78715700  1
  H  366  1  0.15718600  0.05620700  0.77962500  1
  H  371  1  0.21322800  0.02984600  0.95615800  1
  H  372  1  0.09346900  0.02387700  0.82278500  1
  H  373  1  0.21000600  0.09288100  0.80733200  1
  H  374  1  0.21495500  0.15061800  0.93100300  1
  H  381  1  0.30890400  0.87762800  0.35626700  1
  H  390  1  0.34192300  0.92264200  0.40945500  1
  H  393  1  0.40020400  0.89634900  0.40011300  1
  H  394  1  0.42516400  0.90724700  0.37893600  1
  H  395  1  0.34360800  0.80252500  0.38680000  1
  H  396  1  0.35322600  0.82917400  0.36668600  1
  H  397  1  0.31837400  0.83201300  0.47581600  1
  H  398  1  0.31808400  0.86833300  0.48372000  1
  H  399  1  0.39534200  0.90535400  0.28732900  1
  H  400  1  0.35977500  0.89795700  0.27968900  1
  H  405  1  0.30388000  0.92394600  0.45588800  1
  H  406  1  0.42317500  0.93065500  0.32408000  1
  H  407  1  0.30717600  0.86057500  0.30707500  1
  H  408  1  0.30186900  0.80293100  0.43163100  1
  H  415  1  0.67547200  0.53033100  0.40963900  1
  H  424  1  0.70816900  0.57520200  0.35667500  1
  H  427  1  0.66368700  0.62360000  0.36671300  1
  H  428  1  0.67266300  0.65038400  0.38689100  1
  H  429  1  0.59191600  0.54520700  0.37885800  1
  H  430  1  0.61675300  0.55603300  0.40013600  1
  H  431  1  0.62204900  0.54832300  0.28725700  1
  H  432  1  0.65768700  0.55559100  0.27981800  1
  H  433  1  0.69574200  0.62119600  0.47652900  1
  H  434  1  0.69681100  0.58485800  0.48428800  1
  H  439  1  0.71053200  0.59222000  0.30769800  1
  H  440  1  0.71144200  0.65153500  0.43466200  1
  H  441  1  0.71275900  0.52953200  0.45645700  1
  H  442  1  0.59382700  0.52321700  0.32285900  1
  H  449  1  0.84136100  0.42289100  0.90986900  1
  H  458  1  0.80866200  0.37808100  0.85675000  1
  H  461  1  0.85273700  0.32969500  0.86675000  1
  H  462  1  0.84353700  0.30290500  0.88684400  1
  H  463  1  0.92495100  0.40783400  0.87917400  1
  H  464  1  0.90009400  0.39684300  0.90039600  1
  H  465  1  0.89482100  0.40611300  0.78765200  1
  H  466  1  0.85925500  0.39864300  0.78007400  1
  H  467  1  0.82100400  0.33195000  0.97665700  1
  H  468  1  0.82003800  0.36827600  0.98445600  1
  H  473  1  0.80655000  0.36128400  0.80767100  1
  H  474  1  0.80531800  0.30168600  0.93515200  1
  H  475  1  0.80381100  0.42319200  0.95700000  1
  H  476  1  0.92270200  0.43146900  0.82443000  1
  H  483  1  0.31222500  0.06028500  0.65934500  1
  H  492  1  0.35722800  0.02723000  0.60625200  1
  H  495  1  0.40563700  0.07190400  0.61656200  1
  H  496  1  0.43232700  0.06237300  0.63666500  1
  H  497  1  0.32717800  0.14341400  0.62864000  1
  H  498  1  0.33801700  0.11852900  0.64987600  1
  H  499  1  0.33040600  0.11352500  0.53697000  1
  H  500  1  0.33770200  0.07790500  0.52948200  1
  H  501  1  0.40296300  0.03690300  0.72565300  1
  H  502  1  0.36665200  0.03654100  0.73358300  1
  H  507  1  0.37447200  0.02519000  0.55722000  1
  H  508  1  0.43200000  0.02046200  0.68148800  1
  H  509  1  0.31093900  0.02235500  0.70574500  1
  H  510  1  0.30528200  0.14164100  0.57258800  1
  H  517  1  0.20454100  0.89351000  0.15959500  1
  H  526  1  0.15953500  0.92649400  0.10637200  1
  H  529  1  0.11118500  0.88197100  0.11669900  1
  H  530  1  0.08447000  0.89151200  0.13677800  1
  H  531  1  0.18941700  0.81028500  0.12896300  1
  H  532  1  0.17847100  0.83520200  0.15015400  1
  H  533  1  0.18725800  0.84016300  0.03735300  1
  H  534  1  0.17985700  0.87573600  0.02975100  1
  H  535  1  0.11369700  0.91672100  0.22584100  1
  H  536  1  0.14999700  0.91710300  0.23380700  1
  H  541  1  0.14248400  0.92829100  0.05722400  1
  H  542  1  0.08475000  0.93333000  0.18176700  1
  H  543  1  0.20543400  0.93157300  0.20629200  1
  H  544  1  0.21257700  0.81232900  0.07386400  1
  H  551  1  0.23484800  0.34741600  0.76661700  1
  H  555  1  0.31550300  0.47735500  0.75306100  1
  H  564  1  0.28192600  0.60604300  0.26656100  1
  H  568  1  0.20131500  0.47580800  0.25100400  1
  H  577  1  0.88728500  0.95213200  0.01625900  1
  H  581  1  0.75826000  0.03505600  0.00211100  1
  H  590  1  0.62935100  0.00134400  0.51622700  1
  H  594  1  0.75794700  0.91815300  0.50438300  1
  H  603  1  0.78355800  0.60557800  0.25036000  1
  H  607  1  0.69960900  0.47709500  0.26364200  1
  H  616  1  0.73362700  0.34787000  0.75028500  1
  H  620  1  0.81680100  0.47645300  0.76227900  1
  H  629  1  0.12879600  0.00086300  0.99953000  1
  H  633  1  0.25853200  0.91917000  0.01408500  1
  H  642  1  0.38808800  0.95223300  0.49986600  1
  H  646  1  0.25904400  0.03525200  0.51359500  1
  H  655  1  0.73544400  0.84651500  0.26702800  1
  H  659  1  0.81543600  0.97684500  0.25321000  1
  H  668  1  0.78119000  0.10687500  0.76721600  1
  H  672  1  0.70157200  0.97614600  0.75092200  1
  H  681  1  0.38774900  0.45294900  0.51622900  1
  H  685  1  0.25814400  0.53480900  0.50154800  1
  H  694  1  0.12890000  0.49951800  0.01714300  1
  H  698  1  0.25957000  0.42039500  0.00225000  1
  H  707  1  0.28295000  0.10648400  0.74996100  1
  H  711  1  0.19963100  0.97760900  0.76349200  1
  H  720  1  0.23451400  0.84702600  0.24945900  1
  H  724  1  0.31628500  0.97636500  0.26252800  1
  H  733  1  0.62832500  0.50013200  0.49962800  1
  H  737  1  0.75850700  0.41927100  0.51455700  1
  H  746  1  0.88860100  0.45412500  0.99894000  1
  H  750  1  0.75749900  0.53295100  0.01582900  1
  H  759  1  0.12635100  0.25338800  0.92085700  1
  H  763  1  0.24327100  0.18662300  0.98095000  1
  H  772  1  0.39080100  0.70008300  0.42142800  1
  H  776  1  0.26117200  0.72803800  0.42917800  1
  H  785  1  0.98193500  0.84422200  0.17159300  1
  H  789  1  0.00975500  0.97388100  0.17900200  1
  H  798  1  0.53484700  0.10929300  0.67118900  1
  H  802  1  0.46850000  0.99169000  0.73068500  1
  H  811  1  0.39265200  0.24768100  0.58303900  1
  H  815  1  0.28417500  0.18578900  0.61513900  1
  H  824  1  0.12447800  0.70628000  0.08593300  1
  H  828  1  0.26110400  0.76146000  0.05181600  1
  H  837  1  0.52890400  0.84200000  0.33581600  1
  H  841  1  0.49365000  0.96559500  0.35830700  1
  H  850  1  0.98767900  0.11152400  0.83348800  1
  H  854  1  0.04933200  0.00271300  0.86518200  1
  H  863  1  0.89034100  0.70036700  0.09510200  1
  H  867  1  0.77265300  0.76618000  0.03534000  1
  H  876  1  0.62602100  0.25312300  0.59449100  1
  H  880  1  0.75578900  0.22566400  0.58760300  1
  H  889  1  0.62369000  0.70603500  0.43283700  1
  H  893  1  0.73262100  0.76737600  0.40117400  1
  H  902  1  0.89270900  0.24695000  0.93022600  1
  H  906  1  0.75588500  0.19238200  0.96442800  1
  H  915  1  0.48181000  0.34472100  0.67249700  1
  H  919  1  0.50968000  0.47445000  0.67762400  1
  H  928  1  0.03507900  0.60831900  0.17102000  1
  H  932  1  0.96907600  0.49094300  0.23107000  1
  H  941  1  0.02868300  0.34299500  0.83554600  1
  H  945  1  0.99311500  0.46634100  0.85861900  1
  H  954  1  0.48786700  0.61076000  0.33309800  1
  H  958  1  0.54952100  0.50213300  0.36519800  1
  C  1  1  0.16953700  0.38281600  0.89533000  1
  C  2  1  0.16707200  0.40504500  0.91467200  1
  C  3  1  0.17175800  0.39801900  0.94052900  1
  C  4  1  0.17909700  0.36727000  0.94744100  1
  C  5  1  0.18214600  0.34448100  0.92798700  1
  C  6  1  0.17774900  0.35224000  0.90180600  1
  C  9  1  0.15949200  0.39110700  0.87026900  1
  C  10  1  0.12787100  0.39412900  0.86399900  1
  C  11  1  0.11948400  0.40198000  0.83852400  1
  C  12  1  0.14250400  0.40636100  0.81946200  1
  C  13  1  0.17402800  0.40310800  0.82607300  1
  C  14  1  0.18186500  0.39611700  0.85139500  1
  C  27  1  0.19788100  0.41045200  0.80950200  1
  C  28  1  0.08890700  0.40868300  0.83302900  1
  C  29  1  0.18907300  0.31423200  0.93446900  1
  C  30  1  0.16443500  0.42092200  0.95808800  1
  C  35  1  0.34735200  0.57065700  0.39517400  1
  C  36  1  0.34983200  0.54839500  0.41448600  1
  C  37  1  0.34518700  0.55537400  0.44036100  1
  C  38  1  0.33789200  0.58612800  0.44730600  1
  C  39  1  0.33483300  0.60894800  0.42787800  1
  C  40  1  0.33919700  0.60123300  0.40168800  1
  C  43  1  0.35738400  0.56238400  0.37010400  1
  C  44  1  0.38900200  0.55941300  0.36381100  1
  C  45  1  0.39736300  0.55150800  0.33834500  1
  C  46  1  0.37434400  0.54706900  0.31929600  1
  C  47  1  0.34282400  0.55029600  0.32593400  1
  C  48  1  0.33499800  0.55734600  0.35124600  1
  C  61  1  0.31897300  0.54296600  0.30935900  1
  C  62  1  0.42792900  0.54475100  0.33287700  1
  C  63  1  0.32789400  0.63918100  0.43439300  1
  C  64  1  0.35247900  0.53241000  0.45787800  1
  C  69  1  0.85231400  0.88766100  0.14552800  1
  C  70  1  0.83013300  0.88512900  0.16490500  1
  C  71  1  0.83720800  0.88974200  0.19076300  1
  C  72  1  0.86798700  0.89701300  0.19763400  1
  C  73  1  0.89072900  0.90011400  0.17814900  1
  C  74  1  0.88291700  0.89579100  0.15197200  1
  C  77  1  0.84389100  0.87769700  0.12047400  1
  C  78  1  0.84035300  0.84611300  0.11428400  1
  C  79  1  0.83166300  0.83782000  0.08899000  1
  C  80  1  0.82740000  0.86081300  0.06990500  1
  C  81  1  0.83150500  0.89228800  0.07635800  1
  C  82  1  0.83898400  0.90009400  0.10159600  1
  C  95  1  0.82430000  0.91620700  0.05980800  1
  C  96  1  0.82322800  0.80756800  0.08404300  1
  C  97  1  0.92097800  0.90707200  0.18458800  1
  C  98  1  0.81434400  0.88229600  0.20832600  1
  C  103  1  0.66438900  0.06597600  0.64558100  1
  C  104  1  0.68659000  0.06849800  0.66494200  1
  C  105  1  0.67951600  0.06391300  0.69080000  1
  C  106  1  0.64875200  0.05660000  0.69768800  1
  C  107  1  0.62599800  0.05349400  0.67821300  1
  C  108  1  0.63379500  0.05781400  0.65203100  1
  C  111  1  0.67279300  0.07587100  0.62050300  1
  C  112  1  0.67633800  0.10743700  0.61425200  1
  C  113  1  0.68494400  0.11565700  0.58892200  1
  C  114  1  0.68913800  0.09260500  0.56987200  1
  C  115  1  0.68506700  0.06114600  0.57639000  1
  C  116  1  0.67766900  0.05342100  0.60166300  1
  C  129  1  0.69226700  0.03717600  0.55989100  1
  C  130  1  0.69340100  0.14588200  0.58387700  1
  C  131  1  0.59574300  0.04656400  0.68466500  1
  C  132  1  0.70240200  0.07127700  0.70836700  1
  C  137  1  0.34401300  0.37802000  0.62022200  1
  C  138  1  0.33901800  0.40043500  0.60138200  1
  C  139  1  0.33204700  0.39264700  0.57604500  1
  C  140  1  0.32885400  0.36113800  0.56936400  1
  C  141  1  0.33325800  0.33809000  0.58839200  1
  C  142  1  0.34107800  0.34641300  0.61388800  1
  C  145  1  0.35225300  0.38802000  0.64530800  1
  C  146  1  0.38281000  0.39622400  0.65184300  1
  C  147  1  0.39048300  0.40065400  0.67803300  1
  C  148  1  0.36764200  0.39759900  0.69744400  1
  C  149  1  0.33690600  0.39026100  0.69048400  1
  C  150  1  0.32997200  0.38554100  0.66460800  1
  C  163  1  0.31394400  0.38291300  0.70798600  1
  C  164  1  0.42068400  0.40770600  0.68455700  1
  C  165  1  0.32654300  0.30752500  0.58288400  1
  C  166  1  0.32476500  0.41653900  0.55949500  1
  C  171  1  0.17284700  0.57556100  0.12015300  1
  C  172  1  0.17784500  0.55320700  0.10126200  1
  C  173  1  0.18481200  0.56107100  0.07594200  1
  C  174  1  0.18798700  0.59260400  0.06933200  1
  C  175  1  0.18360900  0.61559900  0.08841300  1
  C  176  1  0.17582900  0.60719100  0.11389800  1
  C  179  1  0.16461800  0.56549400  0.14522400  1
  C  180  1  0.13406900  0.55722400  0.15173300  1
  C  181  1  0.12637500  0.55278100  0.17792000  1
  C  182  1  0.14919400  0.55586500  0.19734600  1
  C  183  1  0.17992100  0.56326600  0.19039800  1
  C  184  1  0.18689300  0.56794200  0.16452800  1
  C  197  1  0.20286500  0.57058300  0.20792400  1
  C  198  1  0.09615900  0.54576000  0.18444000  1
  C  199  1  0.19023800  0.64619100  0.08290800  1
  C  200  1  0.19216100  0.53725800  0.05933400  1
  C  205  1  0.65977900  0.89007900  0.37068700  1
  C  206  1  0.68219900  0.89510700  0.35185100  1
  C  207  1  0.67442500  0.90199300  0.32649100  1
  C  208  1  0.64291700  0.90518100  0.31981000  1
  C  209  1  0.61985000  0.90080200  0.33883200  1
  C  210  1  0.62817000  0.89301100  0.36433600  1
  C  213  1  0.66975300  0.88220500  0.39587100  1
  C  214  1  0.67847100  0.85186900  0.40268500  1
  C  215  1  0.68288200  0.84457400  0.42896400  1
  C  216  1  0.67931700  0.86762600  0.44816300  1
  C  217  1  0.67175100  0.89819700  0.44089000  1
  C  218  1  0.66704000  0.90472900  0.41494800  1
  C  231  1  0.66446200  0.92146100  0.45814400  1
  C  232  1  0.69111500  0.81477600  0.43587700  1
  C  233  1  0.58929000  0.90753600  0.33329700  1
  C  234  1  0.69831500  0.90939300  0.30996900  1
  C  239  1  0.85711600  0.06310600  0.87048500  1
  C  240  1  0.83472300  0.05807400  0.85162500  1
  C  241  1  0.84254000  0.05113500  0.82628700  1
  C  242  1  0.87405800  0.04795800  0.81963300  1
  C  243  1  0.89708600  0.05237600  0.83867500  1
  C  244  1  0.88873200  0.06021500  0.86416100  1
  C  247  1  0.84708900  0.07099600  0.89565000  1
  C  248  1  0.83826800  0.10131200  0.90241500  1
  C  249  1  0.83362100  0.10857300  0.92866600  1
  C  250  1  0.83713500  0.08556000  0.94789400  1
  C  251  1  0.84492000  0.05502100  0.94068100  1
  C  252  1  0.84982700  0.04850500  0.91475800  1
  C  265  1  0.85220200  0.03181200  0.95798300  1
  C  266  1  0.82503900  0.13828200  0.93548300  1
  C  267  1  0.92764800  0.04560400  0.83321300  1
  C  268  1  0.81869400  0.04377000  0.80971000  1
  C  273  1  0.84766700  0.57063300  0.12078900  1
  C  274  1  0.85021800  0.54845200  0.10141300  1
  C  275  1  0.84550900  0.55550300  0.07556600  1
  C  276  1  0.83804700  0.58623400  0.06869400  1
  C  277  1  0.83492700  0.60897500  0.08817700  1
  C  278  1  0.83937500  0.60119800  0.11434900  1
  C  281  1  0.85763500  0.56223900  0.14584800  1
  C  282  1  0.88921400  0.55866400  0.15203600  1
  C  283  1  0.89751100  0.54995400  0.17732400  1
  C  284  1  0.87450800  0.54573000  0.19641200  1
  C  285  1  0.84303400  0.54987400  0.18997300  1
  C  286  1  0.83524000  0.55734100  0.16472900  1
  C  299  1  0.81910000  0.54267900  0.20651000  1
  C  300  1  0.92774400  0.54146300  0.18227600  1
  C  301  1  0.82784600  0.63919400  0.08172900  1
  C  302  1  0.85289900  0.53264800  0.05798100  1
  C  307  1  0.66911300  0.38287400  0.62092900  1
  C  308  1  0.66658500  0.40508600  0.60157600  1
  C  309  1  0.67120900  0.39805700  0.57571000  1
  C  310  1  0.67857600  0.36730700  0.56881400  1
  C  311  1  0.68168000  0.34453800  0.58827800  1
  C  312  1  0.67728700  0.35229100  0.61445700  1
  C  315  1  0.65919600  0.39127500  0.64600100  1
  C  316  1  0.62763000  0.39487100  0.65223500  1
  C  317  1  0.61939500  0.40353400  0.67754800  1
  C  318  1  0.64243900  0.40772400  0.69661000  1
  C  319  1  0.67390000  0.40363700  0.69009700  1
  C  320  1  0.68163700  0.39614600  0.66484900  1
  C  333  1  0.69785400  0.41081500  0.70662100  1
  C  334  1  0.58919000  0.41208300  0.68256900  1
  C  335  1  0.68875000  0.31432300  0.58180900  1
  C  336  1  0.66384700  0.42096200  0.55816000  1
  C  341  1  0.16405100  0.06577100  0.87037000  1
  C  342  1  0.18649600  0.06857800  0.85123200  1
  C  343  1  0.17990300  0.06386600  0.82530200  1
  C  344  1  0.14932100  0.05625300  0.81809900  1
  C  345  1  0.12634000  0.05263200  0.83734700  1
  C  346  1  0.13370400  0.05704700  0.86361300  1
  C  349  1  0.17207100  0.07573600  0.89552700  1
  C  350  1  0.17555000  0.10732300  0.90173600  1
  C  351  1  0.18427600  0.11562100  0.92702200  1
  C  352  1  0.18855800  0.09262700  0.94610300  1
  C  353  1  0.18446100  0.06115100  0.93965300  1
  C  354  1  0.17702200  0.05334300  0.91440500  1
  C  367  1  0.19173600  0.03724600  0.95620200  1
  C  368  1  0.19282600  0.14585100  0.93193000  1
  C  369  1  0.09654900  0.04431900  0.83049300  1
  C  370  1  0.20309700  0.07123300  0.80800600  1
  C  375  1  0.35286500  0.88744500  0.37037300  1
  C  376  1  0.33044200  0.88470000  0.35120700  1
  C  377  1  0.33706400  0.88955800  0.32530300  1
  C  378  1  0.36759600  0.89744800  0.31816300  1
  C  379  1  0.39053800  0.90096900  0.33745000  1
  C  380  1  0.38320800  0.89625700  0.36368000  1
  C  383  1  0.34480100  0.87756000  0.39553800  1
  C  384  1  0.34124000  0.84600600  0.40181700  1
  C  385  1  0.33259600  0.83781500  0.42714300  1
  C  386  1  0.32841300  0.86088500  0.44618200  1
  C  387  1  0.33253200  0.89233400  0.43965200  1
  C  388  1  0.33993300  0.90002700  0.41437000  1
  C  401  1  0.32529300  0.91632500  0.45612500  1
  C  402  1  0.32402600  0.80761900  0.43217500  1
  C  403  1  0.42023100  0.90968400  0.33072500  1
  C  404  1  0.31392400  0.88226400  0.30793500  1
  C  409  1  0.67195700  0.57538100  0.39575500  1
  C  410  1  0.67699200  0.55296800  0.41459700  1
  C  411  1  0.68390600  0.56075400  0.43994600  1
  C  412  1  0.68707700  0.59226300  0.44663100  1
  C  413  1  0.68267200  0.61531600  0.42760500  1
  C  414  1  0.67483900  0.60699100  0.40211300  1
  C  417  1  0.66412400  0.56538300  0.37057000  1
  C  418  1  0.63382700  0.55657600  0.36372600  1
  C  419  1  0.62659500  0.55207700  0.33744400  1
  C  420  1  0.64966700  0.55567200  0.31826900  1
  C  421  1  0.68021000  0.56333800  0.32556200  1
  C  422  1  0.68666500  0.56814100  0.35150800  1
  C  435  1  0.70349700  0.57061100  0.30832800  1
  C  436  1  0.59684700  0.54370200  0.33051100  1
  C  437  1  0.68950600  0.64586400  0.43308900  1
  C  438  1  0.69124600  0.53687400  0.45649600  1
  C  443  1  0.84477100  0.37786000  0.89591800  1
  C  444  1  0.83979300  0.40024500  0.91479200  1
  C  445  1  0.83284200  0.39243000  0.94012700  1
  C  446  1  0.82962800  0.36090900  0.94676500  1
  C  447  1  0.83397100  0.33788400  0.92770500  1
  C  448  1  0.84177000  0.34624500  0.90221200  1
  C  451  1  0.85265900  0.38790300  0.87075500  1
  C  452  1  0.88295600  0.39681000  0.86400300  1
  C  453  1  0.89017900  0.40163700  0.83776900  1
  C  454  1  0.86717500  0.39813000  0.81853300  1
  C  455  1  0.83667700  0.39017100  0.82573400  1
  C  456  1  0.83015900  0.38523000  0.85165100  1
  C  469  1  0.81347300  0.38292500  0.80841400  1
  C  470  1  0.91982600  0.41044800  0.83098600  1
  C  471  1  0.82721900  0.30732200  0.93322200  1
  C  472  1  0.82545900  0.41626900  0.95670200  1
  C  477  1  0.35729000  0.06327600  0.64541200  1
  C  478  1  0.33484700  0.05835200  0.66425400  1
  C  479  1  0.34258200  0.05099800  0.68953600  1
  C  480  1  0.37404200  0.04692500  0.69604900  1
  C  481  1  0.39708900  0.05115800  0.67700200  1
  C  482  1  0.38885800  0.05980500  0.65168400  1
  C  485  1  0.34738900  0.07124000  0.62022600  1
  C  486  1  0.33858200  0.10155600  0.61343900  1
  C  487  1  0.33412500  0.10885800  0.58716500  1
  C  488  1  0.33777300  0.08584700  0.56794400  1
  C  489  1  0.34546400  0.05529800  0.57518700  1
  C  490  1  0.35019800  0.04875700  0.60112100  1
  C  503  1  0.35281700  0.03207300  0.55791600  1
  C  504  1  0.32574500  0.13861900  0.58027600  1
  C  505  1  0.42730500  0.04262400  0.68198100  1
  C  506  1  0.31861200  0.04374800  0.70602600  1
  C  511  1  0.15949100  0.89055200  0.14560600  1
  C  512  1  0.18191000  0.89544900  0.16447400  1
  C  513  1  0.17413800  0.90284100  0.18973800  1
  C  514  1  0.14266700  0.90686400  0.19623500  1
  C  515  1  0.11964700  0.90265100  0.17716300  1
  C  516  1  0.12791400  0.89403600  0.15184400  1
  C  519  1  0.16944400  0.88254000  0.12044500  1
  C  520  1  0.17830400  0.85222300  0.11372700  1
  C  521  1  0.18298500  0.84491700  0.08748800  1
  C  522  1  0.17941600  0.86787400  0.06822100  1
  C  523  1  0.17154500  0.89840600  0.07538100  1
  C  524  1  0.16664500  0.90497400  0.10129400  1
  C  537  1  0.16417600  0.92154900  0.05804000  1
  C  538  1  0.19169300  0.81523200  0.08071700  1
  C  539  1  0.08942200  0.91116400  0.18213400  1
  C  540  1  0.19805400  0.91007600  0.20628800  1
  C  545  1  0.27874200  0.40019400  0.73997200  1
  C  547  1  0.24341500  0.36879800  0.76341600  1
  C  548  1  0.23238900  0.39427300  0.77698500  1
  C  550  1  0.26776000  0.42605900  0.75350100  1
  C  552  1  0.27882200  0.45528900  0.74945100  1
  C  558  1  0.23805700  0.55325600  0.23989500  1
  C  560  1  0.27337800  0.58465800  0.26334500  1
  C  561  1  0.28443800  0.55917300  0.27688200  1
  C  563  1  0.24906000  0.52737800  0.25340200  1
  C  565  1  0.23811900  0.49810900  0.24939300  1
  C  571  1  0.83483500  0.99689700  0.99017400  1
  C  573  1  0.86599800  0.96105300  0.01328500  1
  C  574  1  0.84055900  0.95046000  0.02713200  1
  C  576  1  0.80899800  0.98638100  0.00399900  1
  C  578  1  0.77986400  0.99784800  0.00033000  1
  C  584  1  0.68178100  0.95641700  0.49031000  1
  C  586  1  0.65062700  0.99236800  0.51331000  1
  C  587  1  0.67604600  0.00292100  0.52720700  1
  C  589  1  0.70759300  0.96690700  0.50417300  1
  C  591  1  0.73667600  0.95526600  0.50052000  1
  C  597  1  0.73836500  0.55325000  0.27609700  1
  C  599  1  0.77447500  0.58433800  0.25320300  1
  C  600  1  0.78489000  0.55893400  0.23921700  1
  C  602  1  0.74869900  0.52745100  0.26212800  1
  C  604  1  0.73698700  0.49837900  0.26560400  1
  C  610  1  0.77850700  0.40028900  0.77627600  1
  C  612  1  0.74259400  0.36914300  0.75322300  1
  C  613  1  0.73205900  0.39457100  0.73933000  1
  C  615  1  0.76803600  0.42610800  0.76241300  1
  C  617  1  0.77967500  0.45518900  0.76608500  1
  C  623  1  0.18144800  0.95658100  0.02589700  1
  C  625  1  0.15013700  0.99213200  0.00261200  1
  C  626  1  0.17557900  0.00293100  0.98887600  1
  C  628  1  0.20729300  0.96732500  0.01220300  1
  C  630  1  0.23648500  0.95606400  0.01604900  1
  C  636  1  0.33556200  0.99708600  0.52573800  1
  C  638  1  0.36679600  0.96117400  0.50276600  1
  C  639  1  0.34140700  0.95057100  0.48885800  1
  C  641  1  0.30977300  0.98655000  0.51186000  1
  C  643  1  0.28063000  0.99803800  0.51544100  1
  C  649  1  0.77907100  0.89946000  0.24030500  1
  C  651  1  0.74390600  0.86793400  0.26380000  1
  C  652  1  0.73277000  0.89337700  0.27735200  1
  C  654  1  0.76796700  0.92529600  0.25380500  1
  C  656  1  0.77886500  0.95457100  0.24969800  1
  C  662  1  0.73769600  0.05397500  0.74027700  1
  C  664  1  0.77279500  0.08545100  0.76389200  1
  C  665  1  0.78405400  0.05994600  0.77728800  1
  C  667  1  0.74890700  0.02807300  0.75363800  1
  C  669  1  0.73819600  0.99875600  0.74945800  1
  C  675  1  0.33512100  0.49732500  0.48992300  1
  C  677  1  0.36641500  0.46170500  0.51316200  1
  C  678  1  0.34096300  0.45089700  0.52687900  1
  C  680  1  0.30927500  0.48656900  0.50361000  1
  C  682  1  0.28007300  0.49778900  0.49979800  1
  C  688  1  0.18178300  0.45623500  0.98995400  1
  C  690  1  0.15033200  0.49120200  0.01372100  1
  C  691  1  0.17587800  0.50252400  0.02702600  1
  C  693  1  0.20772100  0.46752400  0.00321300  1
  C  695  1  0.23701300  0.45680700  0.99885500  1
  C  701  1  0.23801100  0.05398700  0.77577000  1
  C  703  1  0.27396100  0.08520500  0.75282600  1
  C  704  1  0.28447700  0.05983400  0.73885000  1
  C  706  1  0.24845900  0.02821600  0.76182400  1
  C  708  1  0.23690300  0.99909200  0.76535300  1
  C  714  1  0.27884300  0.89961000  0.27586900  1
  C  716  1  0.24325500  0.86835900  0.25256600  1
  C  717  1  0.23244100  0.89383500  0.23887900  1
  C  719  1  0.26808600  0.92547900  0.26221900  1
  C  721  1  0.27940100  0.95464000  0.26614100  1
  C  727  1  0.68112000  0.45614700  0.52615300  1
  C  729  1  0.64970600  0.49152900  0.50277800  1
  C  730  1  0.67515000  0.50250200  0.48914400  1
  C  732  1  0.70696400  0.46708100  0.51256500  1
  C  734  1  0.73620800  0.45601200  0.51651500  1
  C  740  1  0.83561000  0.49728700  0.02611700  1
  C  742  1  0.86715000  0.46239100  0.00235800  1
  C  743  1  0.84163300  0.45099600  0.98906000  1
  C  745  1  0.80969500  0.48593400  0.01286100  1
  C  747  1  0.78033700  0.49646200  0.01717200  1
  C  753  1  0.17491500  0.19811000  0.93556500  1
  C  755  1  0.14635800  0.24396500  0.92710400  1
  C  756  1  0.17144400  0.26238500  0.93385100  1
  C  758  1  0.20030500  0.21656200  0.94274500  1
  C  760  1  0.22760200  0.20482000  0.95139700  1
  C  766  1  0.34196000  0.75529900  0.43570000  1
  C  768  1  0.37069800  0.70947500  0.42749200  1
  C  769  1  0.34551400  0.69101800  0.43392400  1
  C  771  1  0.31647900  0.73678100  0.44249900  1
  C  773  1  0.28882500  0.74836700  0.45074400  1
  C  779  1  0.03710300  0.89318900  0.18568100  1
  C  781  1  0.99130900  0.86434300  0.17763300  1
  C  782  1  0.97282500  0.88950200  0.18407500  1
  C  784  1  0.01856000  0.91864700  0.19249200  1
  C  786  1  0.03011200  0.94635000  0.20065500  1
  C  792  1  0.47961600  0.06054300  0.68560100  1
  C  794  1  0.52544600  0.08924000  0.67735500  1
  C  795  1  0.54389400  0.06415800  0.68405700  1
  C  797  1  0.49810000  0.03514500  0.69270100  1
  C  799  1  0.48640700  0.00774400  0.70115500  1
  C  805  1  0.34140500  0.19199100  0.58125200  1
  C  807  1  0.37142700  0.23807200  0.58162900  1
  C  808  1  0.34496600  0.25631600  0.58029600  1
  C  810  1  0.31454500  0.21025800  0.57992300  1
  C  812  1  0.28524100  0.19851200  0.58092800  1
  C  818  1  0.17567800  0.76178100  0.08123400  1
  C  820  1  0.14558400  0.71580000  0.08336200  1
  C  821  1  0.17182500  0.69744500  0.08072000  1
  C  823  1  0.20227100  0.74337400  0.07846800  1
  C  825  1  0.23136700  0.75499900  0.07692800  1
  C  831  1  0.47364300  0.89346900  0.33112900  1
  C  833  1  0.51948700  0.86317000  0.33333333  1
  C  834  1  0.53796700  0.88934800  0.33089200  1
  C  836  1  0.49218500  0.92000200  0.32856300  1
  C  838  1  0.48071300  0.94932500  0.32708800  1
  C  844  1  0.04321100  0.06012100  0.83155400  1
  C  846  1  0.99722900  0.09028200  0.83198700  1
  C  847  1  0.97890700  0.06387900  0.83059000  1
  C  849  1  0.02487200  0.03332000  0.83010100  1
  C  851  1  0.03653200  0.00397600  0.83099500  1
  C  857  1  0.84138800  0.75535800  0.08053200  1
  C  859  1  0.87025000  0.70967200  0.08892000  1
  C  860  1  0.84523500  0.69110700  0.08227000  1
  C  862  1  0.81606700  0.73675500  0.07345800  1
  C  864  1  0.78865000  0.74832200  0.06491200  1
  C  870  1  0.67525000  0.19816300  0.58044800  1
  C  872  1  0.64621500  0.24383900  0.58852600  1
  C  873  1  0.67134900  0.26242600  0.58222000  1
  C  875  1  0.70068300  0.21681900  0.57379000  1
  C  877  1  0.72847000  0.20539500  0.56570600  1
  C  883  1  0.67520700  0.76146200  0.43481900  1
  C  885  1  0.64495100  0.71553900  0.43435300  1
  C  886  1  0.67131000  0.69715600  0.43574200  1
  C  888  1  0.70196600  0.74306600  0.43630100  1
  C  890  1  0.73133900  0.75465000  0.43538000  1
  C  896  1  0.84126900  0.19167200  0.93494300  1
  C  898  1  0.87155700  0.23752100  0.93276500  1
  C  899  1  0.84540600  0.25599500  0.93547400  1
  C  901  1  0.81476000  0.21019700  0.93771600  1
  C  903  1  0.78561500  0.19869500  0.93928600  1
  C  909  1  0.53683800  0.39409000  0.68601100  1
  C  911  1  0.49112000  0.36499300  0.67825100  1
  C  912  1  0.47256000  0.39023800  0.68430700  1
  C  914  1  0.51821200  0.41965800  0.69236600  1
  C  916  1  0.52965900  0.44758700  0.70008000  1
  C  922  1  0.98000400  0.55952700  0.18574100  1
  C  924  1  0.02574200  0.58828300  0.17729200  1
  C  925  1  0.04426700  0.56324500  0.18396400  1
  C  927  1  0.99856600  0.53419400  0.19286000  1
  C  929  1  0.98695000  0.50682300  0.20146300  1
  C  935  1  0.97328200  0.39435700  0.83120000  1
  C  937  1  0.01920700  0.36415600  0.83318300  1
  C  938  1  0.03761200  0.39039300  0.83077200  1
  C  940  1  0.99174800  0.42094400  0.82867000  1
  C  942  1  0.98020300  0.45024900  0.82732800  1
  C  948  1  0.54347800  0.55942800  0.33140200  1
  C  950  1  0.49744900  0.58952600  0.33166900  1
  C  951  1  0.47916800  0.56309400  0.33030600  1
  C  953  1  0.52517900  0.53259800  0.32997900  1
  C  955  1  0.53687500  0.50327300  0.33097000  1
  N  8  1  0.18236400  0.35977100  0.97248700  1
  N  15  1  0.13466400  0.41359700  0.79506500  1
  N  17  1  0.18095000  0.33086100  0.88298500  1
  N  18  1  0.10619800  0.38965600  0.88242600  1
  N  42  1  0.33467300  0.59360500  0.47236100  1
  N  49  1  0.38218100  0.53977900  0.29491000  1
  N  51  1  0.33600400  0.62264000  0.38289200  1
  N  52  1  0.41069800  0.56400100  0.38220000  1
  N  76  1  0.87554600  0.90018600  0.22267400  1
  N  83  1  0.81942700  0.85296400  0.04567500  1
  N  85  1  0.90426500  0.89896600  0.13312600  1
  N  86  1  0.84520100  0.82435800  0.13257600  1
  N  110  1  0.64121400  0.05340800  0.72273400  1
  N  117  1  0.69701300  0.10037900  0.54560200  1
  N  119  1  0.61244000  0.05461600  0.63319200  1
  N  120  1  0.67159100  0.12924000  0.63252300  1
  N  144  1  0.32161500  0.35333600  0.54496100  1
  N  151  1  0.37508000  0.40087900  0.72250000  1
  N  153  1  0.34561700  0.32469000  0.63226200  1
  N  154  1  0.40425200  0.39938700  0.63306700  1
  N  178  1  0.19514400  0.60047100  0.04492500  1
  N  185  1  0.14174000  0.55258800  0.22239900  1
  N  187  1  0.17138500  0.62884600  0.13234400  1
  N  188  1  0.11265600  0.55401700  0.13293900  1
  N  212  1  0.63513200  0.91236400  0.29539200  1
  N  219  1  0.68225800  0.86053600  0.47332700  1
  N  221  1  0.60645100  0.88852700  0.38272500  1
  N  222  1  0.68221500  0.83034700  0.38405500  1
  N  246  1  0.88189300  0.04073700  0.79523300  1
  N  253  1  0.83390000  0.09266700  0.97302900  1
  N  255  1  0.91043400  0.06480900  0.88254400  1
  N  256  1  0.83464500  0.12286100  0.88378700  1
  N  280  1  0.83472800  0.59375300  0.04365700  1
  N  287  1  0.88234800  0.53775200  0.22064400  1
  N  289  1  0.83617700  0.62254900  0.13318900  1
  N  290  1  0.91097200  0.56349800  0.13374300  1
  N  314  1  0.68182000  0.35978900  0.54377100  1
  N  321  1  0.63465400  0.41563800  0.72086900  1
  N  323  1  0.68044400  0.33091400  0.63328000  1
  N  324  1  0.60583400  0.39011600  0.63396000  1
  N  348  1  0.14216000  0.05331700  0.79294600  1
  N  355  1  0.19655400  0.10048700  0.97032600  1
  N  357  1  0.11223700  0.05330600  0.88228600  1
  N  358  1  0.17062100  0.12908500  0.88346500  1
  N  382  1  0.37476900  0.90076900  0.29304900  1
  N  389  1  0.32049100  0.85313500  0.47044500  1
  N  391  1  0.40472300  0.89976800  0.38234800  1
  N  392  1  0.34601500  0.82418200  0.38356800  1
  N  416  1  0.69430600  0.60006900  0.47103600  1
  N  423  1  0.64262000  0.55266100  0.29310000  1
  N  425  1  0.67024700  0.62871600  0.38374800  1
  N  426  1  0.61228200  0.55281000  0.38233400  1
  N  450  1  0.82244900  0.35308100  0.97117700  1
  N  457  1  0.87426800  0.40151700  0.79340800  1
  N  459  1  0.84620900  0.32456000  0.88379100  1
  N  460  1  0.90453500  0.40032400  0.88262300  1
  N  484  1  0.38183200  0.03899500  0.72030000  1
  N  491  1  0.33479000  0.09295100  0.54278500  1
  N  493  1  0.41066100  0.06466100  0.63342900  1
  N  494  1  0.33482600  0.12305800  0.63208400  1
  N  518  1  0.13484000  0.91473000  0.22049600  1
  N  525  1  0.18268400  0.86072600  0.04309600  1
  N  527  1  0.10614000  0.88921700  0.13356100  1
  N  528  1  0.18190700  0.83071000  0.13238500  1
  N  546  1  0.26578700  0.37268800  0.74576400  1
  N  549  1  0.24526800  0.42174200  0.77114500  1
  N  556  1  0.30081800  0.40286600  0.72232600  1
  N  557  1  0.21009200  0.39089000  0.79424800  1
  N  559  1  0.25099600  0.58076500  0.24570100  1
  N  562  1  0.27157200  0.53170500  0.27102300  1
  N  569  1  0.21599800  0.55060900  0.22223600  1
  N  570  1  0.30673300  0.56255100  0.29414300  1
  N  572  1  0.86220900  0.98348500  0.99567100  1
  N  575  1  0.81322400  0.96380800  0.02158500  1
  N  582  1  0.83229300  0.01903000  0.97257800  1
  N  583  1  0.84383800  0.92812200  0.04437200  1
  N  585  1  0.65441900  0.96989600  0.49573100  1
  N  588  1  0.70336900  0.98950400  0.52173900  1
  N  595  1  0.68435200  0.93422500  0.47276600  1
  N  596  1  0.67275900  0.02530100  0.54440900  1
  N  598  1  0.75199000  0.58056900  0.27077700  1
  N  601  1  0.77132300  0.53165600  0.24458600  1
  N  608  1  0.71618500  0.55072700  0.29365400  1
  N  609  1  0.80725800  0.56219700  0.22200100  1
  N  611  1  0.76503900  0.37292900  0.77082900  1
  N  614  1  0.74546700  0.42189200  0.74482000  1
  N  621  1  0.80067100  0.40284900  0.79384600  1
  N  622  1  0.70971600  0.39128900  0.72209300  1
  N  624  1  0.15399800  0.96974600  0.02025800  1
  N  627  1  0.20299000  0.98983400  0.99457000  1
  N  634  1  0.18406300  0.93446900  0.04351000  1
  N  635  1  0.17222400  0.02523700  0.97161300  1
  N  637  1  0.36295000  0.98364600  0.52034000  1
  N  640  1  0.31405900  0.96394400  0.49431500  1
  N  647  1  0.33295700  0.01924900  0.54330300  1
  N  648  1  0.34474600  0.92818600  0.47166300  1
  N  650  1  0.76625100  0.87190100  0.24613300  1
  N  653  1  0.74550800  0.92089600  0.27146600  1
  N  660  1  0.80110700  0.90221400  0.22263200  1
  N  661  1  0.71048400  0.88991600  0.29461500  1
  N  663  1  0.75043600  0.08153300  0.74623100  1
  N  666  1  0.77139600  0.03242800  0.77127600  1
  N  673  1  0.71565900  0.05129900  0.72259900  1
  N  674  1  0.80635300  0.06335300  0.79454700  1
  N  676  1  0.36256100  0.48411800  0.49554100  1
  N  679  1  0.31356000  0.46402100  0.52120400  1
  N  686  1  0.33250600  0.51939100  0.47226800  1
  N  687  1  0.34429800  0.42856300  0.54411400  1
  N  689  1  0.15421700  0.46887000  0.99603100  1
  N  692  1  0.20340600  0.48996800  0.02089800  1
  N  699  1  0.18444400  0.43418400  0.97228800  1
  N  700  1  0.17249800  0.52478700  0.04431700  1
  N  702  1  0.25151100  0.08135800  0.77041700  1
  N  705  1  0.27104600  0.03250100  0.74426100  1
  N  712  1  0.21587400  0.05138100  0.79335700  1
  N  713  1  0.30683400  0.06317300  0.72163200  1
  N  715  1  0.26566600  0.87217400  0.27019800  1
  N  718  1  0.24555600  0.92123100  0.24459800  1
  N  725  1  0.30098200  0.90220000  0.29346200  1
  N  726  1  0.21011300  0.89051800  0.22163100  1
  N  728  1  0.65361900  0.46915500  0.52042500  1
  N  731  1  0.70261200  0.48957400  0.49492900  1
  N  738  1  0.68379700  0.43409900  0.54382200  1
  N  739  1  0.67174900  0.52479900  0.47188300  1
  N  741  1  0.86320700  0.48471800  0.02004400  1
  N  744  1  0.81407600  0.46348100  0.99519500  1
  N  751  1  0.83291500  0.51931000  0.04380500  1
  N  752  1  0.84506400  0.42871900  0.97178400  1
  N  754  1  0.14919900  0.21307400  0.92809100  1
  N  757  1  0.19728600  0.24761800  0.94137600  1
  N  764  1  0.17310800  0.16762900  0.93367300  1
  N  765  1  0.16949600  0.29261400  0.93103500  1
  N  767  1  0.36780000  0.74036700  0.42847100  1
  N  770  1  0.31952100  0.70574500  0.44113400  1
  N  777  1  0.34369500  0.78577200  0.43370700  1
  N  778  1  0.34750700  0.66079500  0.43108000  1
  N  780  1  0.02219700  0.86730300  0.17853100  1
  N  783  1  0.98753100  0.91554500  0.19119400  1
  N  790  1  0.06757300  0.89149300  0.18364100  1
  N  791  1  0.94260600  0.88748800  0.18122500  1
  N  793  1  0.49455700  0.08632700  0.67825900  1
  N  796  1  0.52915100  0.03823300  0.69141100  1
  N  803  1  0.44914500  0.06229500  0.68357300  1
  N  804  1  0.57411800  0.06612700  0.68121600  1
  N  806  1  0.36852900  0.20715100  0.58234200  1
  N  809  1  0.31770900  0.24129900  0.57986600  1
  N  816  1  0.34340500  0.16169900  0.58431800  1
  N  817  1  0.34731100  0.28662900  0.58256900  1
  N  819  1  0.14864600  0.74671400  0.08379500  1
  N  822  1  0.19903500  0.71233700  0.07860800  1
  N  829  1  0.17388900  0.79212100  0.08415300  1
  N  830  1  0.16951400  0.66713200  0.08300900  1
  N  832  1  0.48858300  0.86635900  0.33364000  1
  N  835  1  0.52319700  0.91663000  0.32884500  1
  N  842  1  0.44329600  0.89178000  0.33400600  1
  N  843  1  0.56825500  0.88690500  0.33333333  1
  N  845  1  0.02814000  0.08728900  0.83270500  1
  N  848  1  0.99384200  0.03658000  0.83006500  1
  N  855  1  0.07351700  0.06202600  0.83457600  1
  N  856  1  0.94860500  0.06630800  0.83290200  1
  N  858  1  0.86722600  0.74054700  0.08792600  1
  N  861  1  0.81927000  0.70572200  0.07483000  1
  N  868  1  0.84302700  0.78584700  0.08242100  1
  N  869  1  0.84735400  0.66089000  0.08509200  1
  N  871  1  0.64928300  0.21296100  0.58755600  1
  N  874  1  0.69747000  0.24783400  0.57514300  1
  N  881  1  0.67366400  0.16768000  0.58244200  1
  N  882  1  0.66919800  0.29264300  0.58505800  1
  N  884  1  0.64801000  0.74644700  0.43364600  1
  N  887  1  0.69864000  0.71204000  0.43629900  1
  N  894  1  0.67337200  0.79177200  0.43178800  1
  N  895  1  0.66883700  0.66685400  0.43343000  1
  N  897  1  0.86836400  0.20662000  0.93235800  1
  N  900  1  0.81813400  0.24122000  0.93758500  1
  N  907  1  0.84292200  0.16132700  0.93202100  1
  N  908  1  0.84785400  0.28629100  0.93315400  1
  N  910  1  0.52200200  0.36803500  0.67918700  1
  N  913  1  0.48719300  0.41646500  0.69104900  1
  N  920  1  0.56732000  0.39242800  0.68402800  1
  N  921  1  0.44235200  0.38811900  0.68139900  1
  N  923  1  0.99486300  0.58531100  0.17828800  1
  N  926  1  0.02960700  0.53733000  0.19145900  1
  N  933  1  0.94951700  0.56121300  0.18383900  1
  N  934  1  0.07448200  0.56529100  0.18108900  1
  N  936  1  0.98829600  0.36726900  0.83357300  1
  N  939  1  0.02277000  0.41764800  0.82885200  1
  N  946  1  0.94294600  0.39258100  0.83414700  1
  N  947  1  0.06791800  0.38800700  0.83307500  1
  N  949  1  0.52836500  0.58658000  0.33245600  1
  N  952  1  0.49414400  0.53581400  0.32987600  1
  N  959  1  0.57377000  0.56138700  0.33449100  1
  N  960  1  0.44885700  0.56548500  0.33256000  1
  O  553  1  0.26122900  0.47685700  0.75215700  1
  O  554  1  0.30639200  0.45927100  0.75339100  1
  O  566  1  0.25546300  0.47638400  0.25237600  1
  O  567  1  0.21029000  0.49394500  0.25173000  1
  O  579  1  0.75788000  0.98091100  0.00360100  1
  O  580  1  0.77624100  0.02575700  0.00264400  1
  O  592  1  0.75853400  0.97242700  0.50352100  1
  O  593  1  0.74004100  0.92761600  0.50448200  1
  O  605  1  0.75375300  0.47628800  0.26221300  1
  O  606  1  0.70905600  0.49500600  0.26323300  1
  O  618  1  0.76252500  0.47705100  0.76306000  1
  O  619  1  0.80733400  0.45854900  0.76216500  1
  O  631  1  0.25821700  0.97338500  0.01297600  1
  O  632  1  0.24044100  0.92825100  0.01351400  1
  O  644  1  0.25864900  0.98110600  0.51213700  1
  O  645  1  0.27702600  0.02594600  0.51311100  1
  O  657  1  0.76116300  0.97605400  0.25238200  1
  O  658  1  0.80642400  0.95871300  0.25358700  1
  O  670  1  0.75571600  0.97714200  0.75230500  1
  O  671  1  0.71040200  0.99434700  0.75175700  1
  O  683  1  0.25821200  0.48065800  0.50294400  1
  O  684  1  0.27620100  0.52565900  0.50215200  1
  O  696  1  0.25840900  0.47466000  0.00132300  1
  O  697  1  0.24138500  0.42929100  0.00276900  1
  O  709  1  0.25377600  0.97707800  0.76198100  1
  O  710  1  0.20898200  0.99556800  0.76304100  1
  O  722  1  0.26200700  0.97634700  0.26331100  1
  O  723  1  0.30702100  0.95835900  0.26225700  1
  O  735  1  0.75783900  0.47348400  0.51354000  1
  O  736  1  0.74036100  0.42823600  0.51393800  1
  O  748  1  0.75881300  0.47881600  0.01440800  1
  O  749  1  0.77574800  0.52423300  0.01490800  1
  O  761  1  0.25131900  0.21681100  0.94403700  1
  O  762  1  0.22686400  0.19301000  0.97265200  1
  O  774  1  0.28852100  0.75944400  0.47199700  1
  O  775  1  0.26409100  0.73754000  0.44381100  1
  O  787  1  0.04115700  0.94675800  0.22192000  1
  O  788  1  0.01924700  0.97103600  0.19364800  1
  O  800  1  0.49834000  0.98413300  0.69350300  1
  O  801  1  0.47481800  0.00820400  0.72249700  1
  O  813  1  0.26682900  0.20779400  0.56529800  1
  O  814  1  0.27373200  0.19074300  0.60134500  1
  O  826  1  0.24858300  0.74889000  0.09452400  1
  O  827  1  0.24186000  0.75670100  0.05525800  1
  O  839  1  0.47677200  0.95868700  0.30551100  1
  O  840  1  0.48854600  0.96924800  0.34233400  1
  O  852  1  0.02716700  0.98566700  0.81531700  1
  O  853  1  0.04431300  0.99234900  0.85136300  1
  O  865  1  0.76505500  0.73628600  0.07248500  1
  O  866  1  0.78915800  0.75993300  0.04357900  1
  O  878  1  0.72906000  0.19451900  0.54438500  1
  O  879  1  0.75307600  0.21627400  0.57289300  1
  O  891  1  0.74963100  0.74526300  0.45106200  1
  O  892  1  0.74297800  0.76235900  0.41499900  1
  O  904  1  0.76840400  0.20488100  0.92170600  1
  O  905  1  0.77514200  0.19705400  0.96096500  1
  O  917  1  0.54031500  0.44862800  0.72146600  1
  O  918  1  0.51892300  0.47205100  0.69243400  1
  O  930  1  0.99893200  0.48318200  0.19392900  1
  O  931  1  0.97535300  0.50741100  0.22279900  1
  O  943  1  0.97623900  0.45974300  0.80579400  1
  O  944  1  0.98799700  0.47008700  0.84266300  1
  O  956  1  0.52759200  0.48490200  0.31530800  1
  O  957  1  0.54457300  0.49171900  0.35138700  1
