# generated using pymatgen
data_H12C17(NO2)2
_symmetry_space_group_name_H-M   'P 1'
_cell_length_a   22.23220000
_cell_length_b   35.54080000
_cell_length_c   42.64270000
_cell_angle_alpha   90.00000000
_cell_angle_beta   90.00000000
_cell_angle_gamma   90.00000000
_symmetry_Int_Tables_number   1
_chemical_formula_structural   H12C17(NO2)2
_chemical_formula_sum   'H384 C544 N64 O128'
_cell_volume   33694.13681460
_cell_formula_units_Z   32
loop_
 _symmetry_equiv_pos_site_id
 _symmetry_equiv_pos_as_xyz
  1  'x, y, z'
loop_
 _atom_site_type_symbol
 _atom_site_label
 _atom_site_symmetry_multiplicity
 _atom_site_fract_x
 _atom_site_fract_y
 _atom_site_fract_z
 _atom_site_occupancy
  C  1  1  0.24429900  0.11976700  0.17239900  1
  C  2  1  0.30169700  0.09574600  0.18039400  1
  C  3  1  0.18748000  0.09427700  0.17636400  1
  C  4  1  0.18940500  0.05731400  0.15612100  1
  C  7  1  0.24769700  0.03535600  0.16604100  1
  C  8  1  0.30688200  0.05874000  0.16032700  1
  C  13  1  0.30905600  0.07190400  0.12520400  1
  C  14  1  0.25244300  0.09538700  0.11461400  1
  C  17  1  0.19590500  0.06967600  0.12084500  1
  C  20  1  0.24831000  0.13053100  0.13659500  1
  C  23  1  0.24447700  0.11896300  0.82196400  1
  C  24  1  0.18616900  0.09559500  0.81460300  1
  C  25  1  0.30076300  0.09326600  0.81708200  1
  C  26  1  0.29920000  0.05641600  0.83736700  1
  C  29  1  0.23976000  0.03494900  0.82827000  1
  C  30  1  0.18092200  0.05861900  0.83466000  1
  C  35  1  0.17987700  0.07140700  0.86995400  1
  C  36  1  0.23797800  0.09363800  0.87996000  1
  C  39  1  0.29491900  0.06887100  0.87269000  1
  C  42  1  0.24219700  0.12903100  0.85793500  1
  C  45  1  0.74137900  0.84093900  0.82245400  1
  C  46  1  0.79749600  0.86610700  0.81436600  1
  C  47  1  0.68332000  0.86531600  0.81863700  1
  C  48  1  0.68353000  0.90222100  0.83895900  1
  C  51  1  0.74055600  0.92538000  0.82893600  1
  C  52  1  0.80096800  0.90319100  0.83445600  1
  C  57  1  0.80418900  0.88999000  0.86953600  1
  C  58  1  0.74893600  0.86535900  0.88024900  1
  C  61  1  0.69102800  0.88992200  0.87420100  1
  C  64  1  0.74627300  0.83019300  0.85824000  1
  C  67  1  0.74726400  0.84173500  0.17295700  1
  C  68  1  0.69048900  0.86631200  0.18085700  1
  C  69  1  0.80505200  0.86620300  0.17739300  1
  C  70  1  0.80486400  0.90309800  0.15715200  1
  C  73  1  0.74696100  0.92581900  0.16682500  1
  C  74  1  0.68663400  0.90346400  0.16093500  1
  C  79  1  0.68368400  0.89080300  0.12564100  1
  C  80  1  0.74017400  0.86735400  0.11506800  1
  C  83  1  0.79867900  0.89085900  0.12184800  1
  C  86  1  0.74325500  0.83183100  0.13699600  1
  C  89  1  0.74654300  0.61985500  0.67228600  1
  C  90  1  0.80197800  0.59386200  0.67947100  1
  C  91  1  0.68932200  0.59464700  0.67752500  1
  C  92  1  0.68817700  0.55797400  0.65673800  1
  C  95  1  0.74567400  0.53455300  0.66533300  1
  C  96  1  0.80503900  0.55717400  0.65923800  1
  C  101  1  0.80637500  0.57106300  0.62430100  1
  C  102  1  0.75077800  0.59617500  0.61468900  1
  C  105  1  0.69323000  0.57142600  0.62157600  1
  C  108  1  0.74970500  0.63141300  0.63680500  1
  C  111  1  0.74117600  0.61918500  0.32217200  1
  C  112  1  0.68460600  0.59395800  0.31579800  1
  C  113  1  0.79763600  0.59369300  0.31586200  1
  C  114  1  0.79923800  0.55709300  0.33662700  1
  C  117  1  0.74040300  0.53429600  0.32897500  1
  C  118  1  0.68151100  0.55727600  0.33596300  1
  C  123  1  0.68181200  0.57062400  0.37111100  1
  C  124  1  0.73919800  0.59435400  0.38000400  1
  C  127  1  0.79689400  0.57056200  0.37183800  1
  C  130  1  0.74013800  0.62989900  0.35785900  1
  C  133  1  0.24364100  0.34092100  0.32259900  1
  C  134  1  0.29802100  0.36775800  0.31532200  1
  C  135  1  0.18543200  0.36525100  0.31736500  1
  C  136  1  0.18288700  0.40190800  0.33812600  1
  C  139  1  0.23937200  0.42620900  0.32943000  1
  C  140  1  0.29963200  0.40454400  0.33549900  1
  C  145  1  0.30165500  0.39071800  0.37044500  1
  C  146  1  0.24714100  0.36474500  0.38015200  1
  C  149  1  0.18860400  0.38857600  0.37329500  1
  C  152  1  0.24733000  0.32946100  0.35808400  1
  C  155  1  0.24394400  0.34156300  0.67275000  1
  C  156  1  0.18870400  0.36774400  0.67962800  1
  C  157  1  0.30170500  0.36605600  0.67868100  1
  C  158  1  0.30435900  0.40267900  0.65796900  1
  C  161  1  0.24682200  0.42646800  0.66617700  1
  C  162  1  0.18672500  0.40457500  0.65960600  1
  C  167  1  0.18539100  0.39135100  0.62443000  1
  C  168  1  0.24140200  0.36663800  0.61501000  1
  C  171  1  0.30036200  0.38938400  0.62274900  1
  C  174  1  0.24144200  0.33100600  0.63705800  1
  C  177  1  0.25423900  0.10784700  0.08036100  1
  C  178  1  0.30441000  0.10153900  0.06043700  1
  C  179  1  0.30163000  0.10813600  0.02806100  1
  C  180  1  0.24816200  0.12126100  0.01407800  1
  C  181  1  0.19879700  0.13092300  0.03339900  1
  C  182  1  0.20343400  0.12524500  0.06619700  1
  C  184  1  0.24098700  0.11550100  0.98140800  1
  C  185  1  0.23341700  0.07850800  0.96975000  1
  C  186  1  0.23155900  0.07276200  0.93702500  1
  C  187  1  0.23630500  0.10255900  0.91495300  1
  C  188  1  0.24153100  0.13938500  0.92766600  1
  C  189  1  0.24408300  0.14583800  0.96021300  1
  C  201  1  0.75178300  0.85292800  0.91449100  1
  C  202  1  0.80195800  0.86010000  0.93420400  1
  C  203  1  0.79983000  0.85369600  0.96661300  1
  C  204  1  0.74697000  0.84001300  0.98086100  1
  C  205  1  0.69789800  0.82925600  0.96174000  1
  C  206  1  0.70194800  0.83472900  0.92889200  1
  C  208  1  0.74012400  0.84577600  0.01356800  1
  C  209  1  0.73391700  0.88281700  0.02535800  1
  C  210  1  0.73286600  0.88848100  0.05810000  1
  C  211  1  0.73695600  0.85855500  0.08008400  1
  C  212  1  0.74042600  0.82170200  0.06726300  1
  C  213  1  0.74226600  0.81532900  0.03469300  1
  C  225  1  0.75243600  0.60889300  0.58048600  1
  C  226  1  0.80313600  0.60351300  0.56071500  1
  C  227  1  0.80073400  0.61038900  0.52839300  1
  C  228  1  0.74697900  0.62268800  0.51421400  1
  C  229  1  0.69710100  0.63171400  0.53341300  1
  C  230  1  0.70146000  0.62597700  0.56624400  1
  C  232  1  0.74068400  0.61667200  0.48150300  1
  C  233  1  0.73660900  0.57943300  0.46988500  1
  C  234  1  0.73613900  0.57351900  0.43717700  1
  C  235  1  0.73842800  0.60333600  0.41500900  1
  C  236  1  0.74057400  0.64031600  0.42765100  1
  C  237  1  0.74201800  0.64696400  0.46020300  1
  C  249  1  0.24954700  0.35211700  0.41436600  1
  C  250  1  0.30043800  0.35796100  0.43391000  1
  C  251  1  0.29865600  0.35121700  0.46625300  1
  C  252  1  0.24530600  0.33868200  0.48070300  1
  C  253  1  0.19540100  0.32905000  0.46172900  1
  C  254  1  0.19918800  0.33461900  0.42885400  1
  C  256  1  0.23955200  0.34466100  0.51345700  1
  C  257  1  0.23670600  0.38189400  0.52519400  1
  C  258  1  0.23728200  0.38769900  0.55791500  1
  C  259  1  0.23923800  0.35778600  0.57999800  1
  C  260  1  0.23990700  0.32083400  0.56725700  1
  C  261  1  0.24044000  0.31428700  0.53468400  1
  C  273  1  0.13363900  0.03284500  0.16012200  1
  C  274  1  0.08449000  0.04268600  0.17982200  1
  C  275  1  0.03190000  0.02106000  0.18118500  1
  C  276  1  0.02649700  0.98830200  0.16293500  1
  C  277  1  0.07477300  0.97669000  0.14363100  1
  C  278  1  0.12747100  0.99896300  0.14272700  1
  C  280  1  0.97097000  0.96915200  0.16284700  1
  C  281  1  0.92231500  0.98194900  0.14434900  1
  C  282  1  0.86856800  0.96072200  0.14399900  1
  C  283  1  0.86159400  0.92670000  0.16112100  1
  C  284  1  0.91114200  0.91568400  0.18010400  1
  C  285  1  0.96484400  0.93631900  0.18095400  1
  C  297  1  0.35445100  0.03158600  0.83295300  1
  C  298  1  0.40414800  0.04167900  0.81373100  1
  C  299  1  0.45710700  0.02031800  0.81294500  1
  C  300  1  0.46218500  0.98756200  0.83123700  1
  C  301  1  0.41308100  0.97544400  0.84972000  1
  C  302  1  0.36012000  0.99744100  0.85005600  1
  C  304  1  0.51774800  0.96848500  0.83195400  1
  C  305  1  0.56520700  0.98065700  0.85157300  1
  C  306  1  0.61870600  0.95918100  0.85263800  1
  C  307  1  0.62649200  0.92554000  0.83510800  1
  C  308  1  0.57787600  0.91492700  0.81531800  1
  C  309  1  0.52453400  0.93581300  0.81373500  1
  C  321  1  0.85492200  0.92824100  0.82718700  1
  C  322  1  0.90043600  0.91876500  0.80517400  1
  C  323  1  0.95242000  0.94080400  0.80143300  1
  C  324  1  0.96044000  0.97380000  0.81923200  1
  C  325  1  0.91531800  0.98499000  0.84068000  1
  C  326  1  0.86350400  0.96231800  0.84405900  1
  C  328  1  0.01733900  0.99160800  0.81961900  1
  C  329  1  0.06241300  0.97910700  0.84058400  1
  C  330  1  0.11524600  0.00079800  0.84405200  1
  C  331  1  0.12503900  0.03511300  0.82771000  1
  C  332  1  0.07913700  0.04614100  0.80640900  1
  C  333  1  0.02616400  0.02506100  0.80254000  1
  C  345  1  0.63226800  0.92811800  0.16839300  1
  C  346  1  0.58612700  0.91775500  0.18978100  1
  C  347  1  0.53382900  0.93948500  0.19360000  1
  C  348  1  0.52607000  0.97304900  0.17652900  1
  C  349  1  0.57173800  0.98509700  0.15572900  1
  C  350  1  0.62383600  0.96271200  0.15224400  1
  C  352  1  0.46908500  0.99074700  0.17608800  1
  C  353  1  0.42479400  0.97893200  0.15440200  1
  C  354  1  0.37228300  0.00088400  0.15072300  1
  C  355  1  0.36212700  0.03480800  0.16755800  1
  C  356  1  0.40710300  0.04508300  0.18963300  1
  C  357  1  0.45974200  0.02373700  0.19371300  1
  C  369  1  0.63208800  0.53383800  0.66127300  1
  C  370  1  0.58531200  0.54273200  0.68275400  1
  C  371  1  0.53301000  0.52079400  0.68521600  1
  C  372  1  0.52565000  0.48853800  0.66646500  1
  C  373  1  0.57158500  0.47809100  0.64522800  1
  C  374  1  0.62387600  0.50063700  0.64319300  1
  C  376  1  0.46962000  0.46969700  0.66653800  1
  C  377  1  0.42284100  0.48135200  0.64628100  1
  C  378  1  0.36953600  0.45974500  0.64489500  1
  C  379  1  0.36100200  0.42628800  0.66262600  1
  C  380  1  0.40851600  0.41630200  0.68331000  1
  C  381  1  0.46189500  0.43736000  0.68517200  1
  C  393  1  0.85471000  0.53252700  0.33157100  1
  C  394  1  0.90222700  0.54184300  0.31067200  1
  C  395  1  0.95504000  0.52025600  0.30880500  1
  C  396  1  0.96206400  0.48794100  0.32754000  1
  C  397  1  0.91505000  0.47678800  0.34784400  1
  C  398  1  0.86234400  0.49896500  0.34927600  1
  C  400  1  0.01816600  0.46921100  0.32815200  1
  C  401  1  0.06354100  0.48015900  0.34954100  1
  C  402  1  0.11644800  0.45822000  0.35172000  1
  C  403  1  0.12585800  0.42516300  0.33362100  1
  C  404  1  0.07947000  0.41565200  0.31209300  1
  C  405  1  0.02657800  0.43701100  0.30945700  1
  C  417  1  0.35354500  0.42965000  0.32871000  1
  C  418  1  0.39860300  0.42076500  0.30624400  1
  C  419  1  0.45135400  0.44209200  0.30338600  1
  C  420  1  0.46044400  0.47367600  0.32265300  1
  C  421  1  0.41543800  0.48482700  0.34416400  1
  C  422  1  0.36262300  0.46291900  0.34654900  1
  C  424  1  0.51741800  0.49098300  0.32298800  1
  C  425  1  0.56245800  0.47864200  0.34402300  1
  C  426  1  0.61594400  0.49986300  0.34664800  1
  C  427  1  0.62581400  0.53355600  0.32948900  1
  C  428  1  0.58022100  0.54392200  0.30774500  1
  C  429  1  0.52686000  0.52325800  0.30460100  1
  C  441  1  0.13229400  0.42924200  0.66652400  1
  C  442  1  0.08657700  0.41943100  0.68836800  1
  C  443  1  0.03369000  0.44057600  0.69143300  1
  C  444  1  0.02503500  0.47291100  0.67300300  1
  C  445  1  0.07054200  0.48491100  0.65210600  1
  C  446  1  0.12347900  0.46315300  0.64950100  1
  C  448  1  0.96796500  0.49008800  0.67266600  1
  C  449  1  0.92375000  0.47851000  0.65086400  1
  C  450  1  0.87039000  0.49984000  0.64818800  1
  C  451  1  0.85996000  0.53294000  0.66603400  1
  C  452  1  0.90448500  0.54240800  0.68863300  1
  C  453  1  0.95770800  0.52161000  0.69183700  1
  C  465  1  0.24281400  0.30600900  0.30194600  1
  C  466  1  0.19266200  0.28129400  0.30226300  1
  C  467  1  0.18785400  0.25111100  0.28118500  1
  C  468  1  0.23436200  0.24389400  0.25958200  1
  C  469  1  0.28762700  0.26559300  0.26048100  1
  C  470  1  0.29068700  0.29624900  0.28138700  1
  C  472  1  0.22877600  0.21422100  0.23784100  1
  C  473  1  0.22561000  0.22132100  0.20522000  1
  C  474  1  0.23082100  0.19076000  0.18420000  1
  C  475  1  0.23854100  0.15309200  0.19456200  1
  C  476  1  0.23792000  0.14721900  0.22751900  1
  C  477  1  0.23401700  0.17706800  0.24883500  1
  C  489  1  0.24468100  0.30638100  0.69317300  1
  C  490  1  0.29474700  0.28159800  0.69268800  1
  C  491  1  0.29962900  0.25126500  0.71364600  1
  C  492  1  0.25339800  0.24399200  0.73541300  1
  C  493  1  0.20031300  0.26587900  0.73478400  1
  C  494  1  0.19711000  0.29661700  0.71394300  1
  C  496  1  0.25897900  0.21407200  0.75699200  1
  C  497  1  0.26315100  0.22079300  0.78965200  1
  C  498  1  0.25832400  0.19003300  0.81053400  1
  C  499  1  0.24977300  0.15251800  0.79999100  1
  C  500  1  0.24900700  0.14700100  0.76698900  1
  C  501  1  0.25272400  0.17704300  0.74583400  1
  C  513  1  0.74440200  0.65467700  0.69302100  1
  C  514  1  0.69357000  0.67884000  0.69254700  1
  C  515  1  0.68772200  0.70901100  0.71357500  1
  C  516  1  0.73371200  0.71667300  0.73537000  1
  C  517  1  0.78743200  0.69540200  0.73478200  1
  C  518  1  0.79161400  0.66482500  0.71385900  1
  C  520  1  0.72728000  0.74637400  0.75701500  1
  C  521  1  0.72377800  0.73931700  0.78963000  1
  C  522  1  0.72895200  0.76988800  0.81063800  1
  C  523  1  0.73670600  0.80755500  0.80027500  1
  C  524  1  0.73623400  0.81339300  0.76730800  1
  C  525  1  0.73266000  0.78350900  0.74600500  1
  C  537  1  0.74301800  0.65421200  0.30159200  1
  C  538  1  0.79393600  0.67830900  0.30190400  1
  C  539  1  0.79971400  0.70848800  0.28085400  1
  C  540  1  0.75369400  0.71621400  0.25907100  1
  C  541  1  0.69999800  0.69491800  0.25973900  1
  C  542  1  0.69580100  0.66438700  0.28074000  1
  C  544  1  0.75994200  0.74616300  0.23756700  1
  C  545  1  0.76355200  0.73956500  0.20487300  1
  C  546  1  0.75907000  0.77045900  0.18411200  1
  C  547  1  0.75162100  0.80801000  0.19480600  1
  C  548  1  0.75165700  0.81338200  0.22782500  1
  C  549  1  0.75480800  0.78319900  0.24886300  1
  C  1121  1  0.24429900  0.54181700  0.17239900  1
  C  1122  1  0.30169700  0.51779600  0.18039400  1
  C  1123  1  0.18748000  0.51632700  0.17636400  1
  C  1124  1  0.18940500  0.47936400  0.15612100  1
  C  1127  1  0.24769700  0.45740600  0.16604100  1
  C  1128  1  0.30688200  0.48079000  0.16032700  1
  C  1133  1  0.30905600  0.49395400  0.12520400  1
  C  1134  1  0.25244300  0.51743700  0.11461400  1
  C  1137  1  0.19590500  0.49172600  0.12084500  1
  C  1140  1  0.24831000  0.55258100  0.13659500  1
  C  1143  1  0.24447700  0.54101300  0.82196400  1
  C  1144  1  0.18616900  0.51764500  0.81460300  1
  C  1145  1  0.30076300  0.51531600  0.81708200  1
  C  1146  1  0.29920000  0.47846600  0.83736700  1
  C  1149  1  0.23976000  0.45699900  0.82827000  1
  C  1150  1  0.18092200  0.48066900  0.83466000  1
  C  1155  1  0.17987700  0.49345700  0.86995400  1
  C  1156  1  0.23797800  0.51568800  0.87996000  1
  C  1159  1  0.29491900  0.49092100  0.87269000  1
  C  1162  1  0.24219700  0.55108100  0.85793500  1
  C  1165  1  0.74137900  0.26298900  0.82245400  1
  C  1166  1  0.79749600  0.28815700  0.81436600  1
  C  1167  1  0.68332000  0.28736600  0.81863700  1
  C  1168  1  0.68353000  0.32427100  0.83895900  1
  C  1171  1  0.74055600  0.34743000  0.82893600  1
  C  1172  1  0.80096800  0.32524100  0.83445600  1
  C  1177  1  0.80418900  0.31204000  0.86953600  1
  C  1178  1  0.74893600  0.28740900  0.88024900  1
  C  1181  1  0.69102800  0.31197200  0.87420100  1
  C  1184  1  0.74627300  0.25224300  0.85824000  1
  C  1187  1  0.74726400  0.26378500  0.17295700  1
  C  1188  1  0.69048900  0.28836200  0.18085700  1
  C  1189  1  0.80505200  0.28825300  0.17739300  1
  C  1190  1  0.80486400  0.32514800  0.15715200  1
  C  1193  1  0.74696100  0.34786900  0.16682500  1
  C  1194  1  0.68663400  0.32551400  0.16093500  1
  C  1199  1  0.68368400  0.31285300  0.12564100  1
  C  1200  1  0.74017400  0.28940400  0.11506800  1
  C  1203  1  0.79867900  0.31290900  0.12184800  1
  C  1206  1  0.74325500  0.25388100  0.13699600  1
  C  1209  1  0.74654300  0.04190520  0.67228600  1
  C  1210  1  0.80197800  0.01591220  0.67947100  1
  C  1211  1  0.68932200  0.01669720  0.67752500  1
  C  1212  1  0.68817700  0.98002400  0.65673800  1
  C  1215  1  0.74567400  0.95660300  0.66533300  1
  C  1216  1  0.80503900  0.97922400  0.65923800  1
  C  1221  1  0.80637500  0.99311300  0.62430100  1
  C  1222  1  0.75077800  0.01822520  0.61468900  1
  C  1225  1  0.69323000  0.99347600  0.62157600  1
  C  1228  1  0.74970500  0.05346320  0.63680500  1
  C  1231  1  0.74117600  0.04123520  0.32217200  1
  C  1232  1  0.68460600  0.01600820  0.31579800  1
  C  1233  1  0.79763600  0.01574320  0.31586200  1
  C  1234  1  0.79923800  0.97914300  0.33662700  1
  C  1237  1  0.74040300  0.95634600  0.32897500  1
  C  1238  1  0.68151100  0.97932600  0.33596300  1
  C  1243  1  0.68181200  0.99267400  0.37111100  1
  C  1244  1  0.73919800  0.01640420  0.38000400  1
  C  1247  1  0.79689400  0.99261200  0.37183800  1
  C  1250  1  0.74013800  0.05194920  0.35785900  1
  C  1253  1  0.24364100  0.76297100  0.32259900  1
  C  1254  1  0.29802100  0.78980800  0.31532200  1
  C  1255  1  0.18543200  0.78730100  0.31736500  1
  C  1256  1  0.18288700  0.82395800  0.33812600  1
  C  1259  1  0.23937200  0.84825900  0.32943000  1
  C  1260  1  0.29963200  0.82659400  0.33549900  1
  C  1265  1  0.30165500  0.81276800  0.37044500  1
  C  1266  1  0.24714100  0.78679500  0.38015200  1
  C  1269  1  0.18860400  0.81062600  0.37329500  1
  C  1272  1  0.24733000  0.75151100  0.35808400  1
  C  1275  1  0.24394400  0.76361300  0.67275000  1
  C  1276  1  0.18870400  0.78979400  0.67962800  1
  C  1277  1  0.30170500  0.78810600  0.67868100  1
  C  1278  1  0.30435900  0.82472900  0.65796900  1
  C  1281  1  0.24682200  0.84851800  0.66617700  1
  C  1282  1  0.18672500  0.82662500  0.65960600  1
  C  1287  1  0.18539100  0.81340100  0.62443000  1
  C  1288  1  0.24140200  0.78868800  0.61501000  1
  C  1291  1  0.30036200  0.81143400  0.62274900  1
  C  1294  1  0.24144200  0.75305600  0.63705800  1
  C  1297  1  0.25423900  0.52989700  0.08036100  1
  C  1298  1  0.30441000  0.52358900  0.06043700  1
  C  1299  1  0.30163000  0.53018600  0.02806100  1
  C  1300  1  0.24816200  0.54331100  0.01407800  1
  C  1301  1  0.19879700  0.55297300  0.03339900  1
  C  1302  1  0.20343400  0.54729500  0.06619700  1
  C  1304  1  0.24098700  0.53755100  0.98140800  1
  C  1305  1  0.23341700  0.50055800  0.96975000  1
  C  1306  1  0.23155900  0.49481200  0.93702500  1
  C  1307  1  0.23630500  0.52460900  0.91495300  1
  C  1308  1  0.24153100  0.56143500  0.92766600  1
  C  1309  1  0.24408300  0.56788800  0.96021300  1
  C  1321  1  0.75178300  0.27497800  0.91449100  1
  C  1322  1  0.80195800  0.28215000  0.93420400  1
  C  1323  1  0.79983000  0.27574600  0.96661300  1
  C  1324  1  0.74697000  0.26206300  0.98086100  1
  C  1325  1  0.69789800  0.25130600  0.96174000  1
  C  1326  1  0.70194800  0.25677900  0.92889200  1
  C  1328  1  0.74012400  0.26782600  0.01356800  1
  C  1329  1  0.73391700  0.30486700  0.02535800  1
  C  1330  1  0.73286600  0.31053100  0.05810000  1
  C  1331  1  0.73695600  0.28060500  0.08008400  1
  C  1332  1  0.74042600  0.24375200  0.06726300  1
  C  1333  1  0.74226600  0.23737900  0.03469300  1
  C  1345  1  0.75243600  0.03094320  0.58048600  1
  C  1346  1  0.80313600  0.02556320  0.56071500  1
  C  1347  1  0.80073400  0.03243920  0.52839300  1
  C  1348  1  0.74697900  0.04473820  0.51421400  1
  C  1349  1  0.69710100  0.05376420  0.53341300  1
  C  1350  1  0.70146000  0.04802720  0.56624400  1
  C  1352  1  0.74068400  0.03872220  0.48150300  1
  C  1353  1  0.73660900  0.00148315  0.46988500  1
  C  1354  1  0.73613900  0.99556900  0.43717700  1
  C  1355  1  0.73842800  0.02538620  0.41500900  1
  C  1356  1  0.74057400  0.06236620  0.42765100  1
  C  1357  1  0.74201800  0.06901420  0.46020300  1
  C  1369  1  0.24954700  0.77416700  0.41436600  1
  C  1370  1  0.30043800  0.78001100  0.43391000  1
  C  1371  1  0.29865600  0.77326700  0.46625300  1
  C  1372  1  0.24530600  0.76073200  0.48070300  1
  C  1373  1  0.19540100  0.75110000  0.46172900  1
  C  1374  1  0.19918800  0.75666900  0.42885400  1
  C  1376  1  0.23955200  0.76671100  0.51345700  1
  C  1377  1  0.23670600  0.80394400  0.52519400  1
  C  1378  1  0.23728200  0.80974900  0.55791500  1
  C  1379  1  0.23923800  0.77983600  0.57999800  1
  C  1380  1  0.23990700  0.74288400  0.56725700  1
  C  1381  1  0.24044000  0.73633700  0.53468400  1
  C  1393  1  0.13363900  0.45489500  0.16012200  1
  C  1394  1  0.08449000  0.46473600  0.17982200  1
  C  1395  1  0.03190000  0.44311000  0.18118500  1
  C  1396  1  0.02649700  0.41035200  0.16293500  1
  C  1397  1  0.07477300  0.39874000  0.14363100  1
  C  1398  1  0.12747100  0.42101300  0.14272700  1
  C  1400  1  0.97097000  0.39120200  0.16284700  1
  C  1401  1  0.92231500  0.40399900  0.14434900  1
  C  1402  1  0.86856800  0.38277200  0.14399900  1
  C  1403  1  0.86159400  0.34875000  0.16112100  1
  C  1404  1  0.91114200  0.33773400  0.18010400  1
  C  1405  1  0.96484400  0.35836900  0.18095400  1
  C  1417  1  0.35445100  0.45363600  0.83295300  1
  C  1418  1  0.40414800  0.46372900  0.81373100  1
  C  1419  1  0.45710700  0.44236800  0.81294500  1
  C  1420  1  0.46218500  0.40961200  0.83123700  1
  C  1421  1  0.41308100  0.39749400  0.84972000  1
  C  1422  1  0.36012000  0.41949100  0.85005600  1
  C  1424  1  0.51774800  0.39053500  0.83195400  1
  C  1425  1  0.56520700  0.40270700  0.85157300  1
  C  1426  1  0.61870600  0.38123100  0.85263800  1
  C  1427  1  0.62649200  0.34759000  0.83510800  1
  C  1428  1  0.57787600  0.33697700  0.81531800  1
  C  1429  1  0.52453400  0.35786300  0.81373500  1
  C  1441  1  0.85492200  0.35029100  0.82718700  1
  C  1442  1  0.90043600  0.34081500  0.80517400  1
  C  1443  1  0.95242000  0.36285400  0.80143300  1
  C  1444  1  0.96044000  0.39585000  0.81923200  1
  C  1445  1  0.91531800  0.40704000  0.84068000  1
  C  1446  1  0.86350400  0.38436800  0.84405900  1
  C  1448  1  0.01733900  0.41365800  0.81961900  1
  C  1449  1  0.06241300  0.40115700  0.84058400  1
  C  1450  1  0.11524600  0.42284800  0.84405200  1
  C  1451  1  0.12503900  0.45716300  0.82771000  1
  C  1452  1  0.07913700  0.46819100  0.80640900  1
  C  1453  1  0.02616400  0.44711100  0.80254000  1
  C  1465  1  0.63226800  0.35016800  0.16839300  1
  C  1466  1  0.58612700  0.33980500  0.18978100  1
  C  1467  1  0.53382900  0.36153500  0.19360000  1
  C  1468  1  0.52607000  0.39509900  0.17652900  1
  C  1469  1  0.57173800  0.40714700  0.15572900  1
  C  1470  1  0.62383600  0.38476200  0.15224400  1
  C  1472  1  0.46908500  0.41279700  0.17608800  1
  C  1473  1  0.42479400  0.40098200  0.15440200  1
  C  1474  1  0.37228300  0.42293400  0.15072300  1
  C  1475  1  0.36212700  0.45685800  0.16755800  1
  C  1476  1  0.40710300  0.46713300  0.18963300  1
  C  1477  1  0.45974200  0.44578700  0.19371300  1
  C  1489  1  0.63208800  0.95588800  0.66127300  1
  C  1490  1  0.58531200  0.96478200  0.68275400  1
  C  1491  1  0.53301000  0.94284400  0.68521600  1
  C  1492  1  0.52565000  0.91058800  0.66646500  1
  C  1493  1  0.57158500  0.90014100  0.64522800  1
  C  1494  1  0.62387600  0.92268700  0.64319300  1
  C  1496  1  0.46962000  0.89174700  0.66653800  1
  C  1497  1  0.42284100  0.90340200  0.64628100  1
  C  1498  1  0.36953600  0.88179500  0.64489500  1
  C  1499  1  0.36100200  0.84833800  0.66262600  1
  C  1500  1  0.40851600  0.83835200  0.68331000  1
  C  1501  1  0.46189500  0.85941000  0.68517200  1
  C  1513  1  0.85471000  0.95457700  0.33157100  1
  C  1514  1  0.90222700  0.96389300  0.31067200  1
  C  1515  1  0.95504000  0.94230600  0.30880500  1
  C  1516  1  0.96206400  0.90999100  0.32754000  1
  C  1517  1  0.91505000  0.89883800  0.34784400  1
  C  1518  1  0.86234400  0.92101500  0.34927600  1
  C  1520  1  0.01816600  0.89126100  0.32815200  1
  C  1521  1  0.06354100  0.90220900  0.34954100  1
  C  1522  1  0.11644800  0.88027000  0.35172000  1
  C  1523  1  0.12585800  0.84721300  0.33362100  1
  C  1524  1  0.07947000  0.83770200  0.31209300  1
  C  1525  1  0.02657800  0.85906100  0.30945700  1
  C  1537  1  0.35354500  0.85170000  0.32871000  1
  C  1538  1  0.39860300  0.84281500  0.30624400  1
  C  1539  1  0.45135400  0.86414200  0.30338600  1
  C  1540  1  0.46044400  0.89572600  0.32265300  1
  C  1541  1  0.41543800  0.90687700  0.34416400  1
  C  1542  1  0.36262300  0.88496900  0.34654900  1
  C  1544  1  0.51741800  0.91303300  0.32298800  1
  C  1545  1  0.56245800  0.90069200  0.34402300  1
  C  1546  1  0.61594400  0.92191300  0.34664800  1
  C  1547  1  0.62581400  0.95560600  0.32948900  1
  C  1548  1  0.58022100  0.96597200  0.30774500  1
  C  1549  1  0.52686000  0.94530800  0.30460100  1
  C  1561  1  0.13229400  0.85129200  0.66652400  1
  C  1562  1  0.08657700  0.84148100  0.68836800  1
  C  1563  1  0.03369000  0.86262600  0.69143300  1
  C  1564  1  0.02503500  0.89496100  0.67300300  1
  C  1565  1  0.07054200  0.90696100  0.65210600  1
  C  1566  1  0.12347900  0.88520300  0.64950100  1
  C  1568  1  0.96796500  0.91213800  0.67266600  1
  C  1569  1  0.92375000  0.90056000  0.65086400  1
  C  1570  1  0.87039000  0.92189000  0.64818800  1
  C  1571  1  0.85996000  0.95499000  0.66603400  1
  C  1572  1  0.90448500  0.96445800  0.68863300  1
  C  1573  1  0.95770800  0.94366000  0.69183700  1
  C  1585  1  0.24281400  0.72805900  0.30194600  1
  C  1586  1  0.19266200  0.70334400  0.30226300  1
  C  1587  1  0.18785400  0.67316100  0.28118500  1
  C  1588  1  0.23436200  0.66594400  0.25958200  1
  C  1589  1  0.28762700  0.68764300  0.26048100  1
  C  1590  1  0.29068700  0.71829900  0.28138700  1
  C  1592  1  0.22877600  0.63627100  0.23784100  1
  C  1593  1  0.22561000  0.64337100  0.20522000  1
  C  1594  1  0.23082100  0.61281000  0.18420000  1
  C  1595  1  0.23854100  0.57514200  0.19456200  1
  C  1596  1  0.23792000  0.56926900  0.22751900  1
  C  1597  1  0.23401700  0.59911800  0.24883500  1
  C  1609  1  0.24468100  0.72843100  0.69317300  1
  C  1610  1  0.29474700  0.70364800  0.69268800  1
  C  1611  1  0.29962900  0.67331500  0.71364600  1
  C  1612  1  0.25339800  0.66604200  0.73541300  1
  C  1613  1  0.20031300  0.68792900  0.73478400  1
  C  1614  1  0.19711000  0.71866700  0.71394300  1
  C  1616  1  0.25897900  0.63612200  0.75699200  1
  C  1617  1  0.26315100  0.64284300  0.78965200  1
  C  1618  1  0.25832400  0.61208300  0.81053400  1
  C  1619  1  0.24977300  0.57456800  0.79999100  1
  C  1620  1  0.24900700  0.56905100  0.76698900  1
  C  1621  1  0.25272400  0.59909300  0.74583400  1
  C  1633  1  0.74440200  0.07672720  0.69302100  1
  C  1634  1  0.69357000  0.10089000  0.69254700  1
  C  1635  1  0.68772200  0.13106100  0.71357500  1
  C  1636  1  0.73371200  0.13872300  0.73537000  1
  C  1637  1  0.78743200  0.11745200  0.73478200  1
  C  1638  1  0.79161400  0.08687520  0.71385900  1
  C  1640  1  0.72728000  0.16842400  0.75701500  1
  C  1641  1  0.72377800  0.16136700  0.78963000  1
  C  1642  1  0.72895200  0.19193800  0.81063800  1
  C  1643  1  0.73670600  0.22960500  0.80027500  1
  C  1644  1  0.73623400  0.23544300  0.76730800  1
  C  1645  1  0.73266000  0.20555900  0.74600500  1
  C  1657  1  0.74301800  0.07626220  0.30159200  1
  C  1658  1  0.79393600  0.10035900  0.30190400  1
  C  1659  1  0.79971400  0.13053800  0.28085400  1
  C  1660  1  0.75369400  0.13826400  0.25907100  1
  C  1661  1  0.69999800  0.11696800  0.25973900  1
  C  1662  1  0.69580100  0.08643720  0.28074000  1
  C  1664  1  0.75994200  0.16821300  0.23756700  1
  C  1665  1  0.76355200  0.16161500  0.20487300  1
  C  1666  1  0.75907000  0.19250900  0.18411200  1
  C  1667  1  0.75162100  0.23006000  0.19480600  1
  C  1668  1  0.75165700  0.23543200  0.22782500  1
  C  1669  1  0.75480800  0.20524900  0.24886300  1
  H  5  1  0.14773200  0.11090500  0.17010800  1
  H  6  1  0.18280300  0.08617500  0.20098800  1
  H  9  1  0.24470800  0.02749600  0.19083100  1
  H  10  1  0.24978600  0.00911300  0.15287200  1
  H  11  1  0.30133300  0.08740100  0.20502600  1
  H  12  1  0.34148300  0.11343100  0.17689100  1
  H  15  1  0.31272500  0.04748000  0.10973900  1
  H  16  1  0.34993300  0.08868500  0.12201200  1
  H  18  1  0.19930100  0.04510400  0.10550900  1
  H  19  1  0.15437900  0.08415100  0.11434000  1
  H  21  1  0.28752300  0.14857700  0.13262300  1
  H  22  1  0.20838700  0.14673400  0.13011300  1
  H  27  1  0.34095000  0.10973400  0.82284400  1
  H  28  1  0.30427300  0.08511800  0.79241200  1
  H  31  1  0.24148800  0.02698200  0.80347100  1
  H  32  1  0.23777100  0.00876300  0.84148900  1
  H  33  1  0.18528100  0.08737200  0.78994200  1
  H  34  1  0.14701200  0.11366100  0.81864800  1
  H  37  1  0.17490800  0.04660800  0.88471800  1
  H  38  1  0.14013000  0.08888900  0.87427100  1
  H  40  1  0.29397500  0.04387000  0.88750200  1
  H  41  1  0.33564400  0.08442800  0.87914900  1
  H  43  1  0.20356500  0.14742800  0.86228500  1
  H  44  1  0.28293200  0.14466300  0.86412100  1
  H  49  1  0.64443400  0.84792500  0.82492800  1
  H  50  1  0.67814200  0.87336600  0.79402000  1
  H  53  1  0.73694400  0.93324100  0.80417000  1
  H  54  1  0.74138800  0.95161700  0.84215300  1
  H  55  1  0.79657400  0.87451700  0.78976200  1
  H  56  1  0.83816200  0.84919400  0.81776200  1
  H  59  1  0.80678800  0.91443500  0.88504200  1
  H  60  1  0.84593700  0.87402500  0.87256100  1
  H  62  1  0.69331200  0.91450500  0.88957500  1
  H  63  1  0.65033100  0.87460200  0.88078300  1
  H  65  1  0.78631400  0.81282700  0.86206500  1
  H  66  1  0.70716600  0.81332500  0.86487700  1
  H  71  1  0.84416200  0.84892400  0.17127800  1
  H  72  1  0.80971000  0.87419400  0.20205100  1
  H  75  1  0.74994800  0.93367200  0.19161600  1
  H  76  1  0.74601200  0.95207000  0.15366500  1
  H  77  1  0.69075400  0.87448900  0.20552900  1
  H  78  1  0.65028200  0.84907900  0.17710100  1
  H  81  1  0.67957400  0.91575700  0.11098600  1
  H  82  1  0.64286200  0.87420200  0.12165800  1
  H  84  1  0.79857100  0.91589800  0.10707300  1
  H  85  1  0.83830600  0.87446400  0.11498800  1
  H  87  1  0.70358700  0.81420900  0.13296200  1
  H  88  1  0.78298100  0.81544700  0.13040500  1
  H  93  1  0.64888800  0.61085600  0.67210800  1
  H  94  1  0.68701200  0.58701900  0.70238900  1
  H  97  1  0.74363200  0.52602700  0.68999800  1
  H  98  1  0.74642200  0.50871500  0.65153900  1
  H  99  1  0.80087800  0.58604300  0.70432600  1
  H  100  1  0.84323600  0.60988000  0.67513500  1
  H  103  1  0.80804000  0.54694400  0.60840800  1
  H  104  1  0.84813800  0.58692300  0.62102300  1
  H  106  1  0.69420000  0.54732400  0.60565500  1
  H  107  1  0.65216200  0.58699900  0.61615700  1
  H  109  1  0.78998600  0.64847800  0.63273600  1
  H  110  1  0.71101400  0.64905500  0.63093500  1
  H  115  1  0.83854600  0.60971700  0.32065300  1
  H  116  1  0.79849200  0.58602600  0.29098000  1
  H  119  1  0.74090700  0.52572600  0.30430000  1
  H  120  1  0.73980800  0.50846400  0.34274500  1
  H  121  1  0.68415200  0.58615800  0.29093100  1
  H  122  1  0.64416000  0.61052700  0.32076500  1
  H  125  1  0.67903500  0.54586900  0.38608000  1
  H  126  1  0.64134800  0.58725300  0.37592800  1
  H  128  1  0.79856800  0.54602100  0.38713000  1
  H  129  1  0.83717700  0.58714600  0.37714300  1
  H  131  1  0.70057200  0.64740900  0.36245800  1
  H  132  1  0.77980400  0.64689400  0.36331900  1
  H  137  1  0.14561800  0.34847600  0.32282600  1
  H  138  1  0.18277900  0.37280000  0.29249300  1
  H  141  1  0.23690900  0.43464200  0.30475100  1
  H  142  1  0.23911300  0.45208400  0.34317900  1
  H  143  1  0.29662300  0.37545300  0.29044600  1
  H  144  1  0.33991200  0.35242100  0.31969600  1
  H  147  1  0.30245200  0.41485300  0.38633800  1
  H  148  1  0.34406800  0.37552400  0.37364400  1
  H  150  1  0.18866900  0.41269800  0.38920600  1
  H  151  1  0.14818100  0.37237800  0.37875200  1
  H  153  1  0.28826600  0.31301200  0.36214100  1
  H  154  1  0.20932600  0.31126500  0.36401300  1
  H  159  1  0.34179100  0.34939000  0.67355000  1
  H  160  1  0.30357800  0.37361300  0.70356900  1
  H  163  1  0.24844200  0.43490600  0.69087300  1
  H  164  1  0.24699600  0.45236500  0.65249300  1
  H  165  1  0.18918900  0.37536900  0.70453000  1
  H  166  1  0.14740300  0.35194800  0.67484400  1
  H  169  1  0.18327900  0.41621000  0.60956200  1
  H  170  1  0.14405200  0.37546500  0.61989000  1
  H  172  1  0.30263300  0.41392200  0.60747300  1
  H  173  1  0.33973300  0.37212800  0.61708500  1
  H  175  1  0.20101300  0.31418600  0.63270800  1
  H  176  1  0.28021900  0.31336700  0.63128700  1
  H  183  1  0.16660400  0.13161700  0.07947300  1
  H  190  1  0.22792200  0.04559500  0.92951100  1
  H  191  1  0.24517100  0.16236400  0.91347600  1
  H  192  1  0.34315100  0.08973400  0.06855500  1
  H  193  1  0.24979500  0.17273900  0.96829600  1
  H  194  1  0.33732100  0.10003000  0.01441500  1
  H  207  1  0.66527800  0.82761900  0.91575700  1
  H  214  1  0.73050000  0.91567300  0.06568600  1
  H  215  1  0.74348000  0.79862700  0.08138100  1
  H  216  1  0.84014600  0.87242400  0.92590700  1
  H  217  1  0.74695400  0.78838200  0.02653800  1
  H  218  1  0.83541000  0.86239300  0.98008500  1
  H  231  1  0.66443200  0.63204900  0.57946300  1
  H  238  1  0.73476200  0.54623500  0.42976100  1
  H  239  1  0.74236400  0.66332300  0.41339800  1
  H  240  1  0.84224000  0.59224100  0.56885000  1
  H  241  1  0.74536900  0.67404300  0.46823000  1
  H  242  1  0.83696600  0.60288300  0.51489000  1
  H  255  1  0.16215600  0.32809900  0.41579400  1
  H  262  1  0.23702600  0.41497100  0.56539300  1
  H  263  1  0.24139800  0.29776000  0.58144500  1
  H  264  1  0.33922300  0.36945800  0.42558700  1
  H  265  1  0.24292500  0.28720300  0.52658200  1
  H  266  1  0.33498600  0.35900800  0.47957100  1
  H  279  1  0.16124400  0.99039800  0.12815100  1
  H  286  1  0.83459000  0.97019000  0.12995500  1
  H  287  1  0.91017500  0.89181300  0.19332200  1
  H  288  1  0.08475600  0.06644500  0.19317600  1
  H  289  1  0.99980300  0.92677800  0.19445500  1
  H  290  1  0.99704800  0.02993700  0.19507900  1
  H  303  1  0.32595100  0.98860900  0.86425700  1
  H  310  1  0.65200900  0.96826600  0.86729000  1
  H  311  1  0.57931200  0.89127800  0.80184800  1
  H  312  1  0.40411500  0.06557000  0.80053300  1
  H  313  1  0.49031800  0.92658400  0.79957600  1
  H  314  1  0.49247900  0.02943500  0.79952900  1
  H  327  1  0.83274200  0.97052200  0.86046600  1
  H  334  1  0.14612900  0.99149600  0.85997800  1
  H  335  1  0.08213100  0.07053900  0.79394300  1
  H  336  1  0.89823200  0.89463500  0.79230600  1
  H  337  1  0.99317600  0.03502300  0.78796100  1
  H  338  1  0.98554300  0.93171900  0.78654000  1
  H  351  1  0.65493200  0.97156300  0.13625300  1
  H  358  1  0.34198900  0.99213700  0.13427400  1
  H  359  1  0.40373000  0.06915100  0.20251400  1
  H  360  1  0.58809700  0.89319700  0.20208000  1
  H  361  1  0.49221200  0.03323900  0.20881300  1
  H  362  1  0.50033000  0.92978900  0.20798900  1
  H  375  1  0.65595400  0.49264900  0.62740100  1
  H  382  1  0.33702500  0.46858000  0.62967800  1
  H  383  1  0.40610500  0.39288400  0.69705200  1
  H  384  1  0.58739100  0.56595900  0.69672100  1
  H  385  1  0.49567200  0.42836700  0.69970000  1
  H  386  1  0.49964400  0.52911900  0.70027600  1
  H  399  1  0.82978200  0.49060300  0.36465100  1
  H  406  1  0.14819000  0.46663600  0.36754000  1
  H  407  1  0.08244600  0.39249000  0.29809300  1
  H  408  1  0.90048400  0.56530300  0.29695800  1
  H  409  1  0.99367000  0.42837900  0.29424700  1
  H  410  1  0.98906500  0.52895000  0.29430800  1
  H  423  1  0.33161800  0.47087900  0.36292500  1
  H  430  1  0.64715600  0.49083700  0.36252400  1
  H  431  1  0.58355000  0.56756000  0.29434100  1
  H  432  1  0.39564300  0.39753200  0.29232900  1
  H  433  1  0.49410200  0.53277400  0.28966200  1
  H  434  1  0.48410400  0.43343800  0.28808400  1
  H  447  1  0.15485100  0.47180800  0.63357100  1
  H  454  1  0.83984200  0.49148400  0.63171600  1
  H  455  1  0.90054400  0.56554500  0.70259300  1
  H  456  1  0.08915400  0.39566700  0.70166700  1
  H  457  1  0.98986100  0.53056300  0.70735900  1
  H  458  1  0.00054800  0.43127700  0.70623800  1
  H  471  1  0.32941800  0.31147900  0.28080000  1
  H  478  1  0.22922500  0.19700000  0.16090600  1
  H  479  1  0.24149200  0.12084400  0.23680200  1
  H  480  1  0.15761300  0.28557600  0.31731800  1
  H  481  1  0.23694000  0.17149600  0.27236800  1
  H  482  1  0.14976300  0.23489500  0.28137500  1
  H  495  1  0.15850400  0.31195700  0.71477800  1
  H  502  1  0.26086000  0.19595600  0.83387200  1
  H  503  1  0.24463600  0.12073500  0.75758000  1
  H  504  1  0.32971900  0.28597600  0.67759500  1
  H  505  1  0.24896300  0.17170700  0.72229700  1
  H  506  1  0.33763700  0.23497900  0.71326800  1
  H  519  1  0.83067800  0.64995000  0.71465600  1
  H  526  1  0.72708000  0.76365300  0.83392200  1
  H  527  1  0.73948800  0.83976800  0.75800700  1
  H  528  1  0.65884200  0.67417500  0.67736500  1
  H  529  1  0.73578400  0.78905500  0.72247500  1
  H  530  1  0.64927000  0.72488600  0.71320700  1
  H  543  1  0.65673400  0.64950500  0.27996600  1
  H  550  1  0.76118000  0.76461800  0.16075100  1
  H  551  1  0.74838200  0.83965000  0.23734400  1
  H  552  1  0.82882000  0.67354200  0.31697300  1
  H  553  1  0.75157600  0.78846700  0.27243300  1
  H  554  1  0.83819400  0.72433500  0.28118500  1
  H  1125  1  0.14773200  0.53295500  0.17010800  1
  H  1126  1  0.18280300  0.50822500  0.20098800  1
  H  1129  1  0.24470800  0.44954600  0.19083100  1
  H  1130  1  0.24978600  0.43116300  0.15287200  1
  H  1131  1  0.30133300  0.50945100  0.20502600  1
  H  1132  1  0.34148300  0.53548100  0.17689100  1
  H  1135  1  0.31272500  0.46953000  0.10973900  1
  H  1136  1  0.34993300  0.51073500  0.12201200  1
  H  1138  1  0.19930100  0.46715400  0.10550900  1
  H  1139  1  0.15437900  0.50620100  0.11434000  1
  H  1141  1  0.28752300  0.57062700  0.13262300  1
  H  1142  1  0.20838700  0.56878400  0.13011300  1
  H  1147  1  0.34095000  0.53178400  0.82284400  1
  H  1148  1  0.30427300  0.50716800  0.79241200  1
  H  1151  1  0.24148800  0.44903200  0.80347100  1
  H  1152  1  0.23777100  0.43081300  0.84148900  1
  H  1153  1  0.18528100  0.50942200  0.78994200  1
  H  1154  1  0.14701200  0.53571100  0.81864800  1
  H  1157  1  0.17490800  0.46865800  0.88471800  1
  H  1158  1  0.14013000  0.51093900  0.87427100  1
  H  1160  1  0.29397500  0.46592000  0.88750200  1
  H  1161  1  0.33564400  0.50647800  0.87914900  1
  H  1163  1  0.20356500  0.56947800  0.86228500  1
  H  1164  1  0.28293200  0.56671300  0.86412100  1
  H  1169  1  0.64443400  0.26997500  0.82492800  1
  H  1170  1  0.67814200  0.29541600  0.79402000  1
  H  1173  1  0.73694400  0.35529100  0.80417000  1
  H  1174  1  0.74138800  0.37366700  0.84215300  1
  H  1175  1  0.79657400  0.29656700  0.78976200  1
  H  1176  1  0.83816200  0.27124400  0.81776200  1
  H  1179  1  0.80678800  0.33648500  0.88504200  1
  H  1180  1  0.84593700  0.29607500  0.87256100  1
  H  1182  1  0.69331200  0.33655500  0.88957500  1
  H  1183  1  0.65033100  0.29665200  0.88078300  1
  H  1185  1  0.78631400  0.23487700  0.86206500  1
  H  1186  1  0.70716600  0.23537500  0.86487700  1
  H  1191  1  0.84416200  0.27097400  0.17127800  1
  H  1192  1  0.80971000  0.29624400  0.20205100  1
  H  1195  1  0.74994800  0.35572200  0.19161600  1
  H  1196  1  0.74601200  0.37412000  0.15366500  1
  H  1197  1  0.69075400  0.29653900  0.20552900  1
  H  1198  1  0.65028200  0.27112900  0.17710100  1
  H  1201  1  0.67957400  0.33780700  0.11098600  1
  H  1202  1  0.64286200  0.29625200  0.12165800  1
  H  1204  1  0.79857100  0.33794800  0.10707300  1
  H  1205  1  0.83830600  0.29651400  0.11498800  1
  H  1207  1  0.70358700  0.23625900  0.13296200  1
  H  1208  1  0.78298100  0.23749700  0.13040500  1
  H  1213  1  0.64888800  0.03290620  0.67210800  1
  H  1214  1  0.68701200  0.00906915  0.70238900  1
  H  1217  1  0.74363200  0.94807700  0.68999800  1
  H  1218  1  0.74642200  0.93076500  0.65153900  1
  H  1219  1  0.80087800  0.00809315  0.70432600  1
  H  1220  1  0.84323600  0.03193020  0.67513500  1
  H  1223  1  0.80804000  0.96899400  0.60840800  1
  H  1224  1  0.84813800  0.00897315  0.62102300  1
  H  1226  1  0.69420000  0.96937400  0.60565500  1
  H  1227  1  0.65216200  0.00904915  0.61615700  1
  H  1229  1  0.78998600  0.07052820  0.63273600  1
  H  1230  1  0.71101400  0.07110520  0.63093500  1
  H  1235  1  0.83854600  0.03176720  0.32065300  1
  H  1236  1  0.79849200  0.00807615  0.29098000  1
  H  1239  1  0.74090700  0.94777600  0.30430000  1
  H  1240  1  0.73980800  0.93051400  0.34274500  1
  H  1241  1  0.68415200  0.00820815  0.29093100  1
  H  1242  1  0.64416000  0.03257720  0.32076500  1
  H  1245  1  0.67903500  0.96791900  0.38608000  1
  H  1246  1  0.64134800  0.00930315  0.37592800  1
  H  1248  1  0.79856800  0.96807100  0.38713000  1
  H  1249  1  0.83717700  0.00919615  0.37714300  1
  H  1251  1  0.70057200  0.06945920  0.36245800  1
  H  1252  1  0.77980400  0.06894420  0.36331900  1
  H  1257  1  0.14561800  0.77052600  0.32282600  1
  H  1258  1  0.18277900  0.79485000  0.29249300  1
  H  1261  1  0.23690900  0.85669200  0.30475100  1
  H  1262  1  0.23911300  0.87413400  0.34317900  1
  H  1263  1  0.29662300  0.79750300  0.29044600  1
  H  1264  1  0.33991200  0.77447100  0.31969600  1
  H  1267  1  0.30245200  0.83690300  0.38633800  1
  H  1268  1  0.34406800  0.79757400  0.37364400  1
  H  1270  1  0.18866900  0.83474800  0.38920600  1
  H  1271  1  0.14818100  0.79442800  0.37875200  1
  H  1273  1  0.28826600  0.73506200  0.36214100  1
  H  1274  1  0.20932600  0.73331500  0.36401300  1
  H  1279  1  0.34179100  0.77144000  0.67355000  1
  H  1280  1  0.30357800  0.79566300  0.70356900  1
  H  1283  1  0.24844200  0.85695600  0.69087300  1
  H  1284  1  0.24699600  0.87441500  0.65249300  1
  H  1285  1  0.18918900  0.79741900  0.70453000  1
  H  1286  1  0.14740300  0.77399800  0.67484400  1
  H  1289  1  0.18327900  0.83826000  0.60956200  1
  H  1290  1  0.14405200  0.79751500  0.61989000  1
  H  1292  1  0.30263300  0.83597200  0.60747300  1
  H  1293  1  0.33973300  0.79417800  0.61708500  1
  H  1295  1  0.20101300  0.73623600  0.63270800  1
  H  1296  1  0.28021900  0.73541700  0.63128700  1
  H  1303  1  0.16660400  0.55366700  0.07947300  1
  H  1310  1  0.22792200  0.46764500  0.92951100  1
  H  1311  1  0.24517100  0.58441400  0.91347600  1
  H  1312  1  0.34315100  0.51178400  0.06855500  1
  H  1313  1  0.24979500  0.59478900  0.96829600  1
  H  1314  1  0.33732100  0.52208000  0.01441500  1
  H  1327  1  0.66527800  0.24966900  0.91575700  1
  H  1334  1  0.73050000  0.33772300  0.06568600  1
  H  1335  1  0.74348000  0.22067700  0.08138100  1
  H  1336  1  0.84014600  0.29447400  0.92590700  1
  H  1337  1  0.74695400  0.21043200  0.02653800  1
  H  1338  1  0.83541000  0.28444300  0.98008500  1
  H  1351  1  0.66443200  0.05409920  0.57946300  1
  H  1358  1  0.73476200  0.96828500  0.42976100  1
  H  1359  1  0.74236400  0.08537320  0.41339800  1
  H  1360  1  0.84224000  0.01429120  0.56885000  1
  H  1361  1  0.74536900  0.09609320  0.46823000  1
  H  1362  1  0.83696600  0.02493320  0.51489000  1
  H  1375  1  0.16215600  0.75014900  0.41579400  1
  H  1382  1  0.23702600  0.83702100  0.56539300  1
  H  1383  1  0.24139800  0.71981000  0.58144500  1
  H  1384  1  0.33922300  0.79150800  0.42558700  1
  H  1385  1  0.24292500  0.70925300  0.52658200  1
  H  1386  1  0.33498600  0.78105800  0.47957100  1
  H  1399  1  0.16124400  0.41244800  0.12815100  1
  H  1406  1  0.83459000  0.39224000  0.12995500  1
  H  1407  1  0.91017500  0.31386300  0.19332200  1
  H  1408  1  0.08475600  0.48849500  0.19317600  1
  H  1409  1  0.99980300  0.34882800  0.19445500  1
  H  1410  1  0.99704800  0.45198700  0.19507900  1
  H  1423  1  0.32595100  0.41065900  0.86425700  1
  H  1430  1  0.65200900  0.39031600  0.86729000  1
  H  1431  1  0.57931200  0.31332800  0.80184800  1
  H  1432  1  0.40411500  0.48762000  0.80053300  1
  H  1433  1  0.49031800  0.34863400  0.79957600  1
  H  1434  1  0.49247900  0.45148500  0.79952900  1
  H  1447  1  0.83274200  0.39257200  0.86046600  1
  H  1454  1  0.14612900  0.41354600  0.85997800  1
  H  1455  1  0.08213100  0.49258900  0.79394300  1
  H  1456  1  0.89823200  0.31668500  0.79230600  1
  H  1457  1  0.99317600  0.45707300  0.78796100  1
  H  1458  1  0.98554300  0.35376900  0.78654000  1
  H  1471  1  0.65493200  0.39361300  0.13625300  1
  H  1478  1  0.34198900  0.41418700  0.13427400  1
  H  1479  1  0.40373000  0.49120100  0.20251400  1
  H  1480  1  0.58809700  0.31524700  0.20208000  1
  H  1481  1  0.49221200  0.45528900  0.20881300  1
  H  1482  1  0.50033000  0.35183900  0.20798900  1
  H  1495  1  0.65595400  0.91469900  0.62740100  1
  H  1502  1  0.33702500  0.89063000  0.62967800  1
  H  1503  1  0.40610500  0.81493400  0.69705200  1
  H  1504  1  0.58739100  0.98800900  0.69672100  1
  H  1505  1  0.49567200  0.85041700  0.69970000  1
  H  1506  1  0.49964400  0.95116900  0.70027600  1
  H  1519  1  0.82978200  0.91265300  0.36465100  1
  H  1526  1  0.14819000  0.88868600  0.36754000  1
  H  1527  1  0.08244600  0.81454000  0.29809300  1
  H  1528  1  0.90048400  0.98735300  0.29695800  1
  H  1529  1  0.99367000  0.85042900  0.29424700  1
  H  1530  1  0.98906500  0.95100000  0.29430800  1
  H  1543  1  0.33161800  0.89292900  0.36292500  1
  H  1550  1  0.64715600  0.91288700  0.36252400  1
  H  1551  1  0.58355000  0.98961000  0.29434100  1
  H  1552  1  0.39564300  0.81958200  0.29232900  1
  H  1553  1  0.49410200  0.95482400  0.28966200  1
  H  1554  1  0.48410400  0.85548800  0.28808400  1
  H  1567  1  0.15485100  0.89385800  0.63357100  1
  H  1574  1  0.83984200  0.91353400  0.63171600  1
  H  1575  1  0.90054400  0.98759500  0.70259300  1
  H  1576  1  0.08915400  0.81771700  0.70166700  1
  H  1577  1  0.98986100  0.95261300  0.70735900  1
  H  1578  1  0.00054800  0.85332700  0.70623800  1
  H  1591  1  0.32941800  0.73352900  0.28080000  1
  H  1598  1  0.22922500  0.61905000  0.16090600  1
  H  1599  1  0.24149200  0.54289400  0.23680200  1
  H  1600  1  0.15761300  0.70762600  0.31731800  1
  H  1601  1  0.23694000  0.59354600  0.27236800  1
  H  1602  1  0.14976300  0.65694500  0.28137500  1
  H  1615  1  0.15850400  0.73400700  0.71477800  1
  H  1622  1  0.26086000  0.61800600  0.83387200  1
  H  1623  1  0.24463600  0.54278500  0.75758000  1
  H  1624  1  0.32971900  0.70802600  0.67759500  1
  H  1625  1  0.24896300  0.59375700  0.72229700  1
  H  1626  1  0.33763700  0.65702900  0.71326800  1
  H  1639  1  0.83067800  0.07200020  0.71465600  1
  H  1646  1  0.72708000  0.18570300  0.83392200  1
  H  1647  1  0.73948800  0.26181800  0.75800700  1
  H  1648  1  0.65884200  0.09622520  0.67736500  1
  H  1649  1  0.73578400  0.21110500  0.72247500  1
  H  1650  1  0.64927000  0.14693600  0.71320700  1
  H  1663  1  0.65673400  0.07155520  0.27996600  1
  H  1670  1  0.76118000  0.18666800  0.16075100  1
  H  1671  1  0.74838200  0.26170000  0.23734400  1
  H  1672  1  0.82882000  0.09559220  0.31697300  1
  H  1673  1  0.75157600  0.21051700  0.27243300  1
  H  1674  1  0.83819400  0.14638500  0.28118500  1
  N  195  1  0.14480200  0.14368300  0.01935500  1
  N  196  1  0.22842400  0.04788200  0.99092400  1
  N  219  1  0.64465400  0.81563800  0.97599800  1
  N  220  1  0.72944200  0.91359600  0.00430100  1
  N  243  1  0.64300400  0.64398700  0.51919500  1
  N  244  1  0.73332400  0.54872500  0.49108000  1
  N  267  1  0.14180700  0.31633800  0.47618900  1
  N  268  1  0.23357100  0.41272600  0.50411400  1
  N  291  1  0.06862000  0.94387100  0.12506100  1
  N  292  1  0.92898100  0.01492000  0.12599700  1
  N  315  1  0.41868500  0.94248400  0.86817600  1
  N  316  1  0.55758500  0.01332100  0.87019100  1
  N  339  1  0.92406900  0.01760700  0.85926300  1
  N  340  1  0.05285600  0.94604300  0.85849800  1
  N  363  1  0.56328400  0.01830100  0.13784300  1
  N  364  1  0.43490000  0.94634200  0.13597800  1
  N  387  1  0.56364200  0.44594400  0.62602200  1
  N  388  1  0.43087300  0.51371200  0.62732100  1
  N  411  1  0.92240500  0.44444500  0.36689300  1
  N  412  1  0.05454700  0.51225400  0.36868400  1
  N  435  1  0.42512600  0.51663500  0.36355300  1
  N  436  1  0.55235200  0.44619200  0.36260300  1
  N  459  1  0.06127600  0.51745400  0.63352400  1
  N  460  1  0.93464000  0.44678000  0.63155700  1
  N  483  1  0.33713300  0.25597500  0.24105400  1
  N  484  1  0.21658500  0.25860300  0.19433400  1
  N  507  1  0.15111400  0.25637600  0.75445900  1
  N  508  1  0.27278900  0.25793700  0.80070200  1
  N  531  1  0.83627300  0.70532500  0.75456200  1
  N  532  1  0.71432000  0.70207000  0.80050000  1
  N  555  1  0.65116800  0.70478200  0.23993800  1
  N  556  1  0.77247400  0.70241300  0.19368000  1
  N  1315  1  0.14480200  0.56573300  0.01935500  1
  N  1316  1  0.22842400  0.46993200  0.99092400  1
  N  1339  1  0.64465400  0.23768800  0.97599800  1
  N  1340  1  0.72944200  0.33564600  0.00430100  1
  N  1363  1  0.64300400  0.06603720  0.51919500  1
  N  1364  1  0.73332400  0.97077500  0.49108000  1
  N  1387  1  0.14180700  0.73838800  0.47618900  1
  N  1388  1  0.23357100  0.83477600  0.50411400  1
  N  1411  1  0.06862000  0.36592100  0.12506100  1
  N  1412  1  0.92898100  0.43697000  0.12599700  1
  N  1435  1  0.41868500  0.36453400  0.86817600  1
  N  1436  1  0.55758500  0.43537100  0.87019100  1
  N  1459  1  0.92406900  0.43965700  0.85926300  1
  N  1460  1  0.05285600  0.36809300  0.85849800  1
  N  1483  1  0.56328400  0.44035100  0.13784300  1
  N  1484  1  0.43490000  0.36839200  0.13597800  1
  N  1507  1  0.56364200  0.86799400  0.62602200  1
  N  1508  1  0.43087300  0.93576200  0.62732100  1
  N  1531  1  0.92240500  0.86649500  0.36689300  1
  N  1532  1  0.05454700  0.93430400  0.36868400  1
  N  1555  1  0.42512600  0.93868500  0.36355300  1
  N  1556  1  0.55235200  0.86824200  0.36260300  1
  N  1579  1  0.06127600  0.93950400  0.63352400  1
  N  1580  1  0.93464000  0.86883000  0.63155700  1
  N  1603  1  0.33713300  0.67802500  0.24105400  1
  N  1604  1  0.21658500  0.68065300  0.19433400  1
  N  1627  1  0.15111400  0.67842600  0.75445900  1
  N  1628  1  0.27278900  0.67998700  0.80070200  1
  N  1651  1  0.83627300  0.12737500  0.75456200  1
  N  1652  1  0.71432000  0.12412000  0.80050000  1
  N  1675  1  0.65116800  0.12683200  0.23993800  1
  N  1676  1  0.77247400  0.12446300  0.19368000  1
  O  197  1  0.27012900  0.02444100  0.98719300  1
  O  198  1  0.13047100  0.17574300  0.02926400  1
  O  199  1  0.10205800  0.12138700  0.02452100  1
  O  200  1  0.17879100  0.03133000  0.98809300  1
  O  221  1  0.77185800  0.93656400  0.00789900  1
  O  222  1  0.63184200  0.78321100  0.96635700  1
  O  223  1  0.60079500  0.83703900  0.97074900  1
  O  224  1  0.68033700  0.93068400  0.00741400  1
  O  245  1  0.77684800  0.52652500  0.48773600  1
  O  246  1  0.62783900  0.67590300  0.52909100  1
  O  247  1  0.60071800  0.62131200  0.52422800  1
  O  248  1  0.68508200  0.53071500  0.48789800  1
  O  269  1  0.27765900  0.43454100  0.50721000  1
  O  270  1  0.12736900  0.28419800  0.46650400  1
  O  271  1  0.09886600  0.33853200  0.47117500  1
  O  272  1  0.18582300  0.43113900  0.50769000  1
  O  293  1  0.89115300  0.03956300  0.13355900  1
  O  294  1  0.10797000  0.91984300  0.13184500  1
  O  295  1  0.07233600  0.95133900  0.09632600  1
  O  296  1  0.92347600  0.00793200  0.09725500  1
  O  317  1  0.59621000  0.03791600  0.86368500  1
  O  318  1  0.38003800  0.91831200  0.86067900  1
  O  319  1  0.41338600  0.94965300  0.89689600  1
  O  320  1  0.56097800  0.00577600  0.89892200  1
  O  341  1  0.09253500  0.92173600  0.85306900  1
  O  342  1  0.88332600  0.04146300  0.85462600  1
  O  343  1  0.92567800  0.00976900  0.88798500  1
  O  344  1  0.05221700  0.95299600  0.88738900  1
  O  365  1  0.39486000  0.92199500  0.14049500  1
  O  366  1  0.60369600  0.04210500  0.14336400  1
  O  367  1  0.56258000  0.01142900  0.10893900  1
  O  368  1  0.43679800  0.95406800  0.10724000  1
  O  389  1  0.39192200  0.53833700  0.63317700  1
  O  390  1  0.60397500  0.42188500  0.63089100  1
  O  391  1  0.56380200  0.45449000  0.59743100  1
  O  392  1  0.42856700  0.50568700  0.59864800  1
  O  413  1  0.09426000  0.53674200  0.36389800  1
  O  414  1  0.88281400  0.42017700  0.36115900  1
  O  415  1  0.92042600  0.45260700  0.39554500  1
  O  416  1  0.05463700  0.50375700  0.39728500  1
  O  437  1  0.59117800  0.42129400  0.35734300  1
  O  438  1  0.38560500  0.54133900  0.35914200  1
  O  439  1  0.42542300  0.50781700  0.39208600  1
  O  440  1  0.55278400  0.45392400  0.39135400  1
  O  461  1  0.89566900  0.42168200  0.63575200  1
  O  462  1  0.10064100  0.54198900  0.63887100  1
  O  463  1  0.06172000  0.50975300  0.60476700  1
  O  464  1  0.93533600  0.45558400  0.60302200  1
  O  485  1  0.16726100  0.26151100  0.18015700  1
  O  486  1  0.38177500  0.24616200  0.25716200  1
  O  487  1  0.35262800  0.28278500  0.22362500  1
  O  488  1  0.25776100  0.26900000  0.17610700  1
  O  509  1  0.32247700  0.26056000  0.81456800  1
  O  510  1  0.10600700  0.24684700  0.73858800  1
  O  511  1  0.13633700  0.28315900  0.77208500  1
  O  512  1  0.23212300  0.26829500  0.81925300  1
  O  533  1  0.66475400  0.69934100  0.81447600  1
  O  534  1  0.88119400  0.71542900  0.73879600  1
  O  535  1  0.85169600  0.67860700  0.77210800  1
  O  536  1  0.75512500  0.69155300  0.81890200  1
  O  557  1  0.82204600  0.69954600  0.17973000  1
  O  558  1  0.60619200  0.71486700  0.25567100  1
  O  559  1  0.63584800  0.67802400  0.22240600  1
  O  560  1  0.73155600  0.69241900  0.17514300  1
  O  1317  1  0.27012900  0.44649100  0.98719300  1
  O  1318  1  0.13047100  0.59779300  0.02926400  1
  O  1319  1  0.10205800  0.54343700  0.02452100  1
  O  1320  1  0.17879100  0.45338000  0.98809300  1
  O  1341  1  0.77185800  0.35861400  0.00789900  1
  O  1342  1  0.63184200  0.20526100  0.96635700  1
  O  1343  1  0.60079500  0.25908900  0.97074900  1
  O  1344  1  0.68033700  0.35273400  0.00741400  1
  O  1365  1  0.77684800  0.94857500  0.48773600  1
  O  1366  1  0.62783900  0.09795320  0.52909100  1
  O  1367  1  0.60071800  0.04336220  0.52422800  1
  O  1368  1  0.68508200  0.95276500  0.48789800  1
  O  1389  1  0.27765900  0.85659100  0.50721000  1
  O  1390  1  0.12736900  0.70624800  0.46650400  1
  O  1391  1  0.09886600  0.76058200  0.47117500  1
  O  1392  1  0.18582300  0.85318900  0.50769000  1
  O  1413  1  0.89115300  0.46161300  0.13355900  1
  O  1414  1  0.10797000  0.34189300  0.13184500  1
  O  1415  1  0.07233600  0.37338900  0.09632600  1
  O  1416  1  0.92347600  0.42998200  0.09725500  1
  O  1437  1  0.59621000  0.45996600  0.86368500  1
  O  1438  1  0.38003800  0.34036200  0.86067900  1
  O  1439  1  0.41338600  0.37170300  0.89689600  1
  O  1440  1  0.56097800  0.42782600  0.89892200  1
  O  1461  1  0.09253500  0.34378600  0.85306900  1
  O  1462  1  0.88332600  0.46351300  0.85462600  1
  O  1463  1  0.92567800  0.43181900  0.88798500  1
  O  1464  1  0.05221700  0.37504600  0.88738900  1
  O  1485  1  0.39486000  0.34404500  0.14049500  1
  O  1486  1  0.60369600  0.46415500  0.14336400  1
  O  1487  1  0.56258000  0.43347900  0.10893900  1
  O  1488  1  0.43679800  0.37611800  0.10724000  1
  O  1509  1  0.39192200  0.96038700  0.63317700  1
  O  1510  1  0.60397500  0.84393500  0.63089100  1
  O  1511  1  0.56380200  0.87654000  0.59743100  1
  O  1512  1  0.42856700  0.92773700  0.59864800  1
  O  1533  1  0.09426000  0.95879200  0.36389800  1
  O  1534  1  0.88281400  0.84222700  0.36115900  1
  O  1535  1  0.92042600  0.87465700  0.39554500  1
  O  1536  1  0.05463700  0.92580700  0.39728500  1
  O  1557  1  0.59117800  0.84334400  0.35734300  1
  O  1558  1  0.38560500  0.96338900  0.35914200  1
  O  1559  1  0.42542300  0.92986700  0.39208600  1
  O  1560  1  0.55278400  0.87597400  0.39135400  1
  O  1581  1  0.89566900  0.84373200  0.63575200  1
  O  1582  1  0.10064100  0.96403900  0.63887100  1
  O  1583  1  0.06172000  0.93180300  0.60476700  1
  O  1584  1  0.93533600  0.87763400  0.60302200  1
  O  1605  1  0.16726100  0.68356100  0.18015700  1
  O  1606  1  0.38177500  0.66821200  0.25716200  1
  O  1607  1  0.35262800  0.70483500  0.22362500  1
  O  1608  1  0.25776100  0.69105000  0.17610700  1
  O  1629  1  0.32247700  0.68261000  0.81456800  1
  O  1630  1  0.10600700  0.66889700  0.73858800  1
  O  1631  1  0.13633700  0.70520900  0.77208500  1
  O  1632  1  0.23212300  0.69034500  0.81925300  1
  O  1653  1  0.66475400  0.12139100  0.81447600  1
  O  1654  1  0.88119400  0.13747900  0.73879600  1
  O  1655  1  0.85169600  0.10065700  0.77210800  1
  O  1656  1  0.75512500  0.11360300  0.81890200  1
  O  1677  1  0.82204600  0.12159600  0.17973000  1
  O  1678  1  0.60619200  0.13691700  0.25567100  1
  O  1679  1  0.63584800  0.10007400  0.22240600  1
  O  1680  1  0.73155600  0.11446900  0.17514300  1
