# generated using pymatgen
data_CuHC17(OF2)4
_symmetry_space_group_name_H-M   'P 1'
_cell_length_a   31.17260000
_cell_length_b   33.02510000
_cell_length_c   34.82890000
_cell_angle_alpha   89.91560000
_cell_angle_beta   90.12030000
_cell_angle_gamma   90.36010000
_symmetry_Int_Tables_number   1
_chemical_formula_structural   CuHC17(OF2)4
_chemical_formula_sum   'Cu24 H24 C408 O96 F192'
_cell_volume   35854.76901085
_cell_formula_units_Z   24
loop_
 _symmetry_equiv_pos_site_id
 _symmetry_equiv_pos_as_xyz
  1  'x, y, z'
loop_
 _atom_site_type_symbol
 _atom_site_label
 _atom_site_symmetry_multiplicity
 _atom_site_fract_x
 _atom_site_fract_y
 _atom_site_fract_z
 _atom_site_occupancy
  Cu  Cu1  1  0.00154000  0.61602000  0.37800000  1.0
  Cu  Cu2  1  0.00185000  0.67650000  0.32790000  1.0
  Cu  Cu3  1  0.99820000  0.38338000  0.62127000  1.0
  Cu  Cu4  1  0.00253000  0.32570000  0.67334000  1.0
  Cu  Cu5  1  0.00037000  0.38518000  0.38017000  1.0
  Cu  Cu6  1  0.99690000  0.32554000  0.32954000  1.0
  Cu  Cu7  1  0.99884000  0.61540000  0.62164000  1.0
  Cu  Cu8  1  0.00279000  0.67590000  0.67147000  1.0
  Cu  Cu9  1  0.61456000  0.99986000  0.37387000  1.0
  Cu  Cu10  1  0.68160000  0.00501000  0.32850000  1.0
  Cu  Cu11  1  0.38351000  0.99981000  0.62677000  1.0
  Cu  Cu12  1  0.31847000  0.99539000  0.67551000  1.0
  Cu  Cu13  1  0.61377000  0.99855000  0.62435000  1.0
  Cu  Cu14  1  0.68070000  0.00183000  0.67129000  1.0
  Cu  Cu15  1  0.38694000  0.00121000  0.37611000  1.0
  Cu  Cu16  1  0.31834000  0.99687000  0.33229000  1.0
  Cu  Cu17  1  0.61754000  0.62411000  0.00127000  1.0
  Cu  Cu18  1  0.68190000  0.67705000  0.00268000  1.0
  Cu  Cu19  1  0.38073000  0.37363000  0.99951000  1.0
  Cu  Cu20  1  0.31607000  0.32110000  0.99705000  1.0
  Cu  Cu21  1  0.38014000  0.62879000  0.00059000  1.0
  Cu  Cu22  1  0.31480000  0.67989000  0.99786000  1.0
  Cu  Cu23  1  0.62026000  0.37200000  0.00065000  1.0
  Cu  Cu24  1  0.68349000  0.31884000  0.00055000  1.0
  H  H1  1  0.57835000  0.18634000  0.80979000  1.0
  H  H2  1  0.41944000  0.19338000  0.80944000  1.0
  H  H3  1  0.57756000  0.80809000  0.18934000  1.0
  H  H4  1  0.42027000  0.82643000  0.17879000  1.0
  H  H5  1  0.58365000  0.80294000  0.80810000  1.0
  H  H6  1  0.42521000  0.81520000  0.81374000  1.0
  H  H7  1  0.41761000  0.19576000  0.19256000  1.0
  H  H8  1  0.57521000  0.18028000  0.18178000  1.0
  H  H9  1  0.20451000  0.57517000  0.80336000  1.0
  H  H10  1  0.20629000  0.42501000  0.79874000  1.0
  H  H11  1  0.80240000  0.42488000  0.19655000  1.0
  H  H12  1  0.79366000  0.57484000  0.19682000  1.0
  H  H13  1  0.19444000  0.42487000  0.18887000  1.0
  H  H14  1  0.19692000  0.57510000  0.19143000  1.0
  H  H15  1  0.80273000  0.42521000  0.80937000  1.0
  H  H16  1  0.80571000  0.57546000  0.81078000  1.0
  H  H17  1  0.20837000  0.20061000  0.43125000  1.0
  H  H18  1  0.18604000  0.18852000  0.57161000  1.0
  H  H19  1  0.79819000  0.80276000  0.57025000  1.0
  H  H20  1  0.80212000  0.80239000  0.42792000  1.0
  H  H21  1  0.78679000  0.20824000  0.57315000  1.0
  H  H22  1  0.78851000  0.20911000  0.43083000  1.0
  H  H23  1  0.20876000  0.78976000  0.57143000  1.0
  H  H24  1  0.21956000  0.78948000  0.42943000  1.0
  C  C1  1  0.05422000  0.60999000  0.31325000  1.0
  C  C2  1  0.94884000  0.68300000  0.39190000  1.0
  C  C3  1  0.94352000  0.61251000  0.31663000  1.0
  C  C4  1  0.06041000  0.67948000  0.38936000  1.0
  C  C5  1  0.05670000  0.39152000  0.68271000  1.0
  C  C6  1  0.94269000  0.31855000  0.61275000  1.0
  C  C7  1  0.94630000  0.39006000  0.68641000  1.0
  C  C8  1  0.05344000  0.31865000  0.60852000  1.0
  C  C9  1  0.94321000  0.39201000  0.31866000  1.0
  C  C10  1  0.05564000  0.31937000  0.39019000  1.0
  C  C11  1  0.05305000  0.39007000  0.31507000  1.0
  C  C12  1  0.94345000  0.32025000  0.39400000  1.0
  C  C13  1  0.94650000  0.61122000  0.68646000  1.0
  C  C14  1  0.05617000  0.67881000  0.60689000  1.0
  C  C15  1  0.05689000  0.61004000  0.68331000  1.0
  C  C16  1  0.94509000  0.68258000  0.61007000  1.0
  C  C17  1  0.67996000  0.05671000  0.39100000  1.0
  C  C18  1  0.61568000  0.94733000  0.31261000  1.0
  C  C19  1  0.68585000  0.95114000  0.39012000  1.0
  C  C20  1  0.61079000  0.05185000  0.31020000  1.0
  C  C21  1  0.39026000  0.94837000  0.69065000  1.0
  C  C22  1  0.31115000  0.04760000  0.61270000  1.0
  C  C23  1  0.38385000  0.05291000  0.68909000  1.0
  C  C24  1  0.31909000  0.94237000  0.61278000  1.0
  C  C25  1  0.68456000  0.95005000  0.60766000  1.0
  C  C26  1  0.60985000  0.04971000  0.68835000  1.0
  C  C27  1  0.67878000  0.05528000  0.60911000  1.0
  C  C28  1  0.61580000  0.94479000  0.68667000  1.0
  C  C29  1  0.38356000  0.05517000  0.31592000  1.0
  C  C30  1  0.32243000  0.94386000  0.39390000  1.0
  C  C31  1  0.38849000  0.95079000  0.31140000  1.0
  C  C32  1  0.31600000  0.04927000  0.39481000  1.0
  C  C33  1  0.68491000  0.61053000  0.05260000  1.0
  C  C34  1  0.61418000  0.69021000  0.95128000  1.0
  C  C35  1  0.68800000  0.61139000  0.95258000  1.0
  C  C36  1  0.61179000  0.69072000  0.05099000  1.0
  C  C37  1  0.38695000  0.30832000  0.94915000  1.0
  C  C38  1  0.31043000  0.38729000  0.04742000  1.0
  C  C39  1  0.38254000  0.30661000  0.04915000  1.0
  C  C40  1  0.31369000  0.38717000  0.94704000  1.0
  C  C41  1  0.31258000  0.61266000  0.94920000  1.0
  C  C42  1  0.38228000  0.69742000  0.04795000  1.0
  C  C43  1  0.31068000  0.61486000  0.04949000  1.0
  C  C44  1  0.38509000  0.69331000  0.94901000  1.0
  C  C45  1  0.68978000  0.38609000  0.95175000  1.0
  C  C46  1  0.61350000  0.30438000  0.04935000  1.0
  C  C47  1  0.68820000  0.38401000  0.05203000  1.0
  C  C48  1  0.61574000  0.30700000  0.94899000  1.0
  C  C49  1  0.52017000  0.16294000  0.78457000  1.0
  C  C50  1  0.47476000  0.16545000  0.78395000  1.0
  C  C51  1  0.45418000  0.19194000  0.80932000  1.0
  C  C52  1  0.47756000  0.21543000  0.83561000  1.0
  C  C53  1  0.52296000  0.21410000  0.83517000  1.0
  C  C54  1  0.54362000  0.18797000  0.80957000  1.0
  C  C55  1  0.52276000  0.83923000  0.21213000  1.0
  C  C56  1  0.47756000  0.84462000  0.20944000  1.0
  C  C57  1  0.45456000  0.82213000  0.18182000  1.0
  C  C58  1  0.47515000  0.79498000  0.15710000  1.0
  C  C59  1  0.52006000  0.79012000  0.15972000  1.0
  C  C60  1  0.54311000  0.81206000  0.18732000  1.0
  C  C61  1  0.52817000  0.83238000  0.78389000  1.0
  C  C62  1  0.48290000  0.83622000  0.78599000  1.0
  C  C63  1  0.45982000  0.81252000  0.81232000  1.0
  C  C64  1  0.48079000  0.78618000  0.83754000  1.0
  C  C65  1  0.52594000  0.78326000  0.83634000  1.0
  C  C66  1  0.54901000  0.80557000  0.80900000  1.0
  C  C67  1  0.47450000  0.21454000  0.16276000  1.0
  C  C68  1  0.51957000  0.21084000  0.16003000  1.0
  C  C69  1  0.54083000  0.18374000  0.18460000  1.0
  C  C70  1  0.51849000  0.16061000  0.21220000  1.0
  C  C71  1  0.47327000  0.16563000  0.21541000  1.0
  C  C72  1  0.45217000  0.19264000  0.19074000  1.0
  C  C73  1  0.17997000  0.52205000  0.77475000  1.0
  C  C74  1  0.18058000  0.47928000  0.77340000  1.0
  C  C75  1  0.20704000  0.45784000  0.79884000  1.0
  C  C76  1  0.23155000  0.47826000  0.82664000  1.0
  C  C77  1  0.23071000  0.52096000  0.82818000  1.0
  C  C78  1  0.20560000  0.54240000  0.80175000  1.0
  C  C79  1  0.77394000  0.47716000  0.17005000  1.0
  C  C80  1  0.77148000  0.51982000  0.17026000  1.0
  C  C81  1  0.79509000  0.54203000  0.19731000  1.0
  C  C82  1  0.82246000  0.52266000  0.22345000  1.0
  C  C83  1  0.82486000  0.47984000  0.22334000  1.0
  C  C84  1  0.80002000  0.45762000  0.19706000  1.0
  C  C85  1  0.22066000  0.47889000  0.16325000  1.0
  C  C86  1  0.22179000  0.52161000  0.16440000  1.0
  C  C87  1  0.19707000  0.54227000  0.19153000  1.0
  C  C88  1  0.17029000  0.52111000  0.21701000  1.0
  C  C89  1  0.16973000  0.47825000  0.21641000  1.0
  C  C90  1  0.19515000  0.45770000  0.18966000  1.0
  C  C91  1  0.77822000  0.47892000  0.83607000  1.0
  C  C92  1  0.77890000  0.52163000  0.83645000  1.0
  C  C93  1  0.80460000  0.54264000  0.80998000  1.0
  C  C94  1  0.83048000  0.52181000  0.78379000  1.0
  C  C95  1  0.82964000  0.47892000  0.78334000  1.0
  C  C96  1  0.80301000  0.45805000  0.80921000  1.0
  C  C97  1  0.17464000  0.22476000  0.48011000  1.0
  C  C98  1  0.16815000  0.22158000  0.52048000  1.0
  C  C99  1  0.19112000  0.19202000  0.54100000  1.0
  C  C100  1  0.21991000  0.16608000  0.52271000  1.0
  C  C101  1  0.22607000  0.16930000  0.48280000  1.0
  C  C102  1  0.20413000  0.19898000  0.46212000  1.0
  C  C103  1  0.77371000  0.82979000  0.51864000  1.0
  C  C104  1  0.77436000  0.82940000  0.47817000  1.0
  C  C105  1  0.80071000  0.80178000  0.45903000  1.0
  C  C106  1  0.82766000  0.77549000  0.47955000  1.0
  C  C107  1  0.82671000  0.77559000  0.52024000  1.0
  C  C108  1  0.79895000  0.80225000  0.53913000  1.0
  C  C109  1  0.75972000  0.18255000  0.52176000  1.0
  C  C110  1  0.76039000  0.18264000  0.48129000  1.0
  C  C111  1  0.78756000  0.20976000  0.46194000  1.0
  C  C112  1  0.81617000  0.23508000  0.48209000  1.0
  C  C113  1  0.81516000  0.23496000  0.52275000  1.0
  C  C114  1  0.78618000  0.20951000  0.54202000  1.0
  C  C115  1  0.18497000  0.76313000  0.51911000  1.0
  C  C116  1  0.18770000  0.76312000  0.47851000  1.0
  C  C117  1  0.21779000  0.78871000  0.46052000  1.0
  C  C118  1  0.24271000  0.81612000  0.48179000  1.0
  C  C119  1  0.23958000  0.81631000  0.52218000  1.0
  C  C120  1  0.21180000  0.78890000  0.54042000  1.0
  C  C121  1  0.87392000  0.69757000  0.41174000  1.0
  C  C122  1  0.91803000  0.70534000  0.41533000  1.0
  C  C123  1  0.93252000  0.73601000  0.44006000  1.0
  C  C124  1  0.90314000  0.75872000  0.46116000  1.0
  C  C125  1  0.85888000  0.75099000  0.45772000  1.0
  C  C126  1  0.84445000  0.72046000  0.43264000  1.0
  C  C127  1  0.86814000  0.31250000  0.58745000  1.0
  C  C128  1  0.90945000  0.29626000  0.59145000  1.0
  C  C129  1  0.91947000  0.25964000  0.57321000  1.0
  C  C130  1  0.88891000  0.24014000  0.55021000  1.0
  C  C131  1  0.84769000  0.25650000  0.54601000  1.0
  C  C132  1  0.83710000  0.29218000  0.56559000  1.0
  C  C133  1  0.11566000  0.31546000  0.43881000  1.0
  C  C134  1  0.08881000  0.29644000  0.41150000  1.0
  C  C135  1  0.09313000  0.25454000  0.40524000  1.0
  C  C136  1  0.12220000  0.23198000  0.42669000  1.0
  C  C137  1  0.14781000  0.25062000  0.45494000  1.0
  C  C138  1  0.14522000  0.29273000  0.46011000  1.0
  C  C139  1  0.13207000  0.68847000  0.58700000  1.0
  C  C140  1  0.08875000  0.69904000  0.58332000  1.0
  C  C141  1  0.07686000  0.73003000  0.55793000  1.0
  C  C142  1  0.10809000  0.75047000  0.53647000  1.0
  C  C143  1  0.15158000  0.74006000  0.54018000  1.0
  C  C144  1  0.16338000  0.70907000  0.56575000  1.0
  C  C145  1  0.56528000  0.88847000  0.30297000  1.0
  C  C146  1  0.59594000  0.91578000  0.28791000  1.0
  C  C147  1  0.60533000  0.91438000  0.24841000  1.0
  C  C148  1  0.58272000  0.88812000  0.22423000  1.0
  C  C149  1  0.55026000  0.86276000  0.23897000  1.0
  C  C150  1  0.54291000  0.86198000  0.27871000  1.0
  C  C151  1  0.40389000  0.87849000  0.71375000  1.0
  C  C152  1  0.41408000  0.91986000  0.71465000  1.0
  C  C153  1  0.44615000  0.93411000  0.73957000  1.0
  C  C154  1  0.46793000  0.90712000  0.76352000  1.0
  C  C155  1  0.45875000  0.86536000  0.76189000  1.0
  C  C156  1  0.42625000  0.85133000  0.73706000  1.0
  C  C157  1  0.59678000  0.11997000  0.71082000  1.0
  C  C158  1  0.58727000  0.07848000  0.71297000  1.0
  C  C159  1  0.55670000  0.06445000  0.73939000  1.0
  C  C160  1  0.53564000  0.09173000  0.76343000  1.0
  C  C161  1  0.54401000  0.13357000  0.76052000  1.0
  C  C162  1  0.57516000  0.14740000  0.73431000  1.0
  C  C163  1  0.39207000  0.08930000  0.25201000  1.0
  C  C164  1  0.40238000  0.08733000  0.29133000  1.0
  C  C165  1  0.43316000  0.11463000  0.30626000  1.0
  C  C166  1  0.45473000  0.14170000  0.28201000  1.0
  C  C167  1  0.44648000  0.14152000  0.24237000  1.0
  C  C168  1  0.41390000  0.11612000  0.22781000  1.0
  C  C169  1  0.68669000  0.58048000  0.11822000  1.0
  C  C170  1  0.70637000  0.58664000  0.08244000  1.0
  C  C171  1  0.74715000  0.57044000  0.07552000  1.0
  C  C172  1  0.76787000  0.54794000  0.10396000  1.0
  C  C173  1  0.74846000  0.54218000  0.13991000  1.0
  C  C174  1  0.70801000  0.55898000  0.14709000  1.0
  C  C175  1  0.31062000  0.43307000  0.10481000  1.0
  C  C176  1  0.28756000  0.41098000  0.07694000  1.0
  C  C177  1  0.24241000  0.41144000  0.07779000  1.0
  C  C178  1  0.22083000  0.43377000  0.10575000  1.0
  C  C179  1  0.24392000  0.45575000  0.13351000  1.0
  C  C180  1  0.28894000  0.45490000  0.13309000  1.0
  C  C181  1  0.31681000  0.56917000  0.89049000  1.0
  C  C182  1  0.29193000  0.58811000  0.91886000  1.0
  C  C183  1  0.24697000  0.58451000  0.91728000  1.0
  C  C184  1  0.22729000  0.56226000  0.88795000  1.0
  C  C185  1  0.25214000  0.54369000  0.85947000  1.0
  C  C186  1  0.29699000  0.54758000  0.86072000  1.0
  C  C187  1  0.75346000  0.42552000  0.92952000  1.0
  C  C188  1  0.71218000  0.41003000  0.92231000  1.0
  C  C189  1  0.69261000  0.41716000  0.88658000  1.0
  C  C190  1  0.71436000  0.43907000  0.85817000  1.0
  C  C191  1  0.75519000  0.45537000  0.86573000  1.0
  C  C192  1  0.77464000  0.44848000  0.90153000  1.0
  C  C193  1  0.12848000  0.59171000  0.29393000  1.0
  C  C194  1  0.08402000  0.58766000  0.28881000  1.0
  C  C195  1  0.06790000  0.56237000  0.25981000  1.0
  C  C196  1  0.09600000  0.54105000  0.23619000  1.0
  C  C197  1  0.14061000  0.54444000  0.24160000  1.0
  C  C198  1  0.15669000  0.57030000  0.27033000  1.0
  C  C199  1  0.07607000  0.43348000  0.73910000  1.0
  C  C200  1  0.08850000  0.41480000  0.70475000  1.0
  C  C201  1  0.13152000  0.41685000  0.69301000  1.0
  C  C202  1  0.16194000  0.43714000  0.71574000  1.0
  C  C203  1  0.14928000  0.45646000  0.74976000  1.0
  C  C204  1  0.10618000  0.45447000  0.76129000  1.0
  C  C205  1  0.93281000  0.56371000  0.74023000  1.0
  C  C206  1  0.91663000  0.58944000  0.71167000  1.0
  C  C207  1  0.87216000  0.59361000  0.70717000  1.0
  C  C208  1  0.84403000  0.57188000  0.73093000  1.0
  C  C209  1  0.86017000  0.54552000  0.75916000  1.0
  C  C210  1  0.90479000  0.54203000  0.76398000  1.0
  C  C211  1  0.92824000  0.44242000  0.26785000  1.0
  C  C212  1  0.91274000  0.41491000  0.29529000  1.0
  C  C213  1  0.86846000  0.40847000  0.29904000  1.0
  C  C214  1  0.83978000  0.42976000  0.27569000  1.0
  C  C215  1  0.85520000  0.45757000  0.24830000  1.0
  C  C216  1  0.89969000  0.46334000  0.24421000  1.0
  C  C217  1  0.39577000  0.71989000  0.11505000  1.0
  C  C218  1  0.40411000  0.72374000  0.07568000  1.0
  C  C219  1  0.43403000  0.75258000  0.06280000  1.0
  C  C220  1  0.45610000  0.77690000  0.08916000  1.0
  C  C221  1  0.44906000  0.77207000  0.12878000  1.0
  C  C222  1  0.41813000  0.74393000  0.14150000  1.0
  C  C223  1  0.56327000  0.30016000  0.10312000  1.0
  C  C224  1  0.59145000  0.28130000  0.07711000  1.0
  C  C225  1  0.59698000  0.23895000  0.07976000  1.0
  C  C226  1  0.57317000  0.21605000  0.10619000  1.0
  C  C227  1  0.54503000  0.23505000  0.13190000  1.0
  C  C228  1  0.54184000  0.27746000  0.13108000  1.0
  C  C229  1  0.40199000  0.29127000  0.88093000  1.0
  C  C230  1  0.40979000  0.28476000  0.92012000  1.0
  C  C231  1  0.43927000  0.25524000  0.93154000  1.0
  C  C232  1  0.46033000  0.23190000  0.90412000  1.0
  C  C233  1  0.45369000  0.23908000  0.86473000  1.0
  C  C234  1  0.42404000  0.26876000  0.85334000  1.0
  C  C235  1  0.59188000  0.70099000  0.88341000  1.0
  C  C236  1  0.59272000  0.71426000  0.92166000  1.0
  C  C237  1  0.57254000  0.75057000  0.93165000  1.0
  C  C238  1  0.55095000  0.77308000  0.90374000  1.0
  C  C239  1  0.54981000  0.75976000  0.86545000  1.0
  C  C240  1  0.57103000  0.72395000  0.85529000  1.0
  C  C241  1  0.32686000  0.87671000  0.42743000  1.0
  C  C242  1  0.30365000  0.91180000  0.41822000  1.0
  C  C243  1  0.26104000  0.91540000  0.43085000  1.0
  C  C244  1  0.24194000  0.88454000  0.45236000  1.0
  C  C245  1  0.26474000  0.84918000  0.46091000  1.0
  C  C246  1  0.30720000  0.84521000  0.44811000  1.0
  C  C247  1  0.68387000  0.88972000  0.56408000  1.0
  C  C248  1  0.70706000  0.91989000  0.58391000  1.0
  C  C249  1  0.75212000  0.92046000  0.58150000  1.0
  C  C250  1  0.77352000  0.89141000  0.55976000  1.0
  C  C251  1  0.75035000  0.86112000  0.54035000  1.0
  C  C252  1  0.70543000  0.86028000  0.54282000  1.0
  C  C253  1  0.67472000  0.11957000  0.43131000  1.0
  C  C254  1  0.69962000  0.08847000  0.41530000  1.0
  C  C255  1  0.74424000  0.08852000  0.42164000  1.0
  C  C256  1  0.76357000  0.11907000  0.44337000  1.0
  C  C257  1  0.73884000  0.15037000  0.45886000  1.0
  C  C258  1  0.69433000  0.15059000  0.45259000  1.0
  C  C259  1  0.24262000  0.07650000  0.58740000  1.0
  C  C260  1  0.28769000  0.07779000  0.58970000  1.0
  C  C261  1  0.31022000  0.10849000  0.57010000  1.0
  C  C262  1  0.28807000  0.13746000  0.54875000  1.0
  C  C263  1  0.24317000  0.13568000  0.54586000  1.0
  C  C264  1  0.22056000  0.10515000  0.56547000  1.0
  C  C265  1  0.06866000  0.28051000  0.55069000  1.0
  C  C266  1  0.08203000  0.29675000  0.58606000  1.0
  C  C267  1  0.12343000  0.28822000  0.59966000  1.0
  C  C268  1  0.15185000  0.26591000  0.57719000  1.0
  C  C269  1  0.13808000  0.24795000  0.54250000  1.0
  C  C270  1  0.09532000  0.25405000  0.53060000  1.0
  C  C271  1  0.10163000  0.74095000  0.40440000  1.0
  C  C272  1  0.09314000  0.69929000  0.41029000  1.0
  C  C273  1  0.11784000  0.67839000  0.43801000  1.0
  C  C274  1  0.14980000  0.69859000  0.45899000  1.0
  C  C275  1  0.15659000  0.74037000  0.45415000  1.0
  C  C276  1  0.13233000  0.76121000  0.42650000  1.0
  C  C277  1  0.88870000  0.68590000  0.56049000  1.0
  C  C278  1  0.91486000  0.70478000  0.58856000  1.0
  C  C279  1  0.91067000  0.74700000  0.59410000  1.0
  C  C280  1  0.88246000  0.76955000  0.57161000  1.0
  C  C281  1  0.85642000  0.75067000  0.54388000  1.0
  C  C282  1  0.85915000  0.70850000  0.53912000  1.0
  C  C283  1  0.88679000  0.32038000  0.44318000  1.0
  C  C284  1  0.91243000  0.29965000  0.41625000  1.0
  C  C285  1  0.90599000  0.25749000  0.41181000  1.0
  C  C286  1  0.87558000  0.23684000  0.43392000  1.0
  C  C287  1  0.84944000  0.25772000  0.45996000  1.0
  C  C288  1  0.85489000  0.29979000  0.46390000  1.0
  C  C289  1  0.39291000  0.08758000  0.75082000  1.0
  C  C290  1  0.40327000  0.08335000  0.71155000  1.0
  C  C291  1  0.43478000  0.10943000  0.69574000  1.0
  C  C292  1  0.45593000  0.13789000  0.71873000  1.0
  C  C293  1  0.44803000  0.13951000  0.75838000  1.0
  C  C294  1  0.41565000  0.11473000  0.77401000  1.0
  C  C295  1  0.60527000  0.11711000  0.27762000  1.0
  C  C296  1  0.58878000  0.07834000  0.28586000  1.0
  C  C297  1  0.55030000  0.06590000  0.26822000  1.0
  C  C298  1  0.52945000  0.09127000  0.24206000  1.0
  C  C299  1  0.54334000  0.13161000  0.23674000  1.0
  C  C300  1  0.58180000  0.14409000  0.25480000  1.0
  C  C301  1  0.39271000  0.88658000  0.27711000  1.0
  C  C302  1  0.40965000  0.92502000  0.28598000  1.0
  C  C303  1  0.44763000  0.93789000  0.26787000  1.0
  C  C304  1  0.46760000  0.91324000  0.24072000  1.0
  C  C305  1  0.45337000  0.87313000  0.23475000  1.0
  C  C306  1  0.41535000  0.86025000  0.25317000  1.0
  C  C307  1  0.60947000  0.90940000  0.74836000  1.0
  C  C308  1  0.59727000  0.91414000  0.70950000  1.0
  C  C309  1  0.56505000  0.88826000  0.69455000  1.0
  C  C310  1  0.54486000  0.85961000  0.71805000  1.0
  C  C311  1  0.55446000  0.85767000  0.75743000  1.0
  C  C312  1  0.58770000  0.88209000  0.77211000  1.0
  C  C313  1  0.31595000  0.42122000  0.88296000  1.0
  C  C314  1  0.29306000  0.41074000  0.91630000  1.0
  C  C315  1  0.24984000  0.42201000  0.91966000  1.0
  C  C316  1  0.23003000  0.44414000  0.89041000  1.0
  C  C317  1  0.25283000  0.45442000  0.85705000  1.0
  C  C318  1  0.29566000  0.44227000  0.85316000  1.0
  C  C319  1  0.75620000  0.58766000  0.92251000  1.0
  C  C320  1  0.71103000  0.58807000  0.92298000  1.0
  C  C321  1  0.68826000  0.56670000  0.89446000  1.0
  C  C322  1  0.71029000  0.54560000  0.86590000  1.0
  C  C323  1  0.75532000  0.54480000  0.86588000  1.0
  C  C324  1  0.77810000  0.56606000  0.89429000  1.0
  C  C325  1  0.68606000  0.42927000  0.10963000  1.0
  C  C326  1  0.71005000  0.40720000  0.08270000  1.0
  C  C327  1  0.75511000  0.40767000  0.08526000  1.0
  C  C328  1  0.77575000  0.43035000  0.11378000  1.0
  C  C329  1  0.75174000  0.45259000  0.14043000  1.0
  C  C330  1  0.70676000  0.45140000  0.13850000  1.0
  C  C331  1  0.30753000  0.58391000  0.11476000  1.0
  C  C332  1  0.28820000  0.59105000  0.07894000  1.0
  C  C333  1  0.24704000  0.57542000  0.07141000  1.0
  C  C334  1  0.22574000  0.55232000  0.09918000  1.0
  C  C335  1  0.24492000  0.54542000  0.13506000  1.0
  C  C336  1  0.28561000  0.56186000  0.14297000  1.0
  C  C337  1  0.91621000  0.40689000  0.75092000  1.0
  C  C338  1  0.91522000  0.41180000  0.71077000  1.0
  C  C339  1  0.88491000  0.43821000  0.69443000  1.0
  C  C340  1  0.85634000  0.45938000  0.71785000  1.0
  C  C341  1  0.85816000  0.45514000  0.75798000  1.0
  C  C342  1  0.88807000  0.42845000  0.77424000  1.0
  C  C343  1  0.88054000  0.56496000  0.31077000  1.0
  C  C344  1  0.91029000  0.59156000  0.29349000  1.0
  C  C345  1  0.90911000  0.59691000  0.25339000  1.0
  C  C346  1  0.87979000  0.57521000  0.23097000  1.0
  C  C347  1  0.85084000  0.54791000  0.24811000  1.0
  C  C348  1  0.85078000  0.54363000  0.28827000  1.0
  C  C349  1  0.08197000  0.40707000  0.25006000  1.0
  C  C350  1  0.08419000  0.41153000  0.29023000  1.0
  C  C351  1  0.11579000  0.43718000  0.30610000  1.0
  C  C352  1  0.14441000  0.45809000  0.28222000  1.0
  C  C353  1  0.14136000  0.45434000  0.24211000  1.0
  C  C354  1  0.11022000  0.42835000  0.22628000  1.0
  C  C355  1  0.08824000  0.59045000  0.74659000  1.0
  C  C356  1  0.08924000  0.58825000  0.70626000  1.0
  C  C357  1  0.12115000  0.56503000  0.68840000  1.0
  C  C358  1  0.15155000  0.54442000  0.71055000  1.0
  C  C359  1  0.14976000  0.54582000  0.75086000  1.0
  C  C360  1  0.11804000  0.56921000  0.76865000  1.0
  C  C361  1  0.59979000  0.24164000  0.91548000  1.0
  C  C362  1  0.59392000  0.28375000  0.91835000  1.0
  C  C363  1  0.56661000  0.30321000  0.89202000  1.0
  C  C364  1  0.54493000  0.28085000  0.86388000  1.0
  C  C365  1  0.54938000  0.23856000  0.86215000  1.0
  C  C366  1  0.57762000  0.21926000  0.88772000  1.0
  C  C367  1  0.43295000  0.69735000  0.89169000  1.0
  C  C368  1  0.40799000  0.71704000  0.91951000  1.0
  C  C369  1  0.40603000  0.75958000  0.91945000  1.0
  C  C370  1  0.42952000  0.78205000  0.89262000  1.0
  C  C371  1  0.45494000  0.76233000  0.86522000  1.0
  C  C372  1  0.45578000  0.71982000  0.86448000  1.0
  C  C373  1  0.55818000  0.69807000  0.10437000  1.0
  C  C374  1  0.58881000  0.71559000  0.07960000  1.0
  C  C375  1  0.59718000  0.75746000  0.08218000  1.0
  C  C376  1  0.57505000  0.78131000  0.10851000  1.0
  C  C377  1  0.54420000  0.76390000  0.13290000  1.0
  C  C378  1  0.53636000  0.72200000  0.13104000  1.0
  C  C379  1  0.41884000  0.24344000  0.07029000  1.0
  C  C380  1  0.40362000  0.28227000  0.07898000  1.0
  C  C381  1  0.40973000  0.29802000  0.11602000  1.0
  C  C382  1  0.43128000  0.27530000  0.14392000  1.0
  C  C383  1  0.44934000  0.23779000  0.13429000  1.0
  C  C384  1  0.44245000  0.22174000  0.09749000  1.0
  C  C385  1  0.74219000  0.08508000  0.57599000  1.0
  C  C386  1  0.69856000  0.08752000  0.58576000  1.0
  C  C387  1  0.67470000  0.12136000  0.57400000  1.0
  C  C388  1  0.69454000  0.15273000  0.55340000  1.0
  C  C389  1  0.73800000  0.14992000  0.54338000  1.0
  C  C390  1  0.76164000  0.11591000  0.55469000  1.0
  C  C391  1  0.25274000  0.07144000  0.43272000  1.0
  C  C392  1  0.29415000  0.07948000  0.41870000  1.0
  C  C393  1  0.31354000  0.11720000  0.42623000  1.0
  C  C394  1  0.29134000  0.14680000  0.44682000  1.0
  C  C395  1  0.25025000  0.13839000  0.46133000  1.0
  C  C396  1  0.23119000  0.10050000  0.45430000  1.0
  C  C397  1  0.32455000  0.88076000  0.57111000  1.0
  C  C398  1  0.29915000  0.90989000  0.58963000  1.0
  C  C399  1  0.25424000  0.90773000  0.58594000  1.0
  C  C400  1  0.23514000  0.87726000  0.56393000  1.0
  C  C401  1  0.26049000  0.84818000  0.54555000  1.0
  C  C402  1  0.30528000  0.84987000  0.54955000  1.0
  C  C403  1  0.68789000  0.88300000  0.42134000  1.0
  C  C404  1  0.70813000  0.92016000  0.41305000  1.0
  C  C405  1  0.75028000  0.92708000  0.42598000  1.0
  C  C406  1  0.77161000  0.89755000  0.44744000  1.0
  C  C407  1  0.75146000  0.86038000  0.45551000  1.0
  C  C408  1  0.70974000  0.85302000  0.44188000  1.0
  O  O1  1  0.04034000  0.59366000  0.34384000  1.0
  O  O2  1  0.96245000  0.64887000  0.40330000  1.0
  O  O3  1  0.95724000  0.59643000  0.34742000  1.0
  O  O4  1  0.04637000  0.64508000  0.40015000  1.0
  O  O5  1  0.04450000  0.69637000  0.35983000  1.0
  O  O6  1  0.95895000  0.64598000  0.30491000  1.0
  O  O7  1  0.96176000  0.69853000  0.36065000  1.0
  O  O8  1  0.04194000  0.64491000  0.30291000  1.0
  O  O9  1  0.04421000  0.40401000  0.65000000  1.0
  O  O10  1  0.95227000  0.35425000  0.60226000  1.0
  O  O11  1  0.95877000  0.40565000  0.65494000  1.0
  O  O12  1  0.03182000  0.34719000  0.59375000  1.0
  O  O13  1  0.04839000  0.30908000  0.64352000  1.0
  O  O14  1  0.96093000  0.35618000  0.69754000  1.0
  O  O15  1  0.96210000  0.30174000  0.64064000  1.0
  O  O16  1  0.04120000  0.35952000  0.69741000  1.0
  O  O17  1  0.95939000  0.40819000  0.34842000  1.0
  O  O18  1  0.04179000  0.35278000  0.40312000  1.0
  O  O19  1  0.04212000  0.40529000  0.34707000  1.0
  O  O20  1  0.95721000  0.35501000  0.40405000  1.0
  O  O21  1  0.95780000  0.30381000  0.36373000  1.0
  O  O22  1  0.03678000  0.35684000  0.30374000  1.0
  O  O23  1  0.04048000  0.30472000  0.35931000  1.0
  O  O24  1  0.95424000  0.35695000  0.30782000  1.0
  O  O25  1  0.95893000  0.59447000  0.65571000  1.0
  O  O26  1  0.03996000  0.64553000  0.59567000  1.0
  O  O27  1  0.04216000  0.59444000  0.65260000  1.0
  O  O28  1  0.95617000  0.64727000  0.59960000  1.0
  O  O29  1  0.96193000  0.69835000  0.63975000  1.0
  O  O30  1  0.04350000  0.64404000  0.69504000  1.0
  O  O31  1  0.04451000  0.69513000  0.63811000  1.0
  O  O32  1  0.96076000  0.64573000  0.69648000  1.0
  O  O33  1  0.64266000  0.04296000  0.39840000  1.0
  O  O34  1  0.59687000  0.95769000  0.34327000  1.0
  O  O35  1  0.64750000  0.96065000  0.39831000  1.0
  O  O36  1  0.59028000  0.03174000  0.33541000  1.0
  O  O37  1  0.65098000  0.04729000  0.30645000  1.0
  O  O38  1  0.70522000  0.96783000  0.36218000  1.0
  O  O39  1  0.65037000  0.96489000  0.30248000  1.0
  O  O40  1  0.70108000  0.04317000  0.36278000  1.0
  O  O41  1  0.40808000  0.96375000  0.66126000  1.0
  O  O42  1  0.34781000  0.03583000  0.60166000  1.0
  O  O43  1  0.40123000  0.04200000  0.65786000  1.0
  O  O44  1  0.35520000  0.95708000  0.60303000  1.0
  O  O45  1  0.29958000  0.95559000  0.64211000  1.0
  O  O46  1  0.34952000  0.03571000  0.70042000  1.0
  O  O47  1  0.29460000  0.03382000  0.64335000  1.0
  O  O48  1  0.35225000  0.95753000  0.69996000  1.0
  O  O49  1  0.64770000  0.96238000  0.59762000  1.0
  O  O50  1  0.59071000  0.03460000  0.65947000  1.0
  O  O51  1  0.64197000  0.04138000  0.60031000  1.0
  O  O52  1  0.59725000  0.95610000  0.65598000  1.0
  O  O53  1  0.65061000  0.96174000  0.69714000  1.0
  O  O54  1  0.69928000  0.04144000  0.63771000  1.0
  O  O55  1  0.64810000  0.04005000  0.69658000  1.0
  O  O56  1  0.70232000  0.96329000  0.63806000  1.0
  O  O57  1  0.40338000  0.04426000  0.34600000  1.0
  O  O58  1  0.36009000  0.95728000  0.40044000  1.0
  O  O59  1  0.40987000  0.97046000  0.33636000  1.0
  O  O60  1  0.35457000  0.03961000  0.40213000  1.0
  O  O61  1  0.29586000  0.03332000  0.36691000  1.0
  O  O62  1  0.34816000  0.95515000  0.30886000  1.0
  O  O63  1  0.30011000  0.95813000  0.36665000  1.0
  O  O64  1  0.34868000  0.03760000  0.30622000  1.0
  O  O65  1  0.64863000  0.59910000  0.03991000  1.0
  O  O66  1  0.59673000  0.65765000  0.96296000  1.0
  O  O67  1  0.65176000  0.59909000  0.96473000  1.0
  O  O68  1  0.59448000  0.65867000  0.03780000  1.0
  O  O69  1  0.64858000  0.70200000  0.03944000  1.0
  O  O70  1  0.70478000  0.64369000  0.96559000  1.0
  O  O71  1  0.64957000  0.70260000  0.96515000  1.0
  O  O72  1  0.70316000  0.64222000  0.03976000  1.0
  O  O73  1  0.40482000  0.33944000  0.96350000  1.0
  O  O74  1  0.34667000  0.39950000  0.03530000  1.0
  O  O75  1  0.39995000  0.33953000  0.03826000  1.0
  O  O76  1  0.35002000  0.39823000  0.96008000  1.0
  O  O77  1  0.29481000  0.35593000  0.96010000  1.0
  O  O78  1  0.34760000  0.29425000  0.03435000  1.0
  O  O79  1  0.29369000  0.35488000  0.03449000  1.0
  O  O80  1  0.34980000  0.29701000  0.95970000  1.0
  O  O81  1  0.34825000  0.60166000  0.96339000  1.0
  O  O82  1  0.40092000  0.66566000  0.03633000  1.0
  O  O83  1  0.34782000  0.60426000  0.03876000  1.0
  O  O84  1  0.40216000  0.66141000  0.96224000  1.0
  O  O85  1  0.34887000  0.70515000  0.96115000  1.0
  O  O86  1  0.29240000  0.64550000  0.03491000  1.0
  O  O87  1  0.34553000  0.70719000  0.03542000  1.0
  O  O88  1  0.29448000  0.64478000  0.96062000  1.0
  O  O89  1  0.65303000  0.39716000  0.96312000  1.0
  O  O90  1  0.59832000  0.33811000  0.03837000  1.0
  O  O91  1  0.65319000  0.39698000  0.03813000  1.0
  O  O92  1  0.59795000  0.33819000  0.96296000  1.0
  O  O93  1  0.65197000  0.29536000  0.96135000  1.0
  O  O94  1  0.70462000  0.35139000  0.03975000  1.0
  O  O95  1  0.64848000  0.29160000  0.03529000  1.0
  O  O96  1  0.70739000  0.35456000  0.96528000  1.0
  F  F1  1  0.80185000  0.71262000  0.42877000  1.0
  F  F2  1  0.85950000  0.66823000  0.38759000  1.0
  F  F3  1  0.91775000  0.78888000  0.48429000  1.0
  F  F4  1  0.97513000  0.74415000  0.44341000  1.0
  F  F5  1  0.79696000  0.30765000  0.56286000  1.0
  F  F6  1  0.85781000  0.34771000  0.60516000  1.0
  F  F7  1  0.89931000  0.20511000  0.53222000  1.0
  F  F8  1  0.95921000  0.24347000  0.57679000  1.0
  F  F9  1  0.17061000  0.31161000  0.48635000  1.0
  F  F10  1  0.11330000  0.35595000  0.44500000  1.0
  F  F11  1  0.12339000  0.19124000  0.42151000  1.0
  F  F12  1  0.06772000  0.23470000  0.37962000  1.0
  F  F13  1  0.20523000  0.69881000  0.56998000  1.0
  F  F14  1  0.14399000  0.65869000  0.61166000  1.0
  F  F15  1  0.09610000  0.78118000  0.51290000  1.0
  F  F16  1  0.03504000  0.74074000  0.55435000  1.0
  F  F17  1  0.51316000  0.83638000  0.29385000  1.0
  F  F18  1  0.55642000  0.88774000  0.34112000  1.0
  F  F19  1  0.59048000  0.88951000  0.18589000  1.0
  F  F20  1  0.63455000  0.94009000  0.23263000  1.0
  F  F21  1  0.41686000  0.81119000  0.73484000  1.0
  F  F22  1  0.37271000  0.86442000  0.68987000  1.0
  F  F23  1  0.49755000  0.92175000  0.78861000  1.0
  F  F24  1  0.45562000  0.97426000  0.74128000  1.0
  F  F25  1  0.58379000  0.18759000  0.73081000  1.0
  F  F26  1  0.62648000  0.13389000  0.68547000  1.0
  F  F27  1  0.50740000  0.07730000  0.78980000  1.0
  F  F28  1  0.54784000  0.02425000  0.74228000  1.0
  F  F29  1  0.40534000  0.11519000  0.18957000  1.0
  F  F30  1  0.36274000  0.06359000  0.23636000  1.0
  F  F31  1  0.48462000  0.16726000  0.29702000  1.0
  F  F32  1  0.44290000  0.11479000  0.34428000  1.0
  F  F33  1  0.68934000  0.55458000  0.18204000  1.0
  F  F34  1  0.64750000  0.59641000  0.12553000  1.0
  F  F35  1  0.80721000  0.53228000  0.09676000  1.0
  F  F36  1  0.76654000  0.57599000  0.04101000  1.0
  F  F37  1  0.31189000  0.47419000  0.16077000  1.0
  F  F38  1  0.35416000  0.43245000  0.10550000  1.0
  F  F39  1  0.17728000  0.43431000  0.10555000  1.0
  F  F40  1  0.21911000  0.39102000  0.05103000  1.0
  F  F41  1  0.32147000  0.53169000  0.83242000  1.0
  F  F42  1  0.36021000  0.57301000  0.89064000  1.0
  F  F43  1  0.18387000  0.55872000  0.88732000  1.0
  F  F44  1  0.22207000  0.60196000  0.94450000  1.0
  F  F45  1  0.81431000  0.46373000  0.90912000  1.0
  F  F46  1  0.77280000  0.41906000  0.96394000  1.0
  F  F47  1  0.69571000  0.44435000  0.82328000  1.0
  F  F48  1  0.65299000  0.40184000  0.87889000  1.0
  F  F49  1  0.19963000  0.57414000  0.27594000  1.0
  F  F50  1  0.14444000  0.61626000  0.32181000  1.0
  F  F51  1  0.07973000  0.51751000  0.20768000  1.0
  F  F52  1  0.02492000  0.55855000  0.25432000  1.0
  F  F53  1  0.09345000  0.47260000  0.79429000  1.0
  F  F54  1  0.03462000  0.43159000  0.75093000  1.0
  F  F55  1  0.20358000  0.43835000  0.70444000  1.0
  F  F56  1  0.14412000  0.39838000  0.66016000  1.0
  F  F57  1  0.92115000  0.51793000  0.79195000  1.0
  F  F58  1  0.97581000  0.55954000  0.74499000  1.0
  F  F59  1  0.80106000  0.57582000  0.72590000  1.0
  F  F60  1  0.85611000  0.61844000  0.67964000  1.0
  F  F61  1  0.91547000  0.48852000  0.21675000  1.0
  F  F62  1  0.97112000  0.44836000  0.26350000  1.0
  F  F63  1  0.79695000  0.42358000  0.27998000  1.0
  F  F64  1  0.85315000  0.38165000  0.32531000  1.0
  F  F65  1  0.41079000  0.73874000  0.17961000  1.0
  F  F66  1  0.36671000  0.69222000  0.12783000  1.0
  F  F67  1  0.48449000  0.80502000  0.07609000  1.0
  F  F68  1  0.44196000  0.75695000  0.02468000  1.0
  F  F69  1  0.51934000  0.29726000  0.15844000  1.0
  F  F70  1  0.55854000  0.34103000  0.10338000  1.0
  F  F71  1  0.57702000  0.17512000  0.10613000  1.0
  F  F72  1  0.62333000  0.21915000  0.05520000  1.0
  F  F73  1  0.41705000  0.27637000  0.81553000  1.0
  F  F74  1  0.37344000  0.31974000  0.86948000  1.0
  F  F75  1  0.48676000  0.20188000  0.91606000  1.0
  F  F76  1  0.44754000  0.24893000  0.96930000  1.0
  F  F77  1  0.57058000  0.71084000  0.81836000  1.0
  F  F78  1  0.61152000  0.66599000  0.87337000  1.0
  F  F79  1  0.53123000  0.80797000  0.91397000  1.0
  F  F80  1  0.57312000  0.76373000  0.96857000  1.0
  F  F81  1  0.32918000  0.81058000  0.45492000  1.0
  F  F82  1  0.36775000  0.87217000  0.41488000  1.0
  F  F83  1  0.20075000  0.88873000  0.46426000  1.0
  F  F84  1  0.23792000  0.94898000  0.42248000  1.0
  F  F85  1  0.68259000  0.83016000  0.52578000  1.0
  F  F86  1  0.64044000  0.88773000  0.56652000  1.0
  F  F87  1  0.81699000  0.89279000  0.55757000  1.0
  F  F88  1  0.77545000  0.94955000  0.59969000  1.0
  F  F89  1  0.67012000  0.18143000  0.46608000  1.0
  F  F90  1  0.63174000  0.12080000  0.42507000  1.0
  F  F91  1  0.80660000  0.11813000  0.44944000  1.0
  F  F92  1  0.76915000  0.05856000  0.40728000  1.0
  F  F93  1  0.17715000  0.10279000  0.56290000  1.0
  F  F94  1  0.21999000  0.04692000  0.60558000  1.0
  F  F95  1  0.31039000  0.16797000  0.53174000  1.0
  F  F96  1  0.35362000  0.11128000  0.57265000  1.0
  F  F97  1  0.07834000  0.23286000  0.50086000  1.0
  F  F98  1  0.02813000  0.28671000  0.53763000  1.0
  F  F99  1  0.19298000  0.26188000  0.58948000  1.0
  F  F100  1  0.13738000  0.30381000  0.63358000  1.0
  F  F101  1  0.13721000  0.80182000  0.42178000  1.0
  F  F102  1  0.07868000  0.76304000  0.37871000  1.0
  F  F103  1  0.17445000  0.67713000  0.48381000  1.0
  F  F104  1  0.11225000  0.63807000  0.44411000  1.0
  F  F105  1  0.83259000  0.68898000  0.51428000  1.0
  F  F106  1  0.89033000  0.64530000  0.55457000  1.0
  F  F107  1  0.88151000  0.81037000  0.57627000  1.0
  F  F108  1  0.93542000  0.76728000  0.61994000  1.0
  F  F109  1  0.82817000  0.32136000  0.48662000  1.0
  F  F110  1  0.89063000  0.36106000  0.44796000  1.0
  F  F111  1  0.87208000  0.19602000  0.43016000  1.0
  F  F112  1  0.93041000  0.23551000  0.38730000  1.0
  F  F113  1  0.40746000  0.11526000  0.81229000  1.0
  F  F114  1  0.36300000  0.06340000  0.76774000  1.0
  F  F115  1  0.48453000  0.16372000  0.70224000  1.0
  F  F116  1  0.44453000  0.10830000  0.65776000  1.0
  F  F117  1  0.59632000  0.18274000  0.25111000  1.0
  F  F118  1  0.64232000  0.13013000  0.29423000  1.0
  F  F119  1  0.49659000  0.07577000  0.22103000  1.0
  F  F120  1  0.53505000  0.02769000  0.27351000  1.0
  F  F121  1  0.40054000  0.82178000  0.24879000  1.0
  F  F122  1  0.35610000  0.87318000  0.29414000  1.0
  F  F123  1  0.50000000  0.92918000  0.21948000  1.0
  F  F124  1  0.46319000  0.97588000  0.27377000  1.0
  F  F125  1  0.59757000  0.88121000  0.81010000  1.0
  F  F126  1  0.64023000  0.93328000  0.76447000  1.0
  F  F127  1  0.51536000  0.83410000  0.70238000  1.0
  F  F128  1  0.55356000  0.88985000  0.65693000  1.0
  F  F129  1  0.31764000  0.45055000  0.82046000  1.0
  F  F130  1  0.35749000  0.40997000  0.87879000  1.0
  F  F131  1  0.18853000  0.45558000  0.89454000  1.0
  F  F132  1  0.22717000  0.41240000  0.95169000  1.0
  F  F133  1  0.82164000  0.56540000  0.89493000  1.0
  F  F134  1  0.77921000  0.60742000  0.94992000  1.0
  F  F135  1  0.68769000  0.52679000  0.83770000  1.0
  F  F136  1  0.64473000  0.56733000  0.89346000  1.0
  F  F137  1  0.68288000  0.47099000  0.16508000  1.0
  F  F138  1  0.64251000  0.42857000  0.10865000  1.0
  F  F139  1  0.81929000  0.43129000  0.11496000  1.0
  F  F140  1  0.77927000  0.38721000  0.05943000  1.0
  F  F141  1  0.30401000  0.55646000  0.17795000  1.0
  F  F142  1  0.34709000  0.59922000  0.12270000  1.0
  F  F143  1  0.18622000  0.53690000  0.09126000  1.0
  F  F144  1  0.22797000  0.58180000  0.03685000  1.0
  F  F145  1  0.89098000  0.42427000  0.81296000  1.0
  F  F146  1  0.94550000  0.38232000  0.76782000  1.0
  F  F147  1  0.82658000  0.48371000  0.70133000  1.0
  F  F148  1  0.88237000  0.44299000  0.65577000  1.0
  F  F149  1  0.82200000  0.51867000  0.30567000  1.0
  F  F150  1  0.88002000  0.55980000  0.34945000  1.0
  F  F151  1  0.88105000  0.57946000  0.19220000  1.0
  F  F152  1  0.93771000  0.62170000  0.23552000  1.0
  F  F153  1  0.10616000  0.42467000  0.18761000  1.0
  F  F154  1  0.05139000  0.38329000  0.23360000  1.0
  F  F155  1  0.17534000  0.48176000  0.29825000  1.0
  F  F156  1  0.11949000  0.44151000  0.34472000  1.0
  F  F157  1  0.11519000  0.57056000  0.80754000  1.0
  F  F158  1  0.05744000  0.61206000  0.76477000  1.0
  F  F159  1  0.18311000  0.52360000  0.69267000  1.0
  F  F160  1  0.12356000  0.56312000  0.64952000  1.0
  F  F161  1  0.58212000  0.17840000  0.88703000  1.0
  F  F162  1  0.62552000  0.22177000  0.94065000  1.0
  F  F163  1  0.51941000  0.30047000  0.83839000  1.0
  F  F164  1  0.56127000  0.34397000  0.89320000  1.0
  F  F165  1  0.47826000  0.70007000  0.83701000  1.0
  F  F166  1  0.43453000  0.65629000  0.89035000  1.0
  F  F167  1  0.42840000  0.82311000  0.89400000  1.0
  F  F168  1  0.38270000  0.77947000  0.94628000  1.0
  F  F169  1  0.50793000  0.70420000  0.15534000  1.0
  F  F170  1  0.54993000  0.65767000  0.10335000  1.0
  F  F171  1  0.58285000  0.82181000  0.10946000  1.0
  F  F172  1  0.62584000  0.77571000  0.05837000  1.0
  F  F173  1  0.45827000  0.18485000  0.08811000  1.0
  F  F174  1  0.41152000  0.22690000  0.03526000  1.0
  F  F175  1  0.43557000  0.29031000  0.18001000  1.0
  F  F176  1  0.39424000  0.33509000  0.12524000  1.0
  F  F177  1  0.80372000  0.11278000  0.54520000  1.0
  F  F178  1  0.76580000  0.05247000  0.58656000  1.0
  F  F179  1  0.67170000  0.18617000  0.54403000  1.0
  F  F180  1  0.63274000  0.12476000  0.58379000  1.0
  F  F181  1  0.19124000  0.09207000  0.46771000  1.0
  F  F182  1  0.23332000  0.03529000  0.42575000  1.0
  F  F183  1  0.30973000  0.18369000  0.45244000  1.0
  F  F184  1  0.35318000  0.12591000  0.41226000  1.0
  F  F185  1  0.33022000  0.82105000  0.53339000  1.0
  F  F186  1  0.36792000  0.88147000  0.57482000  1.0
  F  F187  1  0.19178000  0.87642000  0.56005000  1.0
  F  F188  1  0.22880000  0.93580000  0.60278000  1.0
  F  F189  1  0.69036000  0.81671000  0.44825000  1.0
  F  F190  1  0.64754000  0.87527000  0.40842000  1.0
  F  F191  1  0.81202000  0.90506000  0.46031000  1.0
  F  F192  1  0.77043000  0.96280000  0.41850000  1.0
