# generated using pymatgen
data_H36C55N4
_symmetry_space_group_name_H-M   'P 1'
_cell_length_a   34.56930000
_cell_length_b   34.56930000
_cell_length_c   93.40760000
_cell_angle_alpha   90.00000000
_cell_angle_beta   90.00000000
_cell_angle_gamma   90.00000000
_symmetry_Int_Tables_number   1
_chemical_formula_structural   H36C55N4
_chemical_formula_sum   'H576 C880 N64'
_cell_volume   111625.49160998
_cell_formula_units_Z   16
loop_
 _symmetry_equiv_pos_site_id
 _symmetry_equiv_pos_as_xyz
  1  'x, y, z'
loop_
 _atom_site_type_symbol
 _atom_site_label
 _atom_site_symmetry_multiplicity
 _atom_site_fract_x
 _atom_site_fract_y
 _atom_site_fract_z
 _atom_site_occupancy
  H  25  1  0.30273400  0.74130000  0.04076800  1
  H  26  1  0.23575900  0.73928700  0.04512700  1
  H  27  1  0.11445500  0.67021400  0.04566000  1
  H  28  1  0.07627000  0.61417000  0.04861600  1
  H  29  1  0.17664100  0.54748400  0.05572500  1
  H  30  1  0.30824500  0.61990100  0.04275900  1
  H  31  1  0.23035600  0.57732800  0.02603900  1
  H  32  1  0.31405700  0.48936800  0.03117400  1
  H  33  1  0.31485500  0.50017000  0.05605800  1
  H  34  1  0.21516100  0.66694800  0.07370700  1
  H  35  1  0.26404200  0.55604000  0.09922500  1
  H  36  1  0.24360900  0.61156900  0.11206400  1
  H  39  1  0.17956000  0.69924800  0.05520300  1
  H  40  1  0.18026900  0.69208300  0.03642600  1
  H  42  1  0.26000400  0.51916400  0.07523200  1
  H  43  1  0.30282700  0.54757600  0.07563500  1
  H  68  1  0.70203400  0.26386900  0.04089400  1
  H  69  1  0.76904200  0.26582100  0.04512000  1
  H  70  1  0.89038900  0.33502600  0.04481300  1
  H  71  1  0.92863700  0.39110200  0.04753100  1
  H  72  1  0.82858300  0.45753900  0.05553300  1
  H  73  1  0.69672300  0.38531300  0.04274500  1
  H  74  1  0.77447400  0.42810600  0.02597100  1
  H  75  1  0.69053000  0.51577300  0.03136900  1
  H  76  1  0.69005500  0.50470300  0.05622300  1
  H  77  1  0.79055500  0.33813300  0.07352100  1
  H  78  1  0.74161300  0.44867300  0.09923700  1
  H  79  1  0.76234200  0.39309500  0.11198100  1
  H  82  1  0.82565800  0.30590800  0.05488100  1
  H  83  1  0.82429000  0.31297500  0.03610400  1
  H  85  1  0.74524300  0.48573500  0.07527100  1
  H  86  1  0.70249700  0.45721600  0.07572700  1
  H  111  1  0.74110400  0.70255500  0.96432500  1
  H  112  1  0.73903800  0.76948700  0.95997400  1
  H  113  1  0.66989900  0.89076000  0.95954300  1
  H  114  1  0.61384000  0.92892900  0.95661000  1
  H  115  1  0.54719100  0.82855100  0.94945400  1
  H  116  1  0.61967500  0.69696600  0.96240900  1
  H  117  1  0.57696400  0.77488200  0.97911500  1
  H  118  1  0.48935400  0.69078400  0.97397100  1
  H  119  1  0.50016400  0.69004100  0.94910300  1
  H  120  1  0.66666667  0.79012400  0.93145800  1
  H  121  1  0.55578900  0.74117000  0.90593400  1
  H  122  1  0.61126600  0.76169100  0.89309200  1
  H  125  1  0.69895900  0.82570500  0.94996100  1
  H  126  1  0.69181100  0.82493200  0.96873900  1
  H  128  1  0.51893800  0.74513900  0.92994600  1
  H  129  1  0.54735100  0.70231800  0.92950800  1
  H  154  1  0.26368300  0.30320900  0.96423700  1
  H  155  1  0.26564900  0.23616700  0.95996200  1
  H  156  1  0.33484400  0.11483000  0.96023700  1
  H  157  1  0.39093100  0.07659500  0.95752200  1
  H  158  1  0.45740900  0.17668700  0.94963400  1
  H  159  1  0.38512000  0.30847400  0.96247600  1
  H  160  1  0.42784500  0.23053600  0.97921700  1
  H  161  1  0.51573600  0.31427600  0.97398800  1
  H  162  1  0.50461900  0.31519000  0.94911600  1
  H  163  1  0.33813000  0.21477400  0.93159100  1
  H  164  1  0.44878000  0.26403300  0.90601400  1
  H  165  1  0.39331800  0.24330200  0.89320100  1
  H  168  1  0.30578300  0.17960800  0.95019200  1
  H  169  1  0.31274000  0.18088800  0.96897500  1
  H  171  1  0.48569200  0.26041900  0.92997300  1
  H  172  1  0.45697500  0.30304400  0.92958900  1
  H  197  1  0.20225500  0.74093000  0.71432700  1
  H  198  1  0.26917500  0.73899500  0.70990400  1
  H  199  1  0.39058400  0.67002300  0.70938600  1
  H  200  1  0.42880600  0.61399100  0.70645000  1
  H  201  1  0.32847100  0.54720300  0.69940500  1
  H  202  1  0.19688200  0.61949800  0.71240500  1
  H  203  1  0.27477000  0.57700400  0.72907100  1
  H  204  1  0.19096300  0.48909600  0.72393700  1
  H  205  1  0.19021600  0.49986900  0.69906300  1
  H  206  1  0.28986200  0.66666667  0.68137800  1
  H  207  1  0.24110800  0.55562400  0.65589100  1
  H  208  1  0.26161500  0.61110100  0.64302900  1
  H  211  1  0.32542200  0.69899100  0.69984800  1
  H  212  1  0.32477100  0.69186900  0.71862600  1
  H  214  1  0.24516600  0.51880800  0.67989800  1
  H  215  1  0.20229400  0.54714500  0.67947000  1
  H  240  1  0.80365100  0.26417500  0.71407700  1
  H  241  1  0.73663700  0.26597100  0.70992600  1
  H  242  1  0.61509000  0.33488400  0.71049600  1
  H  243  1  0.57666300  0.39085000  0.70780100  1
  H  244  1  0.67645700  0.45752200  0.69962400  1
  H  245  1  0.80853300  0.38566100  0.71239200  1
  H  246  1  0.73078200  0.42823900  0.72917200  1
  H  247  1  0.81467200  0.51592700  0.72376700  1
  H  248  1  0.81502200  0.50495700  0.69891000  1
  H  249  1  0.71454000  0.33838400  0.68160500  1
  H  250  1  0.76322200  0.44906400  0.65590100  1
  H  251  1  0.74248600  0.39350000  0.64314900  1
  H  254  1  0.67975100  0.30594200  0.70029900  1
  H  255  1  0.68138300  0.31294900  0.71907600  1
  H  257  1  0.75980200  0.48603900  0.67989200  1
  H  258  1  0.80251100  0.45746400  0.67938200  1
  H  283  1  0.76383200  0.70245100  0.79093300  1
  H  284  1  0.76584800  0.76947600  0.79511300  1
  H  285  1  0.83513800  0.89078600  0.79497900  1
  H  286  1  0.89119400  0.92898400  0.79791400  1
  H  287  1  0.95761700  0.82875100  0.80559700  1
  H  288  1  0.88526600  0.69702700  0.79283500  1
  H  289  1  0.92831300  0.77444500  0.77609400  1
  H  290  1  0.01593800  0.69058800  0.78170700  1
  H  291  1  0.00450700  0.69018300  0.80655500  1
  H  292  1  0.83815200  0.79154700  0.82349700  1
  H  293  1  0.94835400  0.74280200  0.84944000  1
  H  294  1  0.89299600  0.76472000  0.86210200  1
  H  297  1  0.80587500  0.82610700  0.80479400  1
  H  298  1  0.81324300  0.82461400  0.78603600  1
  H  300  1  0.98548300  0.74536800  0.82552700  1
  H  301  1  0.95660100  0.70286400  0.82598500  1
  H  326  1  0.24163700  0.30335600  0.79119000  1
  H  327  1  0.23973600  0.23625900  0.79523400  1
  H  328  1  0.17049100  0.11488600  0.79419300  1
  H  329  1  0.11446700  0.07652300  0.79684700  1
  H  330  1  0.04805300  0.17628800  0.80534800  1
  H  331  1  0.12016200  0.30841600  0.79286000  1
  H  332  1  0.07727200  0.23122800  0.77598100  1
  H  333  1  0.98961600  0.31496500  0.78174500  1
  H  334  1  0.00090400  0.31488400  0.80660000  1
  H  335  1  0.16718900  0.21318900  0.82339900  1
  H  336  1  0.05683700  0.26139700  0.84938000  1
  H  337  1  0.11203900  0.23919000  0.86202600  1
  H  340  1  0.19963000  0.17917100  0.80458100  1
  H  341  1  0.19255700  0.18138100  0.78581800  1
  H  343  1  0.01985700  0.25939400  0.82542400  1
  H  344  1  0.04879000  0.30184600  0.82604500  1
  H  369  1  0.80290700  0.24149800  0.54105600  1
  H  370  1  0.73583000  0.23951200  0.54521100  1
  H  371  1  0.61448800  0.17030800  0.54499400  1
  H  372  1  0.57622900  0.11427600  0.54788000  1
  H  373  1  0.67638100  0.04773200  0.55555700  1
  H  374  1  0.80821200  0.12007600  0.54287300  1
  H  375  1  0.73086300  0.07726600  0.52606700  1
  H  376  1  0.81459700  0.98953000  0.53160500  1
  H  377  1  0.81480500  0.00062600  0.55648100  1
  H  378  1  0.71371500  0.16704900  0.57356300  1
  H  379  1  0.76210800  0.05652300  0.59940800  1
  H  380  1  0.74031100  0.11182300  0.61211600  1
  H  383  1  0.67915300  0.19944800  0.55487100  1
  H  384  1  0.68070600  0.19222700  0.53610600  1
  H  386  1  0.75953000  0.01957800  0.57543400  1
  H  387  1  0.80209400  0.04835700  0.57597600  1
  H  412  1  0.20181300  0.76371000  0.54120000  1
  H  413  1  0.26891600  0.76560500  0.54522500  1
  H  414  1  0.39030300  0.83486600  0.54418200  1
  H  415  1  0.42865500  0.89090100  0.54684300  1
  H  416  1  0.32888500  0.95726700  0.55538100  1
  H  417  1  0.19676000  0.88518200  0.54286900  1
  H  418  1  0.27396200  0.92818000  0.52601900  1
  H  419  1  0.19005200  0.01566400  0.53182700  1
  H  420  1  0.19013000  0.00425900  0.55667600  1
  H  421  1  0.29200800  0.83804200  0.57338600  1
  H  422  1  0.24356400  0.94817200  0.59943800  1
  H  423  1  0.26568200  0.89283400  0.61204200  1
  H  426  1  0.32601800  0.80568400  0.55456200  1
  H  427  1  0.32380200  0.81281800  0.53580200  1
  H  429  1  0.24564100  0.98531200  0.57550900  1
  H  430  1  0.20321600  0.95633200  0.57608100  1
  H  455  1  0.24073000  0.20224200  0.46432400  1
  H  456  1  0.23881400  0.26916500  0.45994200  1
  H  457  1  0.16987000  0.39058400  0.45951800  1
  H  458  1  0.11386300  0.42883800  0.45658700  1
  H  459  1  0.04707700  0.32856700  0.44941000  1
  H  460  1  0.11928900  0.19692400  0.46242100  1
  H  461  1  0.07679300  0.27475900  0.47907500  1
  H  462  1  0.98885000  0.19103200  0.47388300  1
  H  463  1  0.99965400  0.19035100  0.44901400  1
  H  464  1  0.16652600  0.28995400  0.43143000  1
  H  465  1  0.05564300  0.24119100  0.40587000  1
  H  466  1  0.11120900  0.26156600  0.39304800  1
  H  469  1  0.19884200  0.32547700  0.44993000  1
  H  470  1  0.19168300  0.32471300  0.46870600  1
  H  472  1  0.01871200  0.24536500  0.42986700  1
  H  473  1  0.04696400  0.20243800  0.42944300  1
  H  498  1  0.76407500  0.80350300  0.46425000  1
  H  499  1  0.76589700  0.73646900  0.45994300  1
  H  500  1  0.83489500  0.61499200  0.46020300  1
  H  501  1  0.89093000  0.57667400  0.45748500  1
  H  502  1  0.95754400  0.67667100  0.44958800  1
  H  503  1  0.88552100  0.80851300  0.46248400  1
  H  504  1  0.92803300  0.73065200  0.47918100  1
  H  505  1  0.01623900  0.81404100  0.47390700  1
  H  506  1  0.00513500  0.81489200  0.44903400  1
  H  507  1  0.83826800  0.71494700  0.43156700  1
  H  508  1  0.94893000  0.76402000  0.40595300  1
  H  509  1  0.89338300  0.74342400  0.39316100  1
  H  512  1  0.80591800  0.67982700  0.45016400  1
  H  513  1  0.81289900  0.68108500  0.46894700  1
  H  515  1  0.98592800  0.76018400  0.42989700  1
  H  516  1  0.95739700  0.80293300  0.42952900  1
  H  541  1  0.70209200  0.24113900  0.21407700  1
  H  542  1  0.76911100  0.23923500  0.20985900  1
  H  543  1  0.89056000  0.17014500  0.21006200  1
  H  544  1  0.92886000  0.11414200  0.20716700  1
  H  545  1  0.82874200  0.04749300  0.19955500  1
  H  546  1  0.69691400  0.11968800  0.21228900  1
  H  547  1  0.77427500  0.07692900  0.22904400  1
  H  548  1  0.69040800  0.98927800  0.22349600  1
  H  549  1  0.69023800  0.00038600  0.19863100  1
  H  550  1  0.79132200  0.16676300  0.18153800  1
  H  551  1  0.74305300  0.05618300  0.15570900  1
  H  552  1  0.76495700  0.11142200  0.14298800  1
  H  555  1  0.82583800  0.19922100  0.20020700  1
  H  556  1  0.82433700  0.19201400  0.21897200  1
  H  558  1  0.74556700  0.01927400  0.17968700  1
  H  559  1  0.70300600  0.04805900  0.17913000  1
  H  584  1  0.30389400  0.76400800  0.21377800  1
  H  585  1  0.23679200  0.76575000  0.20983000  1
  H  586  1  0.11521800  0.83472400  0.21114400  1
  H  587  1  0.07668700  0.89064700  0.20850400  1
  H  588  1  0.17618500  0.95723200  0.19977100  1
  H  589  1  0.30852800  0.88551500  0.21226600  1
  H  590  1  0.23131500  0.92831000  0.22912700  1
  H  591  1  0.31519000  0.01580500  0.22330600  1
  H  592  1  0.31494700  0.00452200  0.19846000  1
  H  593  1  0.21314200  0.83826800  0.18174400  1
  H  594  1  0.26124700  0.94858900  0.15570700  1
  H  595  1  0.23916000  0.89325000  0.14309000  1
  H  598  1  0.17942400  0.80571600  0.20062500  1
  H  599  1  0.18190700  0.81278600  0.21938400  1
  H  601  1  0.25934300  0.98563000  0.17966700  1
  H  602  1  0.30176200  0.95665400  0.17902200  1
  H  627  1  0.26417100  0.20215600  0.29092700  1
  H  628  1  0.26604400  0.26917300  0.29514200  1
  H  629  1  0.33514800  0.39062200  0.29500900  1
  H  630  1  0.39116000  0.42889800  0.29793600  1
  H  631  1  0.45771600  0.32876000  0.30562600  1
  H  632  1  0.38561400  0.19698600  0.29282400  1
  H  633  1  0.42845600  0.27433000  0.27612300  1
  H  634  1  0.51626200  0.19068900  0.28176200  1
  H  635  1  0.50489900  0.19038700  0.30661400  1
  H  636  1  0.33826900  0.29135400  0.32352500  1
  H  637  1  0.44854000  0.24283900  0.34948500  1
  H  638  1  0.39310100  0.26460200  0.36213600  1
  H  641  1  0.30597400  0.32588800  0.30483000  1
  H  642  1  0.31333600  0.32441500  0.28607300  1
  H  644  1  0.48571200  0.24553700  0.32557600  1
  H  645  1  0.45693500  0.20296200  0.32603400  1
  H  670  1  0.74125700  0.80364200  0.29117300  1
  H  671  1  0.73951000  0.73655000  0.29525200  1
  H  672  1  0.67046600  0.61502900  0.29423200  1
  H  673  1  0.61449100  0.57658700  0.29687800  1
  H  674  1  0.54793500  0.67625100  0.30538300  1
  H  675  1  0.61977900  0.80844700  0.29286000  1
  H  676  1  0.57707900  0.73131500  0.27601900  1
  H  677  1  0.48917200  0.81475900  0.28182500  1
  H  678  1  0.50045900  0.81462000  0.30668000  1
  H  679  1  0.66707500  0.71337400  0.32342500  1
  H  680  1  0.55667100  0.76133500  0.34943800  1
  H  681  1  0.61196600  0.73928400  0.36206700  1
  H  684  1  0.69951500  0.67938100  0.30461900  1
  H  685  1  0.69243300  0.68155600  0.28585600  1
  H  687  1  0.51962600  0.75920300  0.32549400  1
  H  688  1  0.54845800  0.80172400  0.32610500  1
  H  695  1  0.91390700  0.46064100  0.07458800  1
  H  704  1  0.03223400  0.51874400  0.08877600  1
  H  705  1  0.96874500  0.49059200  0.08852300  1
  H  706  1  0.08845800  0.54719400  0.07521500  1
  H  708  1  0.88453200  0.45532900  0.02439100  1
  H  709  1  0.93277700  0.44502300  0.01924800  1
  H  710  1  0.91496600  0.49314600  0.01862200  1
  H  712  1  0.07683600  0.52326800  0.01732500  1
  H  713  1  0.12337900  0.52247000  0.02517900  1
  H  714  1  0.09816700  0.56693100  0.02317200  1
  H  721  1  0.46063200  0.09132800  0.93052900  1
  H  730  1  0.51877000  0.97296900  0.91640200  1
  H  731  1  0.49070800  0.03649700  0.91662400  1
  H  732  1  0.54704400  0.91671600  0.92999200  1
  H  734  1  0.45504300  0.12073600  0.98073200  1
  H  735  1  0.44463500  0.07249900  0.98585600  1
  H  736  1  0.49277900  0.09024300  0.98652700  1
  H  738  1  0.52282900  0.92840300  0.98786200  1
  H  739  1  0.52198400  0.88185600  0.98001200  1
  H  740  1  0.56647700  0.90700200  0.98203400  1
  H  747  1  0.59119900  0.46047300  0.68062600  1
  H  756  1  0.47294900  0.51856200  0.66635800  1
  H  757  1  0.53644200  0.49042400  0.66666667  1
  H  758  1  0.41660400  0.54697700  0.67988300  1
  H  760  1  0.62034900  0.45520500  0.73083900  1
  H  761  1  0.57208600  0.44486900  0.73594700  1
  H  762  1  0.58984800  0.49301600  0.73656100  1
  H  764  1  0.42805100  0.52314400  0.73780500  1
  H  765  1  0.38154100  0.52231700  0.72992300  1
  H  766  1  0.40673100  0.56679000  0.73193400  1
  H  773  1  0.04480400  0.09115200  0.82414300  1
  H  782  1  0.98626900  0.97304400  0.83836500  1
  H  783  1  0.01458800  0.03646600  0.83810100  1
  H  784  1  0.95777000  0.91678300  0.82479600  1
  H  786  1  0.05028400  0.12033200  0.77394800  1
  H  787  1  0.06051400  0.07206400  0.76881500  1
  H  788  1  0.01241000  0.08993500  0.76820600  1
  H  790  1  0.98243700  0.92807600  0.76691700  1
  H  791  1  0.98306400  0.88158700  0.77481700  1
  H  792  1  0.93866900  0.90685500  0.77270900  1
  H  799  1  0.41401500  0.96049800  0.57416000  1
  H  808  1  0.53214600  0.01910500  0.58833000  1
  H  809  1  0.46875200  0.99073300  0.58809100  1
  H  810  1  0.58834600  0.04760900  0.57474500  1
  H  812  1  0.38471200  0.95503600  0.52395300  1
  H  813  1  0.43297700  0.94481100  0.51881300  1
  H  814  1  0.41508600  0.99290500  0.51818700  1
  H  816  1  0.57689400  0.02306100  0.51687300  1
  H  817  1  0.62341200  0.02242900  0.52474800  1
  H  818  1  0.59811800  0.06682000  0.52267500  1
  H  825  1  0.96067700  0.59133500  0.43048800  1
  H  834  1  0.01879900  0.47296400  0.41636600  1
  H  835  1  0.99074400  0.53649700  0.41658600  1
  H  836  1  0.04704700  0.41670300  0.42995800  1
  H  838  1  0.95505700  0.62073100  0.48069300  1
  H  839  1  0.94463400  0.57249400  0.48581500  1
  H  840  1  0.99278400  0.59023300  0.48649100  1
  H  842  1  0.02282200  0.42841000  0.48782800  1
  H  843  1  0.02196500  0.38186200  0.47997900  1
  H  844  1  0.06646600  0.40699700  0.48200200  1
  H  851  1  0.09112800  0.96023500  0.18104600  1
  H  860  1  0.97306100  0.01876200  0.16676600  1
  H  861  1  0.03646500  0.99040300  0.16706000  1
  H  862  1  0.91677100  0.04731500  0.18030600  1
  H  864  1  0.12020500  0.95498700  0.23127000  1
  H  865  1  0.07191900  0.94475900  0.23638100  1
  H  866  1  0.08977100  0.99287400  0.23697100  1
  H  868  1  0.92805000  0.02298700  0.23820700  1
  H  869  1  0.88156100  0.02236600  0.23030800  1
  H  870  1  0.90686100  0.06675000  0.23239400  1
  H  877  1  0.54477000  0.59114700  0.32417200  1
  H  886  1  0.48624400  0.47303600  0.33839100  1
  H  887  1  0.51455500  0.53645600  0.33812600  1
  H  888  1  0.45776200  0.41676600  0.32482000  1
  H  890  1  0.55030400  0.62030300  0.27397400  1
  H  891  1  0.56054100  0.57203400  0.26884500  1
  H  892  1  0.51243500  0.58990300  0.26822900  1
  H  894  1  0.48242600  0.42807700  0.26694000  1
  H  895  1  0.48305900  0.38158800  0.27483900  1
  H  896  1  0.43866100  0.40684700  0.27273200  1
  H  903  1  0.16502300  0.68322600  0.10161200  1
  H  912  1  0.12527500  0.78266400  0.13367700  1
  H  913  1  0.12658400  0.73222300  0.11596100  1
  H  914  1  0.16176400  0.82817500  0.15012000  1
  H  916  1  0.30230900  0.66444000  0.09518700  1
  H  917  1  0.31401600  0.67142900  0.11345900  1
  H  918  1  0.31699600  0.71042600  0.10115800  1
  H  920  1  0.31740600  0.79554800  0.15152800  1
  H  921  1  0.29486600  0.81189500  0.16740500  1
  H  922  1  0.30359900  0.84455700  0.15307000  1
  H  929  1  0.84082500  0.32209800  0.10183700  1
  H  938  1  0.87974700  0.22289000  0.13413600  1
  H  939  1  0.87892000  0.27333100  0.11641600  1
  H  940  1  0.84282100  0.17710900  0.15034200  1
  H  942  1  0.70372100  0.34006200  0.09455200  1
  H  943  1  0.69124700  0.33271800  0.11273200  1
  H  944  1  0.68904300  0.29389400  0.10033400  1
  H  946  1  0.68688800  0.20859700  0.15071400  1
  H  947  1  0.70882900  0.19230500  0.16671300  1
  H  948  1  0.70086800  0.15965500  0.15231200  1
  H  955  1  0.68280300  0.84024100  0.90337800  1
  H  964  1  0.78223600  0.87946400  0.87121900  1
  H  965  1  0.73176000  0.87846000  0.88892600  1
  H  966  1  0.82783700  0.84268500  0.85489000  1
  H  968  1  0.66415100  0.70305200  0.91017000  1
  H  969  1  0.67126100  0.69101300  0.89193600  1
  H  970  1  0.71018900  0.68831100  0.90427600  1
  H  972  1  0.79536000  0.68697700  0.85392700  1
  H  973  1  0.81183400  0.70921700  0.83801100  1
  H  974  1  0.84438900  0.70071500  0.85239900  1
  H  981  1  0.32208400  0.16459900  0.90350700  1
  H  990  1  0.22297900  0.12505200  0.87126300  1
  H  991  1  0.27330600  0.12623000  0.88902600  1
  H  992  1  0.17740200  0.16166800  0.85488100  1
  H  994  1  0.34023300  0.30183800  0.91032300  1
  H  995  1  0.33319200  0.31388300  0.89208500  1
  H  996  1  0.29418000  0.31644300  0.90439400  1
  H  998  1  0.20941400  0.31746100  0.85390900  1
  H  999  1  0.19322500  0.29513500  0.83796800  1
  H  1000  1  0.16045800  0.30353600  0.85229700  1
  H  1007  1  0.34014600  0.68285500  0.65347400  1
  H  1016  1  0.37979400  0.78237700  0.62143000  1
  H  1017  1  0.37853300  0.73190500  0.63913400  1
  H  1018  1  0.34326700  0.82788300  0.60499500  1
  H  1020  1  0.20287200  0.66385300  0.65987100  1
  H  1021  1  0.19116600  0.67087400  0.64160200  1
  H  1022  1  0.18813900  0.70983900  0.65391500  1
  H  1024  1  0.18765000  0.79506200  0.60355800  1
  H  1025  1  0.21018800  0.81151300  0.58769500  1
  H  1026  1  0.20139100  0.84409700  0.60204900  1
  H  1033  1  0.66415100  0.32238500  0.65326200  1
  H  1042  1  0.62538200  0.22316900  0.62094000  1
  H  1043  1  0.62612600  0.27359200  0.63866800  1
  H  1044  1  0.66239500  0.17744300  0.60473700  1
  H  1046  1  0.80122900  0.34047900  0.66057800  1
  H  1047  1  0.81372900  0.33317500  0.64239700  1
  H  1048  1  0.81595300  0.29433400  0.65478800  1
  H  1050  1  0.81827000  0.20914900  0.60439600  1
  H  1051  1  0.79637800  0.19282200  0.58839300  1
  H  1052  1  0.80436800  0.16018600  0.60279500  1
  H  1059  1  0.18274200  0.34007100  0.40334900  1
  H  1068  1  0.28223900  0.37927900  0.37121800  1
  H  1069  1  0.23172300  0.37827800  0.38890800  1
  H  1070  1  0.32788400  0.34250700  0.35490800  1
  H  1072  1  0.16403900  0.20289100  0.41013900  1
  H  1073  1  0.17121900  0.19084200  0.39190900  1
  H  1074  1  0.21010000  0.18813900  0.40426900  1
  H  1076  1  0.29551400  0.18677900  0.35396600  1
  H  1077  1  0.31200300  0.20900900  0.33804800  1
  H  1078  1  0.34453400  0.20055400  0.35244800  1
  H  1085  1  0.82215800  0.66477000  0.40348200  1
  H  1094  1  0.72299800  0.62522600  0.37126300  1
  H  1095  1  0.77336300  0.62640300  0.38901000  1
  H  1096  1  0.67737600  0.66183100  0.35489800  1
  H  1098  1  0.84033600  0.80200200  0.41029600  1
  H  1099  1  0.83323200  0.81405300  0.39206200  1
  H  1100  1  0.79426400  0.81661000  0.40438900  1
  H  1102  1  0.70927800  0.81764600  0.35394300  1
  H  1103  1  0.69307500  0.79532800  0.33800200  1
  H  1104  1  0.66033000  0.80367900  0.35234300  1
  H  1111  1  0.47572900  0.78040700  0.98297100  1
  H  1120  1  0.34970100  0.76341200  0.99928000  1
  H  1121  1  0.40687900  0.78733800  0.98797600  1
  H  1122  1  0.31885600  0.71996300  0.01628900  1
  H  1124  1  0.57428500  0.69452800  0.99904800  1
  H  1125  1  0.54192700  0.65622800  0.00300700  1
  H  1126  1  0.55845300  0.68738800  0.01682300  1
  H  1128  1  0.42127600  0.63858800  0.04940000  1
  H  1129  1  0.37673100  0.61574100  0.04572600  1
  H  1130  1  0.37849800  0.65632000  0.05743100  1
  H  1137  1  0.52917800  0.22454400  0.98304600  1
  H  1146  1  0.65511700  0.24145200  0.99942500  1
  H  1147  1  0.59793300  0.21744300  0.98814900  1
  H  1148  1  0.68596800  0.28503300  0.01637300  1
  H  1150  1  0.43066600  0.31079100  0.99895600  1
  H  1151  1  0.46308500  0.34908800  0.00285900  1
  H  1152  1  0.44644900  0.31814400  0.01672300  1
  H  1154  1  0.58362000  0.36686600  0.04935200  1
  H  1155  1  0.62820800  0.38960600  0.04565800  1
  H  1156  1  0.62635400  0.34914300  0.05741700  1
  H  1163  1  0.78007800  0.52944400  0.02222600  1
  H  1172  1  0.76350200  0.65545500  0.00578000  1
  H  1173  1  0.78732700  0.59826600  0.01711100  1
  H  1174  1  0.71999500  0.68632700  0.98880000  1
  H  1176  1  0.69396300  0.43103900  0.00623100  1
  H  1177  1  0.65571300  0.46345200  0.00227000  1
  H  1178  1  0.68684700  0.44686500  0.98845800  1
  H  1180  1  0.63802600  0.58397800  0.95586600  1
  H  1181  1  0.61529500  0.62856400  0.95956100  1
  H  1182  1  0.65572400  0.62669800  0.94778500  1
  H  1189  1  0.22436800  0.47624100  0.02210600  1
  H  1198  1  0.24107500  0.35018100  0.00570300  1
  H  1199  1  0.21719100  0.40739100  0.01699900  1
  H  1200  1  0.28464700  0.31926300  0.98875600  1
  H  1202  1  0.31069500  0.57456800  0.00620300  1
  H  1203  1  0.34900400  0.54218400  0.00228000  1
  H  1204  1  0.31798800  0.55878300  0.98843200  1
  H  1206  1  0.36687500  0.42152500  0.95587400  1
  H  1207  1  0.38954600  0.37691900  0.95959300  1
  H  1208  1  0.34918000  0.37880800  0.94778700  1
  H  1215  1  0.02986300  0.77993600  0.77238400  1
  H  1224  1  0.15569500  0.76314100  0.75586700  1
  H  1225  1  0.09861000  0.78699700  0.76725700  1
  H  1226  1  0.18640500  0.71965400  0.73884700  1
  H  1228  1  0.93126100  0.69376700  0.75655800  1
  H  1229  1  0.96365400  0.65551900  0.75257200  1
  H  1230  1  0.94690500  0.68658100  0.73876400  1
  H  1232  1  0.08376100  0.63797100  0.70594200  1
  H  1233  1  0.12837500  0.61520000  0.70956500  1
  H  1234  1  0.12642700  0.65573000  0.69783900  1
  H  1241  1  0.97582400  0.22568300  0.77235900  1
  H  1250  1  0.85006700  0.24185000  0.75566400  1
  H  1251  1  0.90718200  0.21819600  0.76709600  1
  H  1252  1  0.81929200  0.28524000  0.73862400  1
  H  1254  1  0.07422100  0.31231800  0.75660300  1
  H  1255  1  0.04168400  0.35047000  0.75264900  1
  H  1256  1  0.05856900  0.31956100  0.73881500  1
  H  1258  1  0.92179900  0.36783000  0.70596900  1
  H  1259  1  0.87701000  0.39029200  0.70955900  1
  H  1260  1  0.87932500  0.34989800  0.69777900  1
  H  1267  1  0.72514100  0.52953100  0.73289100  1
  H  1276  1  0.74156400  0.65549900  0.74942000  1
  H  1277  1  0.71782000  0.59833800  0.73805000  1
  H  1278  1  0.78499500  0.68633800  0.76643000  1
  H  1280  1  0.81131900  0.43111700  0.74888500  1
  H  1281  1  0.84955500  0.46353900  0.75285800  1
  H  1282  1  0.81841200  0.44692000  0.76666400  1
  H  1284  1  0.86697600  0.58397000  0.79934700  1
  H  1285  1  0.88966900  0.62859300  0.79567800  1
  H  1286  1  0.84920800  0.62664900  0.80743700  1
  H  1293  1  0.28047800  0.47584800  0.73301500  1
  H  1302  1  0.26387800  0.34992700  0.74956200  1
  H  1303  1  0.28765400  0.40704400  0.73816800  1
  H  1304  1  0.22049000  0.31915900  0.76660900  1
  H  1306  1  0.19440200  0.57434300  0.74891800  1
  H  1307  1  0.15611900  0.54200800  0.75292800  1
  H  1308  1  0.18728100  0.55869300  0.76671700  1
  H  1310  1  0.13840700  0.42165200  0.79944100  1
  H  1311  1  0.11581900  0.37694500  0.79581400  1
  H  1312  1  0.15627000  0.37906500  0.80757200  1
  H  1319  1  0.97548800  0.28051100  0.48301400  1
  H  1328  1  0.84960200  0.26377600  0.49950600  1
  H  1329  1  0.90671600  0.28759100  0.48812600  1
  H  1330  1  0.81883500  0.22033600  0.51653200  1
  H  1332  1  0.07401700  0.19432400  0.49889200  1
  H  1333  1  0.04161300  0.15607800  0.50287200  1
  H  1334  1  0.05835100  0.18713700  0.51668400  1
  H  1336  1  0.92135600  0.13847100  0.54942800  1
  H  1337  1  0.87670700  0.11578000  0.54579600  1
  H  1338  1  0.87871400  0.15627800  0.55753500  1
  H  1345  1  0.02944100  0.72446200  0.48309300  1
  H  1354  1  0.15523300  0.74115900  0.49965300  1
  H  1355  1  0.09812100  0.71724100  0.48830200  1
  H  1356  1  0.18599400  0.78472900  0.51662400  1
  H  1358  1  0.93092800  0.81097500  0.49880600  1
  H  1359  1  0.96337900  0.84922900  0.50273100  1
  H  1360  1  0.94654300  0.81837700  0.51659000  1
  H  1362  1  0.08351500  0.86701900  0.54938600  1
  H  1363  1  0.12821500  0.88960000  0.54574300  1
  H  1364  1  0.12610700  0.84921100  0.55753000  1
  H  1371  1  0.27933600  0.02961600  0.52244200  1
  H  1380  1  0.26299800  0.15551500  0.50584200  1
  H  1381  1  0.28669100  0.09838300  0.51725000  1
  H  1382  1  0.21957100  0.18631400  0.48882000  1
  H  1384  1  0.19295500  0.93123800  0.50659900  1
  H  1385  1  0.15475300  0.96369400  0.50262500  1
  H  1386  1  0.18580600  0.94694800  0.48881300  1
  H  1388  1  0.13732300  0.08383100  0.45603900  1
  H  1389  1  0.11471300  0.12851900  0.45966600  1
  H  1390  1  0.15513600  0.12641600  0.44789400  1
  H  1397  1  0.72518500  0.97608700  0.52232700  1
  H  1406  1  0.74166800  0.85012200  0.50578600  1
  H  1407  1  0.71791500  0.90728000  0.51715700  1
  H  1408  1  0.78513400  0.81927400  0.48878900  1
  H  1410  1  0.81169800  0.07440300  0.50652400  1
  H  1411  1  0.84996000  0.04198000  0.50258500  1
  H  1412  1  0.81899400  0.05870400  0.48874200  1
  H  1414  1  0.86754000  0.92166000  0.45601800  1
  H  1415  1  0.89010600  0.87696100  0.45967100  1
  H  1416  1  0.84972000  0.87906700  0.44788100  1
  H  1423  1  0.53003200  0.27991100  0.27236000  1
  H  1432  1  0.65575000  0.26338300  0.25568900  1
  H  1433  1  0.59872000  0.28711000  0.26714900  1
  H  1434  1  0.68640500  0.21995800  0.23863700  1
  H  1436  1  0.43145600  0.19355100  0.25664900  1
  H  1437  1  0.46388300  0.15535600  0.25263600  1
  H  1438  1  0.44698100  0.18638100  0.23884000  1
  H  1440  1  0.58368600  0.13793100  0.20588200  1
  H  1441  1  0.62839400  0.11529200  0.20946300  1
  H  1442  1  0.62623900  0.15578000  0.19772300  1
  H  1449  1  0.47556100  0.72562200  0.27232600  1
  H  1458  1  0.34995800  0.74159200  0.25544900  1
  H  1459  1  0.40698900  0.71803100  0.26696100  1
  H  1460  1  0.31928100  0.78495500  0.23837900  1
  H  1462  1  0.57398100  0.81246500  0.25674600  1
  H  1463  1  0.54142300  0.85057900  0.25276300  1
  H  1464  1  0.55849000  0.81973700  0.23894000  1
  H  1466  1  0.42193600  0.86793600  0.20592600  1
  H  1467  1  0.37703700  0.89025100  0.20946100  1
  H  1468  1  0.37960300  0.84991400  0.19766200  1
  H  1475  1  0.22595400  0.02970400  0.23265000  1
  H  1484  1  0.24210200  0.15556600  0.24933600  1
  H  1485  1  0.21851700  0.09846000  0.23788100  1
  H  1486  1  0.28541300  0.18633300  0.26640200  1
  H  1488  1  0.31233000  0.93130700  0.24853700  1
  H  1489  1  0.35051400  0.96376400  0.25253400  1
  H  1490  1  0.31941100  0.94700900  0.26632800  1
  H  1492  1  0.36760700  0.08383100  0.29919100  1
  H  1493  1  0.39019100  0.12855200  0.29559100  1
  H  1494  1  0.34971500  0.12638100  0.30733800  1
  H  1501  1  0.77964100  0.97566500  0.23277800  1
  H  1510  1  0.76326500  0.84984200  0.24946200  1
  H  1511  1  0.78689900  0.90690100  0.23799000  1
  H  1512  1  0.72000100  0.81914700  0.26656800  1
  H  1514  1  0.69343100  0.07416900  0.24860000  1
  H  1515  1  0.65518600  0.04181300  0.25262800  1
  H  1516  1  0.68632400  0.05860100  0.26640800  1
  H  1518  1  0.63778100  0.92177600  0.29929800  1
  H  1519  1  0.61528700  0.87698200  0.29573900  1
  H  1520  1  0.65576500  0.87931000  0.30747700  1
  C  1  1  0.23605300  0.60958800  0.07042000  1
  C  2  1  0.25197800  0.57846800  0.07845800  1
  C  3  1  0.27398100  0.54619100  0.05598500  1
  C  4  1  0.25083000  0.57108500  0.04738800  1
  C  5  1  0.24881700  0.56205700  0.03245900  1
  C  6  1  0.27164400  0.53212000  0.02626500  1
  C  7  1  0.29794700  0.51193200  0.03509900  1
  C  8  1  0.29806500  0.51788500  0.04981800  1
  C  9  1  0.25219600  0.57855700  0.09358700  1
  C  10  1  0.24011800  0.61113800  0.10116800  1
  C  11  1  0.22800300  0.64435900  0.09373000  1
  C  12  1  0.22441800  0.64253600  0.07865500  1
  C  13  1  0.25280200  0.64288900  0.04784800  1
  C  14  1  0.23171300  0.67808800  0.04667500  1
  C  15  1  0.16886400  0.64244100  0.04845600  1
  C  16  1  0.18824600  0.60690100  0.05140500  1
  C  17  1  0.12821200  0.64448000  0.04762800  1
  C  18  1  0.10573200  0.61147400  0.04948700  1
  C  19  1  0.12310900  0.57529200  0.05213000  1
  C  20  1  0.16415800  0.57354100  0.05339900  1
  C  21  1  0.29284700  0.64487900  0.04379700  1
  C  22  1  0.31124800  0.68027500  0.03990300  1
  C  23  1  0.29052400  0.71477700  0.04267300  1
  C  24  1  0.25087200  0.71377300  0.04523700  1
  C  37  1  0.23210100  0.60710000  0.05401700  1
  C  38  1  0.18914300  0.67965600  0.04670600  1
  C  41  1  0.27296600  0.54644500  0.07170600  1
  C  44  1  0.76942100  0.39544400  0.07032700  1
  C  45  1  0.75345600  0.42642800  0.07842600  1
  C  46  1  0.73106600  0.45880900  0.05602500  1
  C  47  1  0.75419000  0.43405600  0.04736100  1
  C  48  1  0.75600700  0.44322300  0.03244000  1
  C  49  1  0.73300100  0.47314600  0.02633200  1
  C  50  1  0.70669400  0.49314900  0.03521500  1
  C  51  1  0.70683900  0.48711200  0.04993100  1
  C  52  1  0.75348500  0.42624900  0.09355600  1
  C  53  1  0.76575300  0.39364700  0.10108200  1
  C  54  1  0.77790500  0.36054000  0.09358700  1
  C  55  1  0.78128400  0.36248100  0.07850900  1
  C  56  1  0.75218600  0.36225800  0.04778100  1
  C  57  1  0.77320700  0.32702800  0.04657600  1
  C  58  1  0.83610400  0.36268600  0.04804600  1
  C  59  1  0.81683300  0.39818600  0.05116100  1
  C  60  1  0.87670400  0.36071900  0.04691300  1
  C  61  1  0.89922400  0.39376300  0.04861000  1
  C  62  1  0.88196600  0.42987000  0.05149400  1
  C  63  1  0.84099300  0.43151600  0.05309800  1
  C  64  1  0.71211300  0.36032300  0.04376300  1
  C  65  1  0.69361900  0.32492700  0.03993100  1
  C  66  1  0.71427300  0.29041100  0.04273900  1
  C  67  1  0.75397600  0.29136300  0.04520500  1
  C  80  1  0.77303900  0.39800700  0.05391500  1
  C  81  1  0.81577700  0.32545700  0.04641800  1
  C  84  1  0.73230100  0.45844500  0.07174300  1
  C  87  1  0.60931600  0.76918100  0.93474200  1
  C  88  1  0.57823900  0.75316900  0.92670100  1
  C  89  1  0.54603100  0.73108300  0.94917500  1
  C  90  1  0.57083100  0.75434400  0.95776800  1
  C  91  1  0.56177700  0.75634500  0.97269700  1
  C  92  1  0.53191200  0.73342000  0.97888800  1
  C  93  1  0.51190300  0.70695500  0.97006600  1
  C  94  1  0.51777800  0.70694000  0.95534100  1
  C  95  1  0.57831700  0.75300100  0.91157200  1
  C  96  1  0.61081700  0.76527500  0.90398400  1
  C  97  1  0.64403200  0.77732700  0.91143400  1
  C  98  1  0.64224400  0.78087300  0.92650900  1
  C  99  1  0.64262900  0.75241700  0.95731500  1
  C  100  1  0.67783100  0.77351700  0.95847000  1
  C  101  1  0.64215400  0.83635000  0.95671700  1
  C  102  1  0.60661400  0.81696000  0.95376800  1
  C  103  1  0.64417100  0.87699900  0.95756700  1
  C  104  1  0.61115900  0.89947300  0.95571500  1
  C  105  1  0.57498800  0.88208700  0.95306000  1
  C  106  1  0.57324900  0.84103900  0.95178000  1
  C  107  1  0.64464500  0.71236700  0.96135900  1
  C  108  1  0.68006100  0.69399500  0.96525000  1
  C  109  1  0.71454000  0.71471900  0.96245200  1
  C  110  1  0.71352700  0.75436700  0.95988100  1
  C  123  1  0.60683100  0.77310900  0.95114600  1
  C  124  1  0.67937800  0.81608600  0.95845600  1
  C  127  1  0.54623100  0.73216500  0.93345500  1
  C  130  1  0.39540000  0.23594900  0.93485200  1
  C  131  1  0.42644000  0.25195700  0.92679200  1
  C  132  1  0.45869100  0.27421800  0.94923800  1
  C  133  1  0.43389100  0.25102500  0.95785900  1
  C  134  1  0.44302100  0.24903500  0.97278100  1
  C  135  1  0.47309700  0.27178700  0.97892100  1
  C  136  1  0.49313200  0.29818100  0.97008500  1
  C  137  1  0.48702200  0.29833200  0.95537600  1
  C  138  1  0.42635600  0.25204600  0.91166200  1
  C  139  1  0.39380100  0.23982600  0.90409800  1
  C  140  1  0.36065300  0.22761900  0.91155700  1
  C  141  1  0.36249600  0.22410600  0.92663300  1
  C  142  1  0.36209600  0.25304400  0.95738700  1
  C  143  1  0.32685700  0.23201900  0.95854900  1
  C  144  1  0.36252400  0.16913200  0.95706600  1
  C  145  1  0.39803000  0.18841200  0.95397600  1
  C  146  1  0.36054900  0.12852600  0.95816600  1
  C  147  1  0.39359800  0.10601400  0.95647100  1
  C  148  1  0.42972600  0.12328800  0.95363300  1
  C  149  1  0.43137800  0.16426900  0.95205400  1
  C  150  1  0.36012600  0.29311900  0.96140200  1
  C  151  1  0.32471300  0.31155400  0.96525300  1
  C  152  1  0.29020600  0.29093500  0.96239100  1
  C  153  1  0.29118400  0.25124800  0.95989700  1
  C  166  1  0.39787400  0.23222500  0.95126100  1
  C  167  1  0.32528300  0.18945000  0.95867700  1
  C  170  1  0.45833800  0.27319300  0.93351900  1
  C  173  1  0.26902500  0.60924700  0.68468200  1
  C  174  1  0.25308900  0.57812100  0.67664900  1
  C  175  1  0.23109500  0.54587800  0.69912900  1
  C  176  1  0.25428700  0.57075600  0.70771900  1
  C  177  1  0.25629400  0.56175100  0.72265100  1
  C  178  1  0.23342700  0.53183700  0.72883600  1
  C  179  1  0.20700400  0.51172900  0.72003100  1
  C  180  1  0.20703400  0.51755800  0.70530200  1
  C  181  1  0.25289100  0.57819300  0.66152000  1
  C  182  1  0.26519500  0.61066100  0.65392100  1
  C  183  1  0.27720800  0.64391900  0.66135900  1
  C  184  1  0.28066300  0.64217800  0.67643700  1
  C  185  1  0.25226400  0.64255600  0.70725700  1
  C  186  1  0.27331300  0.67779000  0.70840100  1
  C  187  1  0.33619200  0.64220600  0.70661100  1
  C  188  1  0.31683400  0.60663200  0.70369300  1
  C  189  1  0.37684400  0.64427500  0.70743000  1
  C  190  1  0.39934600  0.61128000  0.70557600  1
  C  191  1  0.38198700  0.57508000  0.70295500  1
  C  192  1  0.34093900  0.57328700  0.70170900  1
  C  193  1  0.21226200  0.64448900  0.71136700  1
  C  194  1  0.19383600  0.67987000  0.71525600  1
  C  195  1  0.21446100  0.71439500  0.71244000  1
  C  196  1  0.25411100  0.71344900  0.70986000  1
  C  209  1  0.27297900  0.60678200  0.70108500  1
  C  210  1  0.31588200  0.67940700  0.70835300  1
  C  213  1  0.23214900  0.54608100  0.68340900  1
  C  216  1  0.73564800  0.39569800  0.68480900  1
  C  217  1  0.75147700  0.42675500  0.67671100  1
  C  218  1  0.77407200  0.45901800  0.69911100  1
  C  219  1  0.75099100  0.43423600  0.70777700  1
  C  220  1  0.74923800  0.44336200  0.72270200  1
  C  221  1  0.77231100  0.47321500  0.72882100  1
  C  222  1  0.79858000  0.49324800  0.71992700  1
  C  223  1  0.79833700  0.48728800  0.70520500  1
  C  224  1  0.75139600  0.42661300  0.66158200  1
  C  225  1  0.73911900  0.39402100  0.65405000  1
  C  226  1  0.72703300  0.36087800  0.66153900  1
  C  227  1  0.72375300  0.36275900  0.67662100  1
  C  228  1  0.75316600  0.36246400  0.70731100  1
  C  229  1  0.73227200  0.32716100  0.70850500  1
  C  230  1  0.66926800  0.36267800  0.70717700  1
  C  231  1  0.68840600  0.39823200  0.70403800  1
  C  232  1  0.62868900  0.36061500  0.70837900  1
  C  233  1  0.60606200  0.39359300  0.70669600  1
  C  234  1  0.62319200  0.42973400  0.70376600  1
  C  235  1  0.66414200  0.43148500  0.70210600  1
  C  236  1  0.79324500  0.36062400  0.71131600  1
  C  237  1  0.81187200  0.32524900  0.71508200  1
  C  238  1  0.79140000  0.29067400  0.71217700  1
  C  239  1  0.75164800  0.29154500  0.70978900  1
  C  252  1  0.73216500  0.39817800  0.70122500  1
  C  253  1  0.68971100  0.32548600  0.70875100  1
  C  256  1  0.77273300  0.45871700  0.68339300  1
  C  259  1  0.89534800  0.77000800  0.82040100  1
  C  260  1  0.92621900  0.75411800  0.82857600  1
  C  261  1  0.95869600  0.73128000  0.80624800  1
  C  262  1  0.93407600  0.75437000  0.79751700  1
  C  263  1  0.94339300  0.75606500  0.78260700  1
  C  264  1  0.97350700  0.73314900  0.77658300  1
  C  265  1  0.99336000  0.70687100  0.78552100  1
  C  266  1  0.98704500  0.70698400  0.80022100  1
  C  267  1  0.92599000  0.75460700  0.84370800  1
  C  268  1  0.89361200  0.76770800  0.85118600  1
  C  269  1  0.86068400  0.77996200  0.84362100  1
  C  270  1  0.86245700  0.78231700  0.82852100  1
  C  271  1  0.86224300  0.75250100  0.79785600  1
  C  272  1  0.82705600  0.77357200  0.79659400  1
  C  273  1  0.86278100  0.83643100  0.79807300  1
  C  274  1  0.89825800  0.81710800  0.80118000  1
  C  275  1  0.86082300  0.87705700  0.79705700  1
  C  276  1  0.89382900  0.89954800  0.79890500  1
  C  277  1  0.92993000  0.88220000  0.80171600  1
  C  278  1  0.93161700  0.84119500  0.80315200  1
  C  279  1  0.86027900  0.71241900  0.79385100  1
  C  280  1  0.82488300  0.69398700  0.78997900  1
  C  281  1  0.79038100  0.71466100  0.79278800  1
  C  282  1  0.79137100  0.75437800  0.79522500  1
  C  295  1  0.89799700  0.77334600  0.80398600  1
  C  296  1  0.82554900  0.81614400  0.79638200  1
  C  299  1  0.95812600  0.73261900  0.82196800  1
  C  302  1  0.11001500  0.23477500  0.82031300  1
  C  303  1  0.07908300  0.25048200  0.82850600  1
  C  304  1  0.04680600  0.27389500  0.80621700  1
  C  305  1  0.07145500  0.25096100  0.79744300  1
  C  306  1  0.06219500  0.24953000  0.78252600  1
  C  307  1  0.03226700  0.27270300  0.77651500  1
  C  308  1  0.01222300  0.29865800  0.78552700  1
  C  309  1  0.01843700  0.29824800  0.80023400  1
  C  310  1  0.07916300  0.24956400  0.84363600  1
  C  311  1  0.11148000  0.23626800  0.85110700  1
  C  312  1  0.14447800  0.22419800  0.84353900  1
  C  313  1  0.14284800  0.22230200  0.82842800  1
  C  314  1  0.14326900  0.25295000  0.79786200  1
  C  315  1  0.17852500  0.23199600  0.79660600  1
  C  316  1  0.14283400  0.16905400  0.79768500  1
  C  317  1  0.10733400  0.18820000  0.80090500  1
  C  318  1  0.14480100  0.12849500  0.79636600  1
  C  319  1  0.11179300  0.10590400  0.79803200  1
  C  320  1  0.07571500  0.12305000  0.80105400  1
  C  321  1  0.07404600  0.16397100  0.80280500  1
  C  322  1  0.14517400  0.29309300  0.79393400  1
  C  323  1  0.18057800  0.31166100  0.79016100  1
  C  324  1  0.21510200  0.29105900  0.79300300  1
  C  325  1  0.21418200  0.25130300  0.79535900  1
  C  338  1  0.10751200  0.23187500  0.80388500  1
  C  339  1  0.18008000  0.18943700  0.79618200  1
  C  342  1  0.04725600  0.27218900  0.82193400  1
  C  345  1  0.73512700  0.10982900  0.57041300  1
  C  346  1  0.75089000  0.07883200  0.57855900  1
  C  347  1  0.77382600  0.04654000  0.55620800  1
  C  348  1  0.75082900  0.07128000  0.54749300  1
  C  349  1  0.74920600  0.06210800  0.53257100  1
  C  350  1  0.77223200  0.03215000  0.52649800  1
  C  351  1  0.79836300  0.01211100  0.53544700  1
  C  352  1  0.79813700  0.01824100  0.55015800  1
  C  353  1  0.75031400  0.07892100  0.59369100  1
  C  354  1  0.73734300  0.11130400  0.60119800  1
  C  355  1  0.72521100  0.14433400  0.59366900  1
  C  356  1  0.72286800  0.14268100  0.57856500  1
  C  357  1  0.75274400  0.14309800  0.54791000  1
  C  358  1  0.73170200  0.17830800  0.54667700  1
  C  359  1  0.66881100  0.14260000  0.54808400  1
  C  360  1  0.68810000  0.10708500  0.55116400  1
  C  361  1  0.62819100  0.14460000  0.54705600  1
  C  362  1  0.60566200  0.11160600  0.54887700  1
  C  363  1  0.62296400  0.07547900  0.55168300  1
  C  364  1  0.66396600  0.07375200  0.55312100  1
  C  365  1  0.79284300  0.14506600  0.54393100  1
  C  366  1  0.81132800  0.18047600  0.54010900  1
  C  367  1  0.79064200  0.21497900  0.54291700  1
  C  368  1  0.75093000  0.21399200  0.54536300  1
  C  381  1  0.73184700  0.10731400  0.55399400  1
  C  382  1  0.68913300  0.17983600  0.54644300  1
  C  385  1  0.77236800  0.04694200  0.57192700  1
  C  388  1  0.27036400  0.89520900  0.57033300  1
  C  389  1  0.25459300  0.92607400  0.57854500  1
  C  390  1  0.23124500  0.95847000  0.55627000  1
  C  391  1  0.25421700  0.93388500  0.54748500  1
  C  392  1  0.25564100  0.94320200  0.53257300  1
  C  393  1  0.23246600  0.97317100  0.52659000  1
  C  394  1  0.20640600  0.99307900  0.53559900  1
  C  395  1  0.20680800  0.98679000  0.55030100  1
  C  396  1  0.25539400  0.92587800  0.59367500  1
  C  397  1  0.26856900  0.89347300  0.60112200  1
  C  398  1  0.28076100  0.86055700  0.59353600  1
  C  399  1  0.28285400  0.86234400  0.57842900  1
  C  400  1  0.25223500  0.86206900  0.54786000  1
  C  401  1  0.27318900  0.82681600  0.54659500  1
  C  402  1  0.33613400  0.86250600  0.54769100  1
  C  403  1  0.31698100  0.89798900  0.55093100  1
  C  404  1  0.37669000  0.86054800  0.54636700  1
  C  405  1  0.39927400  0.89356300  0.54803200  1
  C  406  1  0.38212300  0.92963500  0.55106100  1
  C  407  1  0.34120800  0.93128100  0.55283300  1
  C  408  1  0.21211000  0.86017200  0.54390800  1
  C  409  1  0.19351700  0.82477000  0.54015100  1
  C  410  1  0.21411500  0.79024600  0.54300200  1
  C  411  1  0.25387600  0.79116300  0.54534900  1
  C  424  1  0.27330100  0.89780100  0.55390800  1
  C  425  1  0.31574900  0.82526200  0.54617200  1
  C  428  1  0.23288800  0.95792100  0.57198700  1
  C  431  1  0.10914100  0.26910700  0.43469900  1
  C  432  1  0.07805200  0.25317000  0.42664600  1
  C  433  1  0.04569000  0.23120700  0.44910800  1
  C  434  1  0.07057400  0.25433800  0.45771600  1
  C  435  1  0.06152500  0.25632100  0.47264500  1
  C  436  1  0.03158200  0.23347200  0.47882500  1
  C  437  1  0.01144900  0.20714500  0.46998600  1
  C  438  1  0.01732800  0.20716500  0.45526100  1
  C  439  1  0.07818300  0.25297000  0.41151600  1
  C  440  1  0.11073600  0.26515500  0.40393900  1
  C  441  1  0.14394800  0.27716800  0.41140100  1
  C  442  1  0.14211600  0.28073100  0.42647500  1
  C  443  1  0.14237500  0.25228900  0.45727900  1
  C  444  1  0.17761400  0.27332100  0.45843600  1
  C  445  1  0.14204800  0.33621800  0.45668200  1
  C  446  1  0.10648000  0.31688600  0.45372800  1
  C  447  1  0.14412500  0.37686400  0.45753700  1
  C  448  1  0.11114300  0.39938400  0.45568800  1
  C  449  1  0.07495000  0.38205300  0.45302700  1
  C  450  1  0.07315300  0.34101400  0.45173900  1
  C  451  1  0.14429400  0.21226100  0.46135600  1
  C  452  1  0.17966700  0.19383400  0.46525800  1
  C  453  1  0.21419400  0.21445400  0.46244000  1
  C  454  1  0.21327100  0.25409900  0.45985100  1
  C  467  1  0.10662300  0.27303700  0.45110200  1
  C  468  1  0.17923900  0.31589100  0.45842300  1
  C  471  1  0.04594500  0.23228900  0.43338700  1
  C  474  1  0.89558200  0.73603300  0.43481100  1
  C  475  1  0.92662700  0.75198600  0.42674200  1
  C  476  1  0.95904600  0.77409500  0.44917600  1
  C  477  1  0.93417100  0.75101700  0.45780900  1
  C  478  1  0.94328900  0.74905600  0.47273300  1
  C  479  1  0.97343700  0.77173500  0.47886300  1
  C  480  1  0.99358800  0.79799800  0.47001200  1
  C  481  1  0.98748100  0.79811100  0.45530100  1
  C  482  1  0.92647100  0.75213700  0.41161200  1
  C  483  1  0.89388400  0.73995500  0.40405700  1
  C  484  1  0.86074500  0.72778300  0.41152700  1
  C  485  1  0.86263100  0.72425600  0.42660200  1
  C  486  1  0.86237300  0.75315800  0.45736200  1
  C  487  1  0.82709300  0.73220000  0.45852200  1
  C  488  1  0.86265100  0.66925400  0.45702800  1
  C  489  1  0.89818500  0.68847900  0.45393500  1
  C  490  1  0.86061700  0.62864800  0.45812800  1
  C  491  1  0.89363800  0.60609100  0.45643200  1
  C  492  1  0.92978300  0.62331400  0.45358800  1
  C  493  1  0.93149500  0.66429000  0.45200900  1
  C  494  1  0.86049600  0.79321600  0.46140000  1
  C  495  1  0.82512600  0.81170700  0.46526600  1
  C  496  1  0.79057000  0.79118000  0.46238900  1
  C  497  1  0.79146000  0.75149700  0.45987800  1
  C  510  1  0.89809900  0.73228900  0.45122100  1
  C  511  1  0.82544400  0.68963300  0.45864700  1
  C  514  1  0.95864100  0.77307700  0.43345600  1
  C  517  1  0.76997300  0.10952600  0.18469700  1
  C  518  1  0.75422200  0.07852300  0.17655200  1
  C  519  1  0.73124500  0.04627100  0.19890600  1
  C  520  1  0.75429500  0.07097100  0.20761700  1
  C  521  1  0.75591400  0.06180000  0.22254000  1
  C  522  1  0.73284200  0.03186500  0.22859900  1
  C  523  1  0.70657900  0.01192700  0.21967600  1
  C  524  1  0.70694900  0.01795700  0.20495600  1
  C  525  1  0.75480700  0.07861500  0.16141900  1
  C  526  1  0.76802300  0.11088100  0.15390200  1
  C  527  1  0.78008600  0.14394500  0.16143300  1
  C  528  1  0.78224400  0.14236300  0.17654000  1
  C  529  1  0.75232700  0.14278700  0.20720600  1
  C  530  1  0.77332600  0.17802900  0.20842100  1
  C  531  1  0.83625200  0.14238500  0.20700000  1
  C  532  1  0.81698900  0.10684100  0.20394500  1
  C  533  1  0.87687500  0.14442100  0.20801400  1
  C  534  1  0.89942600  0.11144800  0.20618100  1
  C  535  1  0.88214500  0.07529800  0.20340100  1
  C  536  1  0.84114000  0.07352700  0.20198300  1
  C  537  1  0.71226900  0.14469000  0.21124200  1
  C  538  1  0.69375500  0.18007800  0.21506600  1
  C  539  1  0.71434900  0.21460700  0.21222500  1
  C  540  1  0.75406000  0.21368300  0.20976700  1
  C  553  1  0.77324200  0.10702300  0.20111600  1
  C  554  1  0.81589800  0.17960400  0.20864000  1
  C  557  1  0.73272900  0.04664400  0.18318400  1
  C  560  1  0.23473000  0.89545800  0.18480500  1
  C  561  1  0.25034700  0.92640700  0.17659700  1
  C  562  1  0.27391000  0.95867600  0.19886800  1
  C  563  1  0.25099700  0.93405300  0.20765500  1
  C  564  1  0.24964000  0.94332700  0.22257200  1
  C  565  1  0.27289900  0.97321200  0.22856500  1
  C  566  1  0.29898000  0.99309900  0.21955300  1
  C  567  1  0.29838900  0.98695200  0.20484000  1
  C  568  1  0.24948300  0.92625700  0.16146600  1
  C  569  1  0.23632500  0.89385500  0.15401200  1
  C  570  1  0.22423400  0.86090400  0.16159800  1
  C  571  1  0.22222600  0.86260500  0.17670600  1
  C  572  1  0.25314700  0.86226300  0.20723400  1
  C  573  1  0.23232200  0.82694000  0.20848800  1
  C  574  1  0.16927500  0.86248900  0.20754000  1
  C  575  1  0.18829200  0.89802600  0.20426900  1
  C  576  1  0.12874000  0.86044100  0.20893900  1
  C  577  1  0.10605000  0.89338900  0.20728600  1
  C  578  1  0.12307200  0.92949100  0.20420200  1
  C  579  1  0.16396200  0.93123800  0.20237100  1
  C  580  1  0.29328100  0.86046400  0.21117000  1
  C  581  1  0.31200300  0.82508600  0.21486100  1
  C  582  1  0.29158300  0.79050300  0.21191600  1
  C  583  1  0.25177400  0.79133600  0.20964800  1
  C  596  1  0.23193400  0.89796300  0.20123500  1
  C  597  1  0.18977200  0.82528500  0.20900300  1
  C  600  1  0.27212400  0.95822100  0.18315200  1
  C  603  1  0.39551300  0.26993800  0.32043400  1
  C  604  1  0.42642500  0.25414600  0.32861700  1
  C  605  1  0.45898000  0.23136000  0.30629500  1
  C  606  1  0.43430200  0.25436400  0.29755600  1
  C  607  1  0.44359900  0.25601800  0.28264400  1
  C  608  1  0.47370400  0.23310100  0.27661300  1
  C  609  1  0.49366400  0.20695400  0.28557200  1
  C  610  1  0.48739000  0.20712300  0.30027500  1
  C  611  1  0.42615300  0.25459100  0.34374900  1
  C  612  1  0.39372800  0.26759900  0.35122100  1
  C  613  1  0.36078900  0.27979800  0.34365200  1
  C  614  1  0.36258500  0.28217000  0.32855100  1
  C  615  1  0.36246900  0.25238300  0.29788200  1
  C  616  1  0.32724200  0.27339000  0.29662600  1
  C  617  1  0.36286600  0.33630700  0.29810600  1
  C  618  1  0.39837100  0.31703600  0.30121100  1
  C  619  1  0.36085200  0.37692700  0.29708600  1
  C  620  1  0.39383000  0.39946500  0.29892900  1
  C  621  1  0.42995700  0.38216300  0.30174100  1
  C  622  1  0.43169900  0.34116700  0.30318100  1
  C  623  1  0.36059500  0.21231800  0.29385200  1
  C  624  1  0.32523700  0.19383300  0.28996800  1
  C  625  1  0.29069200  0.21441500  0.29279500  1
  C  626  1  0.29159700  0.25412500  0.29525200  1
  C  639  1  0.39818300  0.27327900  0.30401900  1
  C  640  1  0.32566200  0.31596000  0.29641800  1
  C  643  1  0.45839300  0.23271700  0.32201500  1
  C  646  1  0.60984200  0.73482600  0.32035300  1
  C  647  1  0.57887900  0.75042700  0.32855700  1
  C  648  1  0.54648800  0.77377400  0.30627700  1
  C  649  1  0.57119500  0.75093600  0.29749300  1
  C  650  1  0.56193900  0.74953600  0.28257400  1
  C  651  1  0.53195000  0.77264900  0.27657300  1
  C  652  1  0.51181300  0.79849300  0.28560000  1
  C  653  1  0.51803300  0.79805000  0.30030700  1
  C  654  1  0.57901200  0.74955600  0.34368700  1
  C  655  1  0.61138700  0.73635700  0.35114800  1
  C  656  1  0.64439000  0.72434600  0.34357000  1
  C  657  1  0.64272400  0.72243700  0.32846000  1
  C  658  1  0.64301100  0.75304500  0.29788700  1
  C  659  1  0.67830800  0.73215900  0.29663400  1
  C  660  1  0.64273000  0.66915800  0.29772500  1
  C  661  1  0.60719800  0.68824700  0.30094300  1
  C  662  1  0.64475500  0.62860200  0.29640500  1
  C  663  1  0.61177800  0.60596300  0.29806700  1
  C  664  1  0.57567300  0.62305900  0.30108700  1
  C  665  1  0.57394600  0.66397400  0.30284000  1
  C  666  1  0.64481900  0.79315300  0.29391400  1
  C  667  1  0.68018000  0.81179600  0.29014400  1
  C  668  1  0.71475400  0.79129300  0.29300000  1
  C  669  1  0.71392300  0.75154100  0.29537500  1
  C  682  1  0.60730300  0.73191900  0.30392400  1
  C  683  1  0.67994200  0.68960100  0.29621900  1
  C  686  1  0.54698600  0.77206500  0.32199400  1
  C  689  1  0.90833600  0.46177200  0.05202400  1
  C  690  1  0.92847800  0.47282500  0.03935000  1
  C  692  1  0.98338800  0.49513600  0.05289700  1
  C  693  1  0.96363100  0.48743900  0.06591200  1
  C  694  1  0.92653400  0.47001600  0.06528500  1
  C  696  1  0.02177400  0.50958000  0.05306700  1
  C  697  1  0.09667600  0.54351500  0.05281300  1
  C  699  1  0.07799800  0.53089400  0.04003600  1
  C  700  1  0.07698500  0.53659800  0.06588900  1
  C  701  1  0.03994400  0.51902800  0.06623500  1
  C  702  1  0.01970800  0.51225900  0.07914000  1
  C  703  1  0.98240200  0.49579300  0.07899100  1
  C  707  1  0.91421100  0.46604700  0.02460800  1
  C  711  1  0.09499100  0.53623700  0.02560500  1
  C  715  1  0.46162100  0.09691600  0.95308600  1
  C  716  1  0.47257300  0.07678300  0.96577800  1
  C  718  1  0.49496600  0.02186100  0.95225500  1
  C  719  1  0.48740700  0.04163200  0.93923100  1
  C  720  1  0.47004800  0.07876300  0.93983500  1
  C  722  1  0.50936300  0.98345800  0.95210200  1
  C  723  1  0.54319900  0.90851000  0.95239800  1
  C  725  1  0.53052100  0.92721700  0.96515800  1
  C  726  1  0.53641000  0.92820900  0.93931100  1
  C  727  1  0.51887700  0.96526500  0.93894500  1
  C  728  1  0.51222100  0.98550300  0.92603100  1
  C  729  1  0.49582500  0.02284100  0.92616200  1
  C  733  1  0.46572000  0.09104400  0.98051700  1
  C  737  1  0.53579400  0.91022500  0.97958900  1
  C  741  1  0.59673800  0.46152300  0.70317600  1
  C  742  1  0.57646900  0.47259300  0.71583200  1
  C  744  1  0.52162500  0.49493700  0.70226700  1
  C  745  1  0.54144400  0.48726500  0.68926600  1
  C  746  1  0.57854900  0.46987400  0.68992000  1
  C  748  1  0.48324400  0.50938900  0.70207600  1
  C  749  1  0.40843500  0.54328600  0.70229000  1
  C  751  1  0.42698900  0.53072600  0.71509500  1
  C  752  1  0.42810300  0.53642800  0.68921300  1
  C  753  1  0.46512700  0.51882500  0.68889400  1
  C  754  1  0.48542000  0.51205300  0.67600100  1
  C  755  1  0.52274200  0.49563100  0.67617500  1
  C  759  1  0.59066400  0.46589100  0.73059000  1
  C  763  1  0.40992800  0.53609200  0.72951100  1
  C  767  1  0.04385700  0.09667800  0.80158300  1
  C  768  1  0.03278400  0.07643500  0.78892800  1
  C  770  1  0.01029800  0.02165100  0.80248400  1
  C  771  1  0.01793400  0.04145700  0.81548900  1
  C  772  1  0.03543200  0.07851400  0.81484200  1
  C  774  1  0.99578900  0.98330100  0.80266000  1
  C  775  1  0.96176500  0.90858200  0.80238900  1
  C  777  1  0.97453400  0.92709300  0.78961100  1
  C  778  1  0.96853700  0.92820300  0.81548800  1
  C  779  1  0.98618300  0.96520700  0.81583000  1
  C  780  1  0.99288500  0.98550000  0.82872900  1
  C  781  1  0.00941900  0.02277900  0.82857200  1
  C  785  1  0.03953000  0.09066800  0.77418000  1
  C  789  1  0.96933800  0.90999900  0.77519100  1
  C  793  1  0.40850500  0.96151900  0.55159100  1
  C  794  1  0.42862100  0.97260400  0.53891500  1
  C  796  1  0.48344100  0.99508100  0.55246500  1
  C  797  1  0.46368400  0.98740300  0.56548200  1
  C  798  1  0.42664200  0.96986200  0.56485500  1
  C  800  1  0.52178200  0.00961800  0.55262900  1
  C  801  1  0.59655000  0.04367700  0.55233400  1
  C  803  1  0.57796400  0.03089200  0.53957100  1
  C  804  1  0.57689400  0.03691400  0.56543000  1
  C  805  1  0.53990200  0.01923800  0.56579100  1
  C  806  1  0.51965800  0.01250700  0.57869900  1
  C  807  1  0.48240800  0.99590500  0.57855800  1
  C  811  1  0.41437100  0.96580300  0.52417200  1
  C  815  1  0.59499700  0.03614100  0.52514400  1
  C  819  1  0.96165200  0.59691200  0.45304600  1
  C  820  1  0.97258700  0.57677800  0.46574000  1
  C  822  1  0.99498200  0.52186000  0.45221700  1
  C  823  1  0.98743500  0.54163200  0.43919200  1
  C  824  1  0.97008200  0.57876300  0.43979600  1
  C  826  1  0.00937500  0.48345600  0.45206500  1
  C  827  1  0.04319400  0.40850700  0.45236600  1
  C  829  1  0.03051900  0.42721800  0.46512400  1
  C  830  1  0.03641600  0.42820100  0.43927700  1
  C  831  1  0.01889200  0.46526300  0.43890700  1
  C  832  1  0.01224600  0.48550100  0.42599400  1
  C  833  1  0.99585600  0.52284000  0.42612400  1
  C  837  1  0.96572500  0.59104000  0.48047800  1
  C  841  1  0.03578300  0.41022600  0.47955600  1
  C  845  1  0.09660400  0.96125900  0.20359900  1
  C  846  1  0.07636400  0.97240400  0.21625200  1
  C  848  1  0.02161000  0.99487000  0.20267200  1
  C  849  1  0.04142800  0.98716300  0.18967400  1
  C  850  1  0.07847700  0.96965900  0.19033700  1
  C  852  1  0.98327500  0.00942300  0.20248000  1
  C  853  1  0.90858500  0.04351600  0.20271100  1
  C  855  1  0.92707200  0.03081100  0.21550800  1
  C  856  1  0.92823800  0.03668600  0.18962900  1
  C  857  1  0.96520700  0.01897100  0.18930000  1
  C  858  1  0.98550000  0.01217900  0.17640800  1
  C  859  1  0.02276900  0.99562500  0.17658200  1
  C  863  1  0.09053900  0.96572800  0.23101300  1
  C  867  1  0.90998200  0.03607000  0.22992700  1
  C  871  1  0.54384500  0.59665700  0.30161100  1
  C  872  1  0.53279100  0.57641100  0.28895500  1
  C  874  1  0.51029200  0.52163700  0.30251100  1
  C  875  1  0.51791700  0.54144400  0.31551600  1
  C  876  1  0.53540900  0.57850000  0.31487000  1
  C  878  1  0.49578200  0.48329100  0.30268600  1
  C  879  1  0.46176000  0.40857700  0.30241200  1
  C  881  1  0.47452600  0.42708800  0.28963500  1
  C  882  1  0.46852900  0.42819300  0.31551200  1
  C  883  1  0.48616900  0.46519900  0.31585500  1
  C  884  1  0.49286300  0.48548900  0.32875500  1
  C  885  1  0.50939200  0.52276800  0.32859900  1
  C  889  1  0.53955200  0.59064000  0.27420700  1
  C  893  1  0.46933000  0.40999700  0.27521400  1
  C  897  1  0.22618400  0.67963000  0.10150600  1
  C  898  1  0.26022800  0.69589900  0.10762200  1
  C  900  1  0.22231500  0.73823400  0.12234300  1
  C  901  1  0.18754000  0.72489000  0.11597900  1
  C  902  1  0.18992500  0.69495900  0.10567800  1
  C  904  1  0.22141000  0.76657700  0.13319400  1
  C  905  1  0.22209000  0.82556600  0.15390900  1
  C  907  1  0.25657500  0.80597300  0.14985500  1
  C  908  1  0.18677000  0.81377800  0.14761500  1
  C  909  1  0.18585600  0.78367900  0.13735700  1
  C  910  1  0.15129800  0.77084100  0.13081800  1
  C  911  1  0.15206500  0.74126600  0.12042500  1
  C  915  1  0.30051800  0.68468900  0.10410800  1
  C  919  1  0.29532000  0.81501000  0.15578100  1
  C  923  1  0.77965800  0.32517600  0.10130300  1
  C  924  1  0.74542800  0.30864400  0.10717600  1
  C  926  1  0.78293000  0.26649600  0.12211800  1
  C  927  1  0.81791500  0.28013900  0.11600000  1
  C  928  1  0.81581700  0.31008500  0.10569800  1
  C  930  1  0.78351700  0.23814600  0.13296800  1
  C  931  1  0.78227000  0.17917300  0.15367400  1
  C  933  1  0.74783200  0.19848500  0.14939100  1
  C  934  1  0.81782200  0.19126600  0.14764600  1
  C  935  1  0.81899700  0.22135000  0.13738500  1
  C  936  1  0.85377600  0.23448600  0.13109200  1
  C  937  1  0.85329000  0.26405000  0.12069100  1
  C  941  1  0.70523400  0.31968000  0.10343700  1
  C  945  1  0.70888700  0.18922800  0.15508600  1
  C  949  1  0.67931700  0.77908800  0.90366900  1
  C  950  1  0.69563800  0.74493600  0.89765000  1
  C  952  1  0.73796200  0.78260000  0.88283800  1
  C  953  1  0.72454600  0.81748900  0.88909400  1
  C  954  1  0.69460900  0.81527400  0.89939600  1
  C  956  1  0.76632500  0.78331500  0.87199500  1
  C  957  1  0.82536600  0.78226400  0.85131200  1
  C  959  1  0.80582000  0.74782900  0.85545900  1
  C  960  1  0.81349700  0.81770900  0.85748200  1
  C  961  1  0.78336400  0.81880600  0.86772400  1
  C  962  1  0.77044800  0.85348700  0.87415100  1
  C  963  1  0.74087200  0.85289400  0.88454700  1
  C  967  1  0.68445200  0.70470100  0.90126200  1
  C  971  1  0.81487100  0.70897100  0.84963900  1
  C  975  1  0.32535800  0.22577000  0.90379400  1
  C  976  1  0.30895400  0.25987100  0.89777100  1
  C  978  1  0.26685500  0.22206500  0.88291900  1
  C  979  1  0.28033600  0.18722000  0.88919400  1
  C  980  1  0.31020600  0.18952600  0.89952100  1
  C  982  1  0.23859300  0.22125000  0.87204000  1
  C  983  1  0.17975300  0.22208300  0.85126600  1
  C  985  1  0.19916500  0.25657300  0.85543400  1
  C  986  1  0.19167900  0.18668500  0.85746500  1
  C  987  1  0.22169800  0.18570200  0.86775500  1
  C  988  1  0.23465700  0.15107100  0.87420700  1
  C  989  1  0.26414700  0.15176300  0.88463500  1
  C  993  1  0.31999000  0.30014000  0.90139800  1
  C  997  1  0.19004100  0.29538700  0.84959000  1
  C  1001  1  0.27899100  0.67916400  0.65356100  1
  C  1002  1  0.24492300  0.69539000  0.64744800  1
  C  1004  1  0.28279700  0.73780000  0.63273800  1
  C  1005  1  0.31758600  0.72449100  0.63910600  1
  C  1006  1  0.31523400  0.69455100  0.64940300  1
  C  1008  1  0.28367600  0.76616600  0.62189700  1
  C  1009  1  0.28293500  0.82520400  0.60121400  1
  C  1011  1  0.24846400  0.80556600  0.60524700  1
  C  1012  1  0.31827700  0.81344500  0.60749400  1
  C  1013  1  0.31921400  0.78332300  0.61774300  1
  C  1014  1  0.35378300  0.77051400  0.62428200  1
  C  1015  1  0.35304200  0.74092100  0.63466900  1
  C  1019  1  0.20464400  0.68412800  0.65095700  1
  C  1023  1  0.20971600  0.81457600  0.59932000  1
  C  1027  1  0.72530900  0.32552900  0.65381500  1
  C  1028  1  0.75956200  0.30904300  0.64793900  1
  C  1030  1  0.72213000  0.26688100  0.63298000  1
  C  1031  1  0.68712200  0.28047400  0.63909500  1
  C  1032  1  0.68917600  0.31040900  0.64940400  1
  C  1034  1  0.72158900  0.23854600  0.62212500  1
  C  1035  1  0.72293700  0.17959100  0.60140100  1
  C  1037  1  0.75733800  0.19894500  0.60570400  1
  C  1038  1  0.68737400  0.19163600  0.60743500  1
  C  1039  1  0.68613900  0.22171000  0.61770000  1
  C  1040  1  0.65133600  0.23479500  0.62399000  1
  C  1041  1  0.65177300  0.26434800  0.63439500  1
  C  1045  1  0.79974200  0.32010800  0.65168800  1
  C  1049  1  0.79630600  0.18974600  0.60001900  1
  C  1053  1  0.17925200  0.27891900  0.40364600  1
  C  1054  1  0.19558300  0.24476500  0.39763300  1
  C  1056  1  0.23796100  0.28241400  0.38283500  1
  C  1057  1  0.22452100  0.31730800  0.38908200  1
  C  1058  1  0.19455800  0.31510100  0.39937400  1
  C  1060  1  0.26636100  0.28312500  0.37200400  1
  C  1061  1  0.32546000  0.28208100  0.35134000  1
  C  1063  1  0.30592500  0.24764300  0.35548800  1
  C  1064  1  0.31355300  0.31752800  0.35750000  1
  C  1065  1  0.28339900  0.31861800  0.36773300  1
  C  1066  1  0.27045200  0.35330200  0.37415000  1
  C  1067  1  0.24085400  0.35270900  0.38453700  1
  C  1071  1  0.18437700  0.20453100  0.40124100  1
  C  1075  1  0.31501700  0.20878300  0.34967800  1
  C  1079  1  0.82543000  0.72594000  0.40377400  1
  C  1080  1  0.80901400  0.76004200  0.39775700  1
  C  1082  1  0.76686900  0.72224300  0.38291600  1
  C  1083  1  0.78037500  0.68739700  0.38918300  1
  C  1084  1  0.81026900  0.68970000  0.39950000  1
  C  1086  1  0.73857500  0.72142700  0.37204700  1
  C  1087  1  0.67968200  0.72225200  0.35129100  1
  C  1089  1  0.69908100  0.75674800  0.35546000  1
  C  1090  1  0.69164300  0.68685300  0.35748200  1
  C  1091  1  0.72168500  0.68587800  0.36776300  1
  C  1092  1  0.73467300  0.65124600  0.37420700  1
  C  1093  1  0.76418500  0.65193800  0.38462600  1
  C  1097  1  0.82006100  0.80030900  0.40138000  1
  C  1101  1  0.68991400  0.79555900  0.34962600  1
  C  1105  1  0.51399700  0.74012000  0.99245100  1
  C  1106  1  0.51571800  0.71143900  0.00337600  1
  C  1108  1  0.44870500  0.72095300  0.00964200  1
  C  1109  1  0.44592200  0.75072800  0.99918600  1
  C  1110  1  0.47915100  0.76154700  0.99137900  1
  C  1112  1  0.41497000  0.70821000  0.01696900  1
  C  1113  1  0.34651900  0.68426100  0.03169800  1
  C  1115  1  0.38376000  0.66971900  0.03538700  1
  C  1116  1  0.34501800  0.70925400  0.01963200  1
  C  1117  1  0.37848700  0.72317100  0.01280600  1
  C  1118  1  0.37592900  0.75213100  0.00220900  1
  C  1119  1  0.40952000  0.76664400  0.99576200  1
  C  1123  1  0.54959800  0.68602300  0.00562300  1
  C  1127  1  0.39042800  0.64364700  0.04768700  1
  C  1131  1  0.49105500  0.26497800  0.99247500  1
  C  1132  1  0.48918600  0.29382800  0.00334200  1
  C  1134  1  0.55614400  0.28417600  0.00968000  1
  C  1135  1  0.55890400  0.25425700  0.99927300  1
  C  1136  1  0.52568100  0.24325000  0.99149100  1
  C  1138  1  0.58987400  0.29694300  0.01700400  1
  C  1139  1  0.65834800  0.32094400  0.03172500  1
  C  1141  1  0.62110700  0.33554100  0.03539000  1
  C  1142  1  0.65981700  0.29580900  0.01969800  1
  C  1143  1  0.62634600  0.28188300  0.01287800  1
  C  1144  1  0.62889700  0.25280600  0.00232600  1
  C  1145  1  0.59530900  0.23830000  0.99587700  1
  C  1149  1  0.45534400  0.31933900  0.00552600  1
  C  1153  1  0.61445900  0.36174300  0.04765300  1
  C  1157  1  0.73967700  0.49134100  0.01282800  1
  C  1158  1  0.71096400  0.48958200  0.00189700  1
  C  1160  1  0.72062300  0.55652600  0.99555800  1
  C  1161  1  0.75047600  0.55927700  0.00598000  1
  C  1162  1  0.76129200  0.52607100  0.01379700  1
  C  1164  1  0.70794700  0.59024700  0.98820700  1
  C  1165  1  0.68413100  0.65870100  0.97343700  1
  C  1167  1  0.66939500  0.62148600  0.96980800  1
  C  1168  1  0.70924000  0.66017000  0.98547200  1
  C  1169  1  0.72306700  0.62670400  0.99232000  1
  C  1170  1  0.75211300  0.62924400  0.00288500  1
  C  1171  1  0.76649600  0.59565600  0.00937300  1
  C  1175  1  0.68549900  0.45573400  0.99965500  1
  C  1179  1  0.64315500  0.61482100  0.95755600  1
  C  1183  1  0.26489900  0.51426600  0.01268400  1
  C  1184  1  0.29377500  0.51602800  0.00183000  1
  C  1186  1  0.28406000  0.44908100  0.99549800  1
  C  1187  1  0.25412600  0.44635600  0.00589700  1
  C  1188  1  0.24323900  0.47957400  0.01369900  1
  C  1190  1  0.29676700  0.41534000  0.98816600  1
  C  1191  1  0.32067200  0.34686000  0.97343700  1
  C  1193  1  0.33539900  0.38407000  0.96980000  1
  C  1194  1  0.29549700  0.34540200  0.98545200  1
  C  1195  1  0.28160700  0.37889400  0.99227200  1
  C  1196  1  0.25248900  0.37638400  0.00281100  1
  C  1197  1  0.23807600  0.40998600  0.00928000  1
  C  1201  1  0.31923700  0.54989300  0.99962900  1
  C  1205  1  0.36170900  0.39068800  0.95756600  1
  C  1209  1  0.99152300  0.73954200  0.76303200  1
  C  1210  1  0.98974900  0.71078200  0.75212700  1
  C  1212  1  0.05665100  0.72039200  0.74571700  1
  C  1213  1  0.05951200  0.75022400  0.75614500  1
  C  1214  1  0.02636600  0.76100000  0.76400400  1
  C  1216  1  0.09031300  0.70769800  0.73833500  1
  C  1217  1  0.15864700  0.68380700  0.72351000  1
  C  1219  1  0.12137800  0.66921000  0.71988300  1
  C  1220  1  0.16022700  0.70888400  0.73555100  1
  C  1221  1  0.12681400  0.72276400  0.74242300  1
  C  1222  1  0.12945200  0.75178400  0.75299400  1
  C  1223  1  0.09591600  0.76625600  0.75949000  1
  C  1227  1  0.95589300  0.68528800  0.74994900  1
  C  1231  1  0.11461700  0.64307700  0.70760800  1
  C  1235  1  0.01393000  0.26624600  0.76301800  1
  C  1236  1  0.01579600  0.29511200  0.75214900  1
  C  1238  1  0.94898500  0.28516600  0.74567000  1
  C  1239  1  0.94619600  0.25524200  0.75607100  1
  C  1240  1  0.97934400  0.24442900  0.76392900  1
  C  1242  1  0.91531900  0.29774700  0.73826200  1
  C  1243  1  0.84701600  0.32133800  0.72335900  1
  C  1245  1  0.88422800  0.33621500  0.71981000  1
  C  1246  1  0.84544200  0.29617900  0.73537600  1
  C  1247  1  0.87886200  0.28245700  0.74228700  1
  C  1248  1  0.87627900  0.25336400  0.75283200  1
  C  1249  1  0.90982600  0.23907000  0.75937500  1
  C  1253  1  0.04956400  0.32074700  0.75000100  1
  C  1257  1  0.89095600  0.36251900  0.70758200  1
  C  1261  1  0.76555900  0.49149700  0.74231200  1
  C  1262  1  0.79429500  0.48965200  0.75323000  1
  C  1264  1  0.78452100  0.55657000  0.75960200  1
  C  1265  1  0.75467600  0.55933800  0.74917000  1
  C  1266  1  0.74388600  0.52616100  0.74133100  1
  C  1268  1  0.79714200  0.59027300  0.76697700  1
  C  1269  1  0.82088300  0.65870100  0.78178300  1
  C  1271  1  0.83560700  0.62148000  0.78540800  1
  C  1272  1  0.79577100  0.66018200  0.76975000  1
  C  1273  1  0.78199000  0.62673000  0.76287900  1
  C  1274  1  0.75297300  0.62928700  0.75230300  1
  C  1275  1  0.73863600  0.59571400  0.74579200  1
  C  1279  1  0.81976900  0.45580400  0.75546800  1
  C  1283  1  0.86181800  0.61481200  0.79766600  1
  C  1287  1  0.24009100  0.51405200  0.74243000  1
  C  1288  1  0.21133900  0.51582500  0.75333000  1
  C  1290  1  0.22100800  0.44891900  0.75971200  1
  C  1291  1  0.25083300  0.44610200  0.74927600  1
  C  1292  1  0.26164800  0.47926400  0.74143000  1
  C  1294  1  0.20835100  0.41523900  0.76709500  1
  C  1295  1  0.18457600  0.34688600  0.78193100  1
  C  1297  1  0.16986800  0.38411900  0.78554000  1
  C  1298  1  0.20965900  0.34532400  0.76989000  1
  C  1299  1  0.22347500  0.37875600  0.76301200  1
  C  1300  1  0.25249300  0.37615500  0.75243800  1
  C  1301  1  0.26684300  0.40970200  0.74591100  1
  C  1305  1  0.18591500  0.54972300  0.75553000  1
  C  1309  1  0.14363500  0.39081000  0.79779000  1
  C  1313  1  0.01376700  0.24009700  0.49241300  1
  C  1314  1  0.01553300  0.21134800  0.50331300  1
  C  1316  1  0.94860600  0.22099400  0.50968700  1
  C  1317  1  0.94578500  0.25082500  0.49925400  1
  C  1318  1  0.97895700  0.26159800  0.49140200  1
  C  1320  1  0.91492000  0.20831000  0.51705900  1
  C  1321  1  0.84655300  0.18447700  0.53187600  1
  C  1323  1  0.88379400  0.16980600  0.53549700  1
  C  1324  1  0.84499900  0.20954600  0.51983200  1
  C  1325  1  0.87843400  0.22339600  0.51296400  1
  C  1326  1  0.87583300  0.25240700  0.50238700  1
  C  1327  1  0.90938900  0.26685500  0.49589500  1
  C  1331  1  0.04937900  0.18584600  0.50549600  1
  C  1335  1  0.89051100  0.14363100  0.54776300  1
  C  1339  1  0.99129400  0.76500900  0.49244300  1
  C  1340  1  0.98937300  0.79392200  0.50328500  1
  C  1342  1  0.05624500  0.78416500  0.50973000  1
  C  1343  1  0.05905400  0.75419300  0.49934500  1
  C  1344  1  0.02589400  0.74322100  0.49151800  1
  C  1346  1  0.08992400  0.79688400  0.51710000  1
  C  1347  1  0.15830000  0.82078100  0.53191100  1
  C  1349  1  0.12105700  0.83549400  0.53550900  1
  C  1350  1  0.15983500  0.79558300  0.51990400  1
  C  1351  1  0.12640400  0.78171200  0.51304000  1
  C  1352  1  0.12900600  0.75258800  0.50250800  1
  C  1353  1  0.09545900  0.73813900  0.49601300  1
  C  1357  1  0.95555700  0.81950900  0.50540500  1
  C  1361  1  0.11435700  0.86179200  0.54774000  1
  C  1365  1  0.23884900  0.99150500  0.51309400  1
  C  1366  1  0.21004700  0.98972300  0.50219800  1
  C  1368  1  0.21983900  0.05659000  0.49577000  1
  C  1369  1  0.24972000  0.05938000  0.50618100  1
  C  1370  1  0.26048700  0.02622500  0.51403400  1
  C  1372  1  0.20724800  0.09026600  0.48837200  1
  C  1373  1  0.18364200  0.15861400  0.47349700  1
  C  1375  1  0.16879200  0.12140400  0.46992400  1
  C  1376  1  0.20874200  0.16015300  0.48553000  1
  C  1377  1  0.22247500  0.12672400  0.49243000  1
  C  1378  1  0.25153300  0.12930300  0.50298900  1
  C  1379  1  0.26583600  0.09574800  0.50952100  1
  C  1383  1  0.18451500  0.95590100  0.50000300  1
  C  1387  1  0.14253500  0.11467800  0.45768300  1
  C  1391  1  0.76575800  0.01412700  0.51293200  1
  C  1392  1  0.79469200  0.01591400  0.50210100  1
  C  1394  1  0.78486200  0.94902500  0.49570000  1
  C  1395  1  0.75492800  0.94626300  0.50609800  1
  C  1396  1  0.74409500  0.97943400  0.51393200  1
  C  1398  1  0.79748600  0.91532500  0.48832400  1
  C  1399  1  0.82118600  0.84694000  0.47349500  1
  C  1401  1  0.83600000  0.88414700  0.46990300  1
  C  1402  1  0.79604000  0.84541900  0.48551700  1
  C  1403  1  0.78224700  0.87887300  0.49238600  1
  C  1404  1  0.75313700  0.87632800  0.50292800  1
  C  1405  1  0.73880400  0.90989800  0.50944000  1
  C  1409  1  0.82021100  0.04975200  0.49993200  1
  C  1413  1  0.86230100  0.89082000  0.45767100  1
  C  1417  1  0.49168800  0.23944700  0.26305300  1
  C  1418  1  0.48988300  0.21066100  0.25215800  1
  C  1420  1  0.55671400  0.22039400  0.24566800  1
  C  1421  1  0.55960400  0.25024200  0.25608900  1
  C  1422  1  0.52650500  0.26095800  0.26398800  1
  C  1424  1  0.59034000  0.20776800  0.23824500  1
  C  1425  1  0.65860300  0.18401200  0.22334100  1
  C  1427  1  0.62133800  0.16931600  0.21976600  1
  C  1428  1  0.66022500  0.20912500  0.23537200  1
  C  1429  1  0.62684000  0.22292800  0.24228400  1
  C  1430  1  0.62951000  0.25196100  0.25285000  1
  C  1431  1  0.59600100  0.26635700  0.25938900  1
  C  1435  1  0.45605300  0.18511100  0.25001700  1
  C  1439  1  0.61454300  0.14312600  0.20751000  1
  C  1443  1  0.51369900  0.76626800  0.26305400  1
  C  1444  1  0.51562300  0.79518300  0.25220500  1
  C  1446  1  0.44889300  0.78514900  0.24562400  1
  C  1447  1  0.44605000  0.75518500  0.25600900  1
  C  1448  1  0.47913400  0.74440700  0.26391200  1
  C  1450  1  0.41528500  0.79768000  0.23817000  1
  C  1451  1  0.34708900  0.82117200  0.22317300  1
  C  1453  1  0.38430400  0.83615000  0.21969000  1
  C  1454  1  0.34544300  0.79595900  0.23517300  1
  C  1455  1  0.37881600  0.78229600  0.24213200  1
  C  1456  1  0.37617200  0.75317200  0.25266300  1
  C  1457  1  0.40967600  0.73893400  0.25925300  1
  C  1461  1  0.54937500  0.82087700  0.25011400  1
  C  1465  1  0.39109000  0.86252700  0.20748900  1
  C  1469  1  0.26642300  0.99165900  0.24204000  1
  C  1470  1  0.29521900  0.98979300  0.25293500  1
  C  1472  1  0.28530600  0.05664000  0.25938500  1
  C  1473  1  0.25546500  0.05944600  0.24895400  1
  C  1474  1  0.24474200  0.02631800  0.24107700  1
  C  1476  1  0.29782800  0.09029800  0.26680900  1
  C  1477  1  0.32133800  0.15862300  0.28172400  1
  C  1479  1  0.33616600  0.12140700  0.28529800  1
  C  1480  1  0.29625200  0.16017100  0.26968700  1
  C  1481  1  0.28258200  0.12675700  0.26276100  1
  C  1482  1  0.25357600  0.12935300  0.25218300  1
  C  1483  1  0.23933700  0.09581300  0.24562100  1
  C  1487  1  0.32074500  0.95596800  0.25514000  1
  C  1491  1  0.36237400  0.11467700  0.29755300  1
  C  1495  1  0.73923500  0.01389200  0.24217300  1
  C  1496  1  0.71042900  0.01568900  0.25305200  1
  C  1498  1  0.72020400  0.94884000  0.25949900  1
  C  1499  1  0.75001900  0.94597900  0.24906100  1
  C  1500  1  0.76078000  0.97909800  0.24118200  1
  C  1502  1  0.70763700  0.91520000  0.26692900  1
  C  1503  1  0.68407300  0.84695200  0.28186800  1
  C  1505  1  0.66928500  0.88418200  0.28543300  1
  C  1506  1  0.70911900  0.84532000  0.26981800  1
  C  1507  1  0.72283300  0.87871400  0.26288900  1
  C  1508  1  0.75182700  0.87607000  0.25230700  1
  C  1509  1  0.76609400  0.90958600  0.24573400  1
  C  1513  1  0.68497300  0.04957100  0.25522700  1
  C  1517  1  0.64307400  0.89093000  0.29768500  1
  N  691  1  0.96466400  0.48809300  0.04039100  1
  N  698  1  0.04188800  0.51525600  0.04075900  1
  N  717  1  0.48783500  0.04059000  0.96475300  1
  N  724  1  0.51493200  0.96334400  0.96441800  1
  N  743  1  0.54029500  0.48788100  0.71477800  1
  N  750  1  0.46309900  0.51507900  0.71438000  1
  N  769  1  0.01742900  0.04029700  0.78997400  1
  N  776  1  0.99022700  0.96316800  0.79034700  1
  N  795  1  0.46476600  0.98795600  0.53995800  1
  N  802  1  0.54188900  0.01519900  0.54031300  1
  N  821  1  0.98784300  0.54058400  0.46471500  1
  N  828  1  0.01493500  0.46334800  0.46438200  1
  N  847  1  0.04023500  0.98777400  0.21518800  1
  N  854  1  0.96313600  0.01508200  0.21478600  1
  N  873  1  0.51743400  0.54027500  0.29000100  1
  N  880  1  0.49022200  0.46316300  0.29037200  1
  N  899  1  0.25655300  0.72369200  0.11777200  1
  N  906  1  0.25456900  0.77800100  0.13969500  1
  N  925  1  0.74881600  0.28081900  0.11732900  1
  N  932  1  0.75012900  0.22646900  0.13924300  1
  N  951  1  0.72345200  0.74844000  0.88750100  1
  N  958  1  0.77781500  0.75002500  0.86560100  1
  N  977  1  0.28121600  0.25627500  0.88759600  1
  N  984  1  0.22707300  0.25448700  0.86561800  1
  N  1003  1  0.24857400  0.72320300  0.63730300  1
  N  1010  1  0.25050400  0.77756400  0.61539700  1
  N  1029  1  0.75622100  0.28123300  0.63778000  1
  N  1036  1  0.75499700  0.22691500  0.61585500  1
  N  1055  1  0.22343200  0.24825800  0.38749500  1
  N  1062  1  0.27788800  0.24983600  0.36561900  1
  N  1081  1  0.78124600  0.75645000  0.38759200  1
  N  1088  1  0.72701900  0.75466500  0.36563400  1
  N  1107  1  0.48362300  0.70345200  0.01138300  1
  N  1114  1  0.41556300  0.68193500  0.02786300  1
  N  1133  1  0.52125500  0.30179700  0.01136600  1
  N  1140  1  0.58930100  0.32331000  0.02786800  1
  N  1159  1  0.70304100  0.52163400  0.99385600  1
  N  1166  1  0.68157100  0.58968900  0.97734500  1
  N  1185  1  0.30171600  0.48395000  0.99380800  1
  N  1192  1  0.32319800  0.41588100  0.97732300  1
  N  1211  1  0.02174300  0.70281200  0.74406000  1
  N  1218  1  0.08964200  0.68138600  0.72745300  1
  N  1237  1  0.98381300  0.30294000  0.74405800  1
  N  1244  1  0.91595300  0.32415200  0.72741200  1
  N  1263  1  0.80215200  0.52169200  0.76128800  1
  N  1270  1  0.82348000  0.58969700  0.77785100  1
  N  1289  1  0.20341900  0.48381400  0.76139200  1
  N  1296  1  0.18200700  0.41587000  0.77796700  1
  N  1315  1  0.98350400  0.20340000  0.51136300  1
  N  1322  1  0.91555100  0.18197500  0.52793400  1
  N  1341  1  0.02137400  0.80186300  0.51135100  1
  N  1348  1  0.08930200  0.82331000  0.52794600  1
  N  1367  1  0.20216700  0.02172400  0.49412200  1
  N  1374  1  0.18087400  0.08965600  0.47751000  1
  N  1393  1  0.80258600  0.98387100  0.49405100  1
  N  1400  1  0.82389400  0.91591200  0.47747400  1
  N  1419  1  0.52182500  0.20274400  0.24405600  1
  N  1426  1  0.58963700  0.18143300  0.22737100  1
  N  1445  1  0.48371300  0.80298500  0.24407300  1
  N  1452  1  0.41597400  0.82412800  0.22733400  1
  N  1471  1  0.30301800  0.02178500  0.26102700  1
  N  1478  1  0.32414400  0.08967300  0.27769000  1
  N  1497  1  0.70255500  0.98371800  0.26114300  1
  N  1504  1  0.68132500  0.91588300  0.27781100  1
