# generated using pymatgen
data_H10C14N3O4
_symmetry_space_group_name_H-M   'P 1'
_cell_length_a   35.93130000
_cell_length_b   68.79190000
_cell_length_c   68.79200000
_cell_angle_alpha   119.99600000
_cell_angle_beta   89.63450000
_cell_angle_gamma   89.63450000
_symmetry_Int_Tables_number   1
_chemical_formula_structural   H10C14N3O4
_chemical_formula_sum   'H480 C672 N144 O192'
_cell_volume   147251.91848034
_cell_formula_units_Z   48
loop_
 _symmetry_equiv_pos_site_id
 _symmetry_equiv_pos_as_xyz
  1  'x, y, z'
loop_
 _atom_site_type_symbol
 _atom_site_label
 _atom_site_symmetry_multiplicity
 _atom_site_fract_x
 _atom_site_fract_y
 _atom_site_fract_z
 _atom_site_occupancy
  H  7  1  0.11237400  0.52811300  0.16480700  1
  H  16  1  0.01825100  0.48050300  0.12227300  1
  H  17  1  0.01215800  0.53530600  0.08782600  1
  H  18  1  0.99001900  0.51210000  0.07724300  1
  H  19  1  0.10491700  0.48059600  0.20529500  1
  H  20  1  0.13277700  0.50156800  0.21516800  1
  H  21  1  0.02624200  0.48379100  0.15435900  1
  H  22  1  0.07581900  0.54077600  0.14890300  1
  H  27  1  0.96265300  0.49121800  0.08967200  1
  H  28  1  0.02584500  0.46052300  0.16798900  1
  H  29  1  0.15516600  0.52670400  0.21086100  1
  H  30  1  0.08064500  0.56089700  0.13158500  1
  H  37  1  0.12477800  0.92735400  0.36397400  1
  H  46  1  0.03038800  0.97017300  0.35917800  1
  H  47  1  0.02423500  0.00460700  0.44846400  1
  H  48  1  0.00192300  0.01528100  0.43587700  1
  H  49  1  0.11706600  0.88647600  0.27591800  1
  H  50  1  0.14552400  0.87678900  0.28710300  1
  H  51  1  0.03793900  0.93807100  0.33039400  1
  H  52  1  0.08830600  0.94303100  0.39262600  1
  H  57  1  0.97449900  0.00297300  0.40253200  1
  H  58  1  0.03770000  0.92437100  0.29339200  1
  H  59  1  0.16821100  0.88121100  0.31662600  1
  H  60  1  0.09327500  0.96049000  0.43013500  1
  H  67  1  0.13720900  0.72795400  0.56391800  1
  H  76  1  0.04239600  0.73323100  0.61197500  1
  H  77  1  0.03676400  0.64398900  0.55691500  1
  H  78  1  0.01446300  0.65665300  0.58026900  1
  H  79  1  0.12915400  0.81607900  0.61179700  1
  H  80  1  0.15739300  0.80499900  0.59065100  1
  H  81  1  0.05021200  0.76213300  0.60872600  1
  H  82  1  0.10068200  0.69946100  0.55121900  1
  H  87  1  0.98699900  0.69021800  0.60159800  1
  H  88  1  0.05142900  0.79885400  0.63187600  1
  H  89  1  0.17984300  0.77534400  0.56520700  1
  H  90  1  0.10537600  0.66198000  0.53102400  1
  H  97  1  0.60053300  0.59423700  0.89716000  1
  H  106  1  0.50571400  0.64216000  0.94010400  1
  H  107  1  0.49999400  0.58713500  0.97433100  1
  H  108  1  0.47743300  0.61045900  0.98509100  1
  H  109  1  0.59252500  0.64179400  0.85661800  1
  H  110  1  0.62107700  0.62075800  0.84671900  1
  H  111  1  0.51338800  0.63886700  0.90792100  1
  H  112  1  0.56404400  0.58134300  0.91286500  1
  H  117  1  0.45018700  0.63173400  0.97307700  1
  H  118  1  0.51364900  0.66216500  0.89431300  1
  H  119  1  0.64368300  0.59543500  0.85101800  1
  H  120  1  0.56883700  0.56116100  0.93033000  1
  H  127  1  0.61255700  0.19500800  0.69775300  1
  H  136  1  0.51799400  0.15233700  0.70300400  1
  H  137  1  0.51232400  0.11810900  0.61379700  1
  H  138  1  0.48991000  0.10744100  0.62639800  1
  H  139  1  0.60479400  0.23520200  0.78581900  1
  H  140  1  0.63270300  0.24526800  0.77474300  1
  H  141  1  0.52611300  0.18449900  0.73190200  1
  H  142  1  0.57599000  0.17906700  0.66922300  1
  H  147  1  0.46252000  0.11947000  0.65964300  1
  H  148  1  0.52569300  0.19808700  0.76881900  1
  H  149  1  0.65505500  0.24105800  0.74520100  1
  H  150  1  0.58063500  0.16177500  0.63165600  1
  H  157  1  0.62460600  0.39416200  0.49778900  1
  H  166  1  0.53054400  0.38931600  0.45032900  1
  H  167  1  0.52419000  0.47856300  0.50505600  1
  H  168  1  0.50211500  0.46598600  0.48187200  1
  H  169  1  0.61714700  0.30615800  0.45063800  1
  H  170  1  0.64527500  0.31732100  0.47147700  1
  H  171  1  0.53826200  0.36057600  0.45365300  1
  H  172  1  0.58808600  0.42273800  0.51062200  1
  H  177  1  0.47472700  0.43261000  0.46104200  1
  H  178  1  0.53801200  0.32364700  0.43038200  1
  H  179  1  0.66784700  0.34675500  0.49648300  1
  H  180  1  0.59316000  0.46002100  0.53059400  1
  H  187  1  0.40435100  0.19529800  0.49806800  1
  H  196  1  0.49885600  0.15231700  0.45036400  1
  H  197  1  0.50524100  0.11527400  0.50314600  1
  H  198  1  0.52796700  0.10724200  0.48091800  1
  H  199  1  0.41674800  0.24014100  0.45329100  1
  H  200  1  0.38413300  0.24568100  0.47139200  1
  H  201  1  0.49158300  0.18419900  0.45326100  1
  H  202  1  0.44018600  0.17905300  0.51125800  1
  H  207  1  0.55480300  0.11955100  0.46046100  1
  H  208  1  0.49543000  0.20063700  0.43151000  1
  H  209  1  0.36121000  0.24125300  0.49659100  1
  H  210  1  0.44239600  0.16400400  0.53468200  1
  H  217  1  0.39233000  0.39437000  0.89710900  1
  H  226  1  0.48659500  0.38940000  0.93982700  1
  H  227  1  0.49287700  0.47918800  0.97681800  1
  H  228  1  0.51539400  0.46499400  0.98483200  1
  H  229  1  0.40479100  0.30464500  0.85232000  1
  H  230  1  0.37247400  0.31728900  0.84691100  1
  H  231  1  0.47884900  0.36038700  0.90795800  1
  H  232  1  0.42826000  0.42375000  0.91359500  1
  H  237  1  0.54218900  0.43226400  0.97230000  1
  H  238  1  0.48291600  0.32231700  0.89153400  1
  H  239  1  0.34981800  0.34683800  0.85126400  1
  H  240  1  0.43057300  0.46219600  0.92854500  1
  H  247  1  0.37986600  0.59476700  0.69857200  1
  H  256  1  0.47452400  0.64219500  0.70315400  1
  H  257  1  0.47515600  0.59042300  0.61375000  1
  H  258  1  0.50309500  0.61081200  0.62689400  1
  H  259  1  0.39219700  0.63889800  0.78775200  1
  H  260  1  0.35989600  0.62098900  0.77525800  1
  H  261  1  0.46677800  0.63891200  0.73189100  1
  H  262  1  0.41639500  0.58209700  0.67075300  1
  H  267  1  0.53026300  0.63146300  0.65988600  1
  H  268  1  0.47043300  0.66049700  0.76984500  1
  H  269  1  0.33696500  0.59606900  0.74579600  1
  H  270  1  0.41891100  0.55777300  0.62523800  1
  H  277  1  0.91696000  0.92732300  0.56416300  1
  H  286  1  0.01091600  0.96999500  0.61158800  1
  H  287  1  0.01750500  0.00703900  0.55889700  1
  H  288  1  0.04006500  0.01508000  0.58099300  1
  H  289  1  0.92907500  0.88237600  0.60880300  1
  H  290  1  0.89685800  0.87700500  0.59087000  1
  H  291  1  0.00314600  0.93811300  0.60866800  1
  H  292  1  0.95288700  0.94378100  0.55122900  1
  H  297  1  0.06682700  0.00284400  0.60131000  1
  H  298  1  0.00709900  0.92167200  0.63028600  1
  H  299  1  0.87413500  0.88146200  0.56586500  1
  H  300  1  0.95510800  0.95879500  0.52786200  1
  H  307  1  0.90455200  0.72844200  0.16508300  1
  H  316  1  0.99874200  0.73293000  0.12213800  1
  H  317  1  0.00542600  0.64316100  0.08503800  1
  H  318  1  0.02819600  0.65721000  0.07697200  1
  H  319  1  0.91659800  0.81791900  0.21007800  1
  H  320  1  0.88409100  0.80544200  0.21558400  1
  H  321  1  0.99144900  0.76187200  0.15403600  1
  H  322  1  0.94039800  0.69898400  0.14886000  1
  H  327  1  0.05483000  0.68974500  0.08902700  1
  H  328  1  0.99511200  0.80003300  0.17047700  1
  H  329  1  0.86110700  0.77590100  0.21105900  1
  H  330  1  0.94249900  0.66059200  0.13377800  1
  H  337  1  0.89174000  0.52810400  0.36387400  1
  H  346  1  0.98714900  0.48007300  0.35888500  1
  H  347  1  0.98704900  0.53237600  0.44836500  1
  H  348  1  0.01527800  0.51167800  0.43516500  1
  H  349  1  0.90470700  0.48336500  0.27439200  1
  H  350  1  0.87219800  0.50151100  0.28705300  1
  H  351  1  0.97925800  0.48327100  0.32999900  1
  H  352  1  0.92815400  0.54058300  0.39159000  1
  H  357  1  0.04242800  0.49079500  0.40207400  1
  H  358  1  0.98320500  0.46163700  0.29199200  1
  H  359  1  0.84939500  0.52680000  0.31668800  1
  H  360  1  0.93099000  0.56514900  0.43714200  1
  H  367  1  0.88017000  0.59422600  0.89728600  1
  H  376  1  0.97598800  0.64208800  0.94074600  1
  H  377  1  0.97928900  0.58664500  0.97415900  1
  H  378  1  0.00586300  0.60778200  0.98505800  1
  H  379  1  0.88798500  0.64200100  0.85708300  1
  H  380  1  0.86085600  0.62084900  0.84626500  1
  H  381  1  0.96604900  0.63866600  0.90805500  1
  H  382  1  0.91719300  0.58224400  0.91365900  1
  H  387  1  0.00341500  0.63787800  0.98642000  1
  H  388  1  0.97067700  0.66052200  0.89322500  1
  H  389  1  0.83331000  0.60037900  0.85415400  1
  H  390  1  0.91175800  0.56193700  0.93051200  1
  H  397  1  0.89216600  0.19512800  0.69803800  1
  H  406  1  0.98832400  0.15137000  0.70213800  1
  H  407  1  0.99165300  0.11795800  0.61324400  1
  H  408  1  0.01841100  0.10688100  0.62338300  1
  H  409  1  0.90033500  0.23571000  0.78606500  1
  H  410  1  0.87247400  0.24631600  0.77564000  1
  H  411  1  0.97879900  0.18411400  0.73151100  1
  H  412  1  0.92911100  0.17898500  0.66959200  1
  H  417  1  0.01606900  0.10585400  0.65225100  1
  H  418  1  0.97914200  0.19808700  0.76861600  1
  H  419  1  0.84488600  0.23849900  0.74728400  1
  H  420  1  0.92373400  0.16194300  0.63240300  1
  H  427  1  0.90394800  0.39453000  0.49833800  1
  H  436  1  0.00001400  0.38991100  0.45047200  1
  H  437  1  0.00383700  0.47895400  0.50558900  1
  H  438  1  0.03023300  0.46627600  0.48414500  1
  H  439  1  0.91268400  0.30648700  0.45013900  1
  H  440  1  0.88511600  0.31673800  0.47143800  1
  H  441  1  0.99091800  0.36050600  0.45338800  1
  H  442  1  0.94053400  0.42302100  0.51085700  1
  H  447  1  0.05728500  0.43329900  0.46028700  1
  H  448  1  0.99024400  0.32362100  0.43020100  1
  H  449  1  0.85765300  0.34528000  0.49230500  1
  H  450  1  0.93576900  0.46078400  0.53139100  1
  H  457  1  0.39166500  0.52839600  0.16512700  1
  H  466  1  0.48682900  0.48078100  0.12196900  1
  H  467  1  0.49335000  0.53535500  0.08744700  1
  H  468  1  0.51649900  0.51217300  0.07719700  1
  H  469  1  0.40043500  0.48049500  0.20523200  1
  H  470  1  0.37252400  0.50168400  0.21609300  1
  H  471  1  0.47886900  0.48365700  0.15408700  1
  H  472  1  0.42830400  0.54125700  0.14935500  1
  H  477  1  0.53723200  0.48455600  0.08208000  1
  H  478  1  0.47879700  0.46037900  0.16777600  1
  H  479  1  0.34501100  0.52245400  0.20839100  1
  H  480  1  0.42490600  0.56137100  0.13272100  1
  H  487  1  0.40408700  0.92728400  0.36436800  1
  H  496  1  0.49898100  0.97013500  0.35962100  1
  H  497  1  0.50543300  0.00470200  0.44867500  1
  H  498  1  0.52828900  0.01483200  0.43566900  1
  H  499  1  0.41258200  0.88751200  0.27638800  1
  H  500  1  0.38536100  0.87646400  0.28664300  1
  H  501  1  0.49057000  0.93804900  0.33036300  1
  H  502  1  0.44080400  0.94326800  0.39290900  1
  H  507  1  0.54899400  0.00987900  0.40329400  1
  H  508  1  0.49059200  0.92442200  0.29352400  1
  H  509  1  0.35781400  0.88423000  0.31512100  1
  H  510  1  0.43582800  0.96044300  0.43035800  1
  H  517  1  0.41653700  0.72828300  0.56414200  1
  H  526  1  0.51140900  0.73251400  0.61130900  1
  H  527  1  0.51677200  0.64361300  0.55692300  1
  H  528  1  0.54937600  0.65716800  0.57446700  1
  H  529  1  0.42462500  0.81620000  0.61162200  1
  H  530  1  0.39712300  0.80578200  0.59060800  1
  H  531  1  0.50286700  0.76174800  0.60842900  1
  H  532  1  0.45292000  0.69964500  0.55148400  1
  H  537  1  0.56312800  0.68967600  0.60735900  1
  H  538  1  0.50333700  0.79873400  0.63164200  1
  H  539  1  0.36946800  0.77748200  0.57020400  1
  H  540  1  0.44807700  0.66220100  0.53132400  1
  H  547  1  0.63769600  0.92712300  0.56434700  1
  H  556  1  0.54032200  0.97121000  0.61244100  1
  H  557  1  0.54302400  0.00778700  0.55992500  1
  H  558  1  0.51003600  0.01503400  0.57788300  1
  H  559  1  0.62436700  0.88260300  0.60906300  1
  H  560  1  0.65641900  0.87616100  0.59074000  1
  H  561  1  0.54996000  0.93843400  0.60908700  1
  H  562  1  0.60038800  0.94224700  0.55233700  1
  H  567  1  0.51319600  0.01639600  0.60787700  1
  H  568  1  0.54611700  0.92181800  0.63058500  1
  H  569  1  0.68410800  0.88387200  0.57002600  1
  H  570  1  0.60074200  0.96314800  0.52812500  1
  H  577  1  0.62528800  0.72841200  0.16510300  1
  H  586  1  0.52952800  0.73296700  0.12161300  1
  H  587  1  0.52805300  0.64387700  0.08408000  1
  H  588  1  0.49910100  0.65678900  0.07690600  1
  H  589  1  0.61191100  0.81777500  0.20951000  1
  H  590  1  0.64362200  0.80582300  0.21585500  1
  H  591  1  0.53825900  0.76217400  0.15408800  1
  H  592  1  0.58806400  0.70123400  0.14976000  1
  H  597  1  0.48426600  0.68682000  0.07985100  1
  H  598  1  0.53421500  0.80013300  0.17058500  1
  H  599  1  0.67126500  0.77738700  0.20803400  1
  H  600  1  0.58823900  0.65633100  0.12903700  1
  H  607  1  0.61272700  0.52810200  0.36378300  1
  H  616  1  0.51811900  0.48135500  0.35980900  1
  H  617  1  0.51116600  0.53433300  0.44950600  1
  H  618  1  0.48552100  0.51363200  0.43486600  1
  H  619  1  0.60005700  0.48336400  0.27448900  1
  H  620  1  0.63182000  0.50150400  0.28632500  1
  H  621  1  0.52615500  0.48369200  0.33052700  1
  H  622  1  0.57692800  0.54103800  0.39289300  1
  H  627  1  0.47182700  0.48287300  0.40266500  1
  H  628  1  0.52231100  0.46208500  0.29243300  1
  H  629  1  0.65966200  0.52188200  0.31459700  1
  H  630  1  0.57483500  0.56449600  0.43015900  1
  H  637  1  0.12540100  0.19533900  0.49771400  1
  H  646  1  0.02999400  0.15231300  0.45048300  1
  H  647  1  0.02839800  0.11416000  0.50168700  1
  H  648  1  0.00030600  0.10795000  0.48162600  1
  H  649  1  0.11209200  0.23983900  0.45308200  1
  H  650  1  0.14373600  0.24610200  0.47126400  1
  H  651  1  0.03845900  0.18434500  0.45333400  1
  H  652  1  0.08835700  0.18041300  0.51008500  1
  H  657  1  0.98000700  0.11264800  0.45469100  1
  H  658  1  0.03446700  0.20080000  0.43184600  1
  H  659  1  0.17155500  0.23822800  0.49171700  1
  H  660  1  0.08856300  0.15942700  0.53423700  1
  H  667  1  0.11343700  0.39355800  0.89684200  1
  H  676  1  0.01784800  0.38959400  0.94010900  1
  H  677  1  0.01598200  0.47897500  0.97814700  1
  H  678  1  0.98766100  0.46526300  0.98457500  1
  H  679  1  0.10012500  0.30455300  0.85228000  1
  H  680  1  0.13209700  0.31639100  0.84590400  1
  H  681  1  0.02571900  0.36048300  0.90807200  1
  H  682  1  0.07637000  0.42097900  0.91152100  1
  H  687  1  0.96767700  0.43360200  0.98002500  1
  H  688  1  0.02201500  0.32243700  0.89162500  1
  H  689  1  0.15994000  0.34470500  0.85369800  1
  H  690  1  0.07663900  0.46621000  0.93277300  1
  H  697  1  0.10077800  0.59396500  0.69799400  1
  H  706  1  0.00527100  0.64152400  0.70231800  1
  H  707  1  0.99962900  0.58839200  0.61286700  1
  H  708  1  0.96725100  0.60530900  0.62801800  1
  H  709  1  0.08750200  0.63933000  0.78760600  1
  H  710  1  0.11943300  0.62096700  0.77568700  1
  H  711  1  0.01364200  0.63906000  0.73182200  1
  H  712  1  0.06508600  0.58134700  0.66898800  1
  H  717  1  0.95395300  0.63790400  0.65985900  1
  H  718  1  0.00953600  0.66071500  0.76996200  1
  H  719  1  0.14705500  0.60020800  0.74720600  1
  H  720  1  0.06275100  0.55756300  0.63163400  1
  H  728  1  0.08791600  0.49021400  0.24792200  1
  H  732  1  0.93952400  0.44365000  0.19342100  1
  H  733  1  0.06560500  0.49158700  0.27598500  1
  H  734  1  0.91723000  0.44499100  0.22194600  1
  H  744  1  0.10038900  0.84408600  0.24304500  1
  H  748  1  0.95120800  0.89910400  0.25117800  1
  H  749  1  0.07839000  0.81609400  0.21646200  1
  H  750  1  0.92920300  0.87067800  0.22412900  1
  H  760  1  0.11288200  0.84911000  0.60190700  1
  H  764  1  0.96344400  0.84121900  0.64877400  1
  H  765  1  0.09046400  0.87582900  0.60055700  1
  H  766  1  0.94113800  0.86837800  0.64744400  1
  H  776  1  0.57622400  0.63203700  0.81389700  1
  H  780  1  0.42661500  0.67901700  0.86891700  1
  H  781  1  0.55406000  0.63065400  0.78587800  1
  H  782  1  0.40450200  0.67766300  0.84048000  1
  H  792  1  0.58816400  0.27811400  0.81890500  1
  H  796  1  0.43936500  0.22359300  0.81103600  1
  H  797  1  0.56569700  0.30619400  0.84563500  1
  H  798  1  0.41695400  0.25214500  0.83826700  1
  H  808  1  0.60013500  0.27326600  0.46009000  1
  H  812  1  0.45155300  0.28133200  0.41341200  1
  H  813  1  0.57805800  0.24664800  0.46149100  1
  H  814  1  0.42946800  0.25424300  0.41477900  1
  H  824  1  0.90466000  0.63225700  0.81417100  1
  H  828  1  0.05304200  0.67881900  0.86872200  1
  H  829  1  0.92696000  0.63087900  0.78613800  1
  H  830  1  0.07533800  0.67747100  0.84016200  1
  H  840  1  0.91658900  0.27837600  0.81906600  1
  H  844  1  0.06576900  0.22335900  0.81093300  1
  H  845  1  0.93859400  0.30636700  0.84564800  1
  H  846  1  0.08778000  0.25178200  0.83798100  1
  H  856  1  0.92854100  0.27334800  0.46020300  1
  H  860  1  0.07796100  0.28125200  0.41334000  1
  H  861  1  0.95095200  0.24663600  0.46155500  1
  H  862  1  0.10027700  0.25408300  0.41466600  1
  H  872  1  0.41632800  0.49042700  0.24821600  1
  H  876  1  0.56593900  0.44344700  0.19319900  1
  H  877  1  0.43849700  0.49180700  0.27623300  1
  H  878  1  0.58805000  0.44480100  0.22163500  1
  H  888  1  0.42879700  0.84434800  0.24321700  1
  H  892  1  0.57762100  0.89885100  0.25106100  1
  H  893  1  0.45128600  0.81626200  0.21647500  1
  H  894  1  0.60002400  0.87031700  0.22384600  1
  H  904  1  0.44127500  0.84919600  0.60202300  1
  H  908  1  0.58985400  0.84112800  0.64870000  1
  H  909  1  0.46335800  0.87581100  0.60062000  1
  H  910  1  0.61194500  0.86821700  0.64733100  1
  H  920  1  0.21509700  0.57852000  0.23886900  1
  H  924  1  0.23230600  0.48592900  0.14626900  1
  H  925  1  0.27294400  0.58115400  0.24152500  1
  H  926  1  0.28920600  0.48844600  0.14887900  1
  H  936  1  0.22770700  0.85354500  0.34053000  1
  H  940  1  0.24401400  0.94604800  0.34053700  1
  H  941  1  0.28558700  0.85070500  0.34051000  1
  H  942  1  0.30096200  0.94331000  0.34044700  1
  H  952  1  0.23995000  0.75175800  0.51390400  1
  H  956  1  0.25625500  0.75174900  0.60640300  1
  H  957  1  0.29782300  0.75177600  0.51108200  1
  H  958  1  0.31319500  0.75184200  0.60375400  1
  H  968  1  0.70342900  0.54411600  0.82341400  1
  H  972  1  0.71943300  0.63658400  0.91589000  1
  H  973  1  0.76131700  0.54123600  0.82051600  1
  H  974  1  0.77639400  0.63389300  0.91310900  1
  H  984  1  0.71525000  0.26899800  0.72158100  1
  H  988  1  0.73215300  0.17642700  0.72157300  1
  H  989  1  0.77310100  0.27171300  0.72160200  1
  H  990  1  0.78906600  0.17907800  0.72166300  1
  H  1000  1  0.72743300  0.37070800  0.54830500  1
  H  1004  1  0.74434400  0.37071300  0.45574600  1
  H  1005  1  0.78528900  0.37068600  0.55100300  1
  H  1006  1  0.80126000  0.37062200  0.45830700  1
  H  1016  1  0.30134100  0.26886600  0.54816500  1
  H  1020  1  0.28533700  0.17640200  0.45570700  1
  H  1021  1  0.24345700  0.27176400  0.55104500  1
  H  1022  1  0.22838600  0.17917900  0.45839500  1
  H  1032  1  0.28952000  0.37070700  0.82329200  1
  H  1036  1  0.27261500  0.37071300  0.91585100  1
  H  1037  1  0.23167200  0.37068700  0.82057700  1
  H  1038  1  0.21571500  0.37062300  0.91320400  1
  H  1048  1  0.27733300  0.54398400  0.72157900  1
  H  1052  1  0.26042900  0.63653500  0.72157200  1
  H  1053  1  0.21948000  0.54129200  0.72160100  1
  H  1054  1  0.20352100  0.63397900  0.72166200  1
  H  1064  1  0.81409900  0.85342200  0.51376900  1
  H  1068  1  0.79689300  0.94601000  0.60635100  1
  H  1069  1  0.75625700  0.85076800  0.51113800  1
  H  1070  1  0.74000500  0.94340600  0.60383900  1
  H  1080  1  0.80149100  0.75175600  0.23873800  1
  H  1084  1  0.78518600  0.75174900  0.14624300  1
  H  1085  1  0.74361800  0.75177700  0.24157700  1
  H  1086  1  0.72824500  0.75184200  0.14897900  1
  H  1096  1  0.78924400  0.57838400  0.34053000  1
  H  1100  1  0.77294500  0.48589200  0.34053800  1
  H  1101  1  0.73137700  0.58120000  0.34051100  1
  H  1102  1  0.71601300  0.48853500  0.34044900  1
  H  1112  1  0.99168600  0.64668200  0.16775700  1
  H  1116  1  0.99881700  0.58592400  0.06079000  1
  H  1117  1  0.01764900  0.62134000  0.17055300  1
  H  1118  1  0.02453700  0.56030900  0.06363900  1
  H  1128  1  0.00399000  0.92459200  0.47972900  1
  H  1132  1  0.01092800  0.03152900  0.52614200  1
  H  1133  1  0.02997900  0.92170900  0.45153900  1
  H  1134  1  0.03665000  0.02857600  0.49761200  1
  H  1144  1  0.01642300  0.61256200  0.44569600  1
  H  1148  1  0.02350100  0.56630400  0.50671300  1
  H  1149  1  0.04224300  0.64073300  0.47094800  1
  H  1150  1  0.04907800  0.59473200  0.53206700  1
  H  1160  1  0.47964300  0.47600100  0.89442600  1
  H  1164  1  0.48655400  0.53647300  0.00131500  1
  H  1165  1  0.50550200  0.50118300  0.89155400  1
  H  1166  1  0.51213800  0.56192800  0.99837500  1
  H  1176  1  0.49176400  0.19792500  0.58238200  1
  H  1180  1  0.49887300  0.09100600  0.53616900  1
  H  1181  1  0.51759900  0.20070600  0.61038200  1
  H  1182  1  0.52445100  0.09383900  0.56449700  1
  H  1192  1  0.50405500  0.51004000  0.61658700  1
  H  1196  1  0.51118900  0.55629100  0.55547100  1
  H  1197  1  0.53014300  0.48159500  0.59107300  1
  H  1198  1  0.53703700  0.52760700  0.52987200  1
  H  1208  1  0.00079000  0.47572400  0.89448800  1
  H  1212  1  0.99329500  0.53726900  0.00197700  1
  H  1213  1  0.97473300  0.50113200  0.89142200  1
  H  1214  1  0.96757100  0.56268300  0.99873900  1
  H  1224  1  0.01291700  0.19772000  0.58216900  1
  H  1228  1  0.00561700  0.09028200  0.53604500  1
  H  1229  1  0.98683200  0.20089200  0.61071600  1
  H  1230  1  0.97988500  0.09362600  0.56475900  1
  H  1240  1  0.02506200  0.50983300  0.61620500  1
  H  1244  1  0.01801800  0.55610200  0.55544400  1
  H  1245  1  0.99935400  0.48187700  0.59117800  1
  H  1246  1  0.99254300  0.52776000  0.53019000  1
  H  1256  1  0.51284200  0.64651900  0.16751700  1
  H  1260  1  0.50556600  0.58525900  0.06013200  1
  H  1261  1  0.48691800  0.62130900  0.17070100  1
  H  1262  1  0.47993500  0.55999200  0.06347200  1
  H  1272  1  0.52513600  0.92465400  0.47990900  1
  H  1276  1  0.51767700  0.03210500  0.52587400  1
  H  1277  1  0.49921200  0.92160600  0.45158000  1
  H  1278  1  0.49206700  0.02887800  0.49733900  1
  H  1288  1  0.53740800  0.61251400  0.44575300  1
  H  1292  1  0.53031800  0.56622600  0.50661600  1
  H  1293  1  0.51145600  0.64072000  0.47102700  1
  H  1294  1  0.50457000  0.59483500  0.53210100  1
  H  1304  1  0.01223000  0.38980500  0.00870600  1
  H  1308  1  0.94676600  0.48133200  0.01798500  1
  H  1309  1  0.01424400  0.40463900  0.04340900  1
  H  1310  1  0.94849200  0.49605300  0.05228600  1
  H  1320  1  0.02443700  0.08344200  0.38191100  1
  H  1324  1  0.95886500  0.07449400  0.46433700  1
  H  1325  1  0.02647400  0.04872700  0.36201900  1
  H  1326  1  0.96037400  0.04024000  0.44467000  1
  H  1336  1  0.03650200  0.71006000  0.70242700  1
  H  1340  1  0.96880400  0.62952100  0.61112800  1
  H  1341  1  0.03854600  0.73004700  0.68758600  1
  H  1342  1  0.97320700  0.64836200  0.59637600  1
  H  1352  1  0.49959300  0.73236100  0.05361200  1
  H  1356  1  0.43266300  0.64224500  0.04503400  1
  H  1357  1  0.50174800  0.71764000  0.01885100  1
  H  1358  1  0.43625900  0.62710700  0.01079500  1
  H  1368  1  0.51218200  0.03908600  0.68052300  1
  H  1372  1  0.44511000  0.04705400  0.59855500  1
  H  1373  1  0.51393000  0.07367200  0.69991400  1
  H  1374  1  0.44897300  0.08131500  0.61704600  1
  H  1384  1  0.52441800  0.41211700  0.35964500  1
  H  1388  1  0.45982800  0.49448600  0.45154500  1
  H  1389  1  0.52651100  0.39216000  0.37438000  1
  H  1390  1  0.46033800  0.47466000  0.46601400  1
  H  1400  1  0.50487600  0.03902900  0.35985700  1
  H  1404  1  0.57026200  0.04795700  0.45093900  1
  H  1405  1  0.50284400  0.07372800  0.37467300  1
  H  1406  1  0.56899300  0.08214300  0.46543900  1
  H  1416  1  0.49263000  0.41225400  0.05338000  1
  H  1420  1  0.55793200  0.49425100  0.04412000  1
  H  1421  1  0.49063700  0.39242300  0.01870100  1
  H  1422  1  0.55640100  0.47465900  0.00989100  1
  H  1432  1  0.48023600  0.73292400  0.68019500  1
  H  1436  1  0.54823500  0.64100600  0.59902900  1
  H  1437  1  0.47819000  0.71805700  0.70019900  1
  H  1438  1  0.54409900  0.62631400  0.61793600  1
  H  1448  1  0.01691300  0.08338100  0.70280400  1
  H  1452  1  0.08421200  0.07543100  0.61258100  1
  H  1453  1  0.01516000  0.04878700  0.68760900  1
  H  1454  1  0.08049800  0.04119900  0.59687700  1
  H  1464  1  0.99195000  0.71321200  0.01036200  1
  H  1468  1  0.07196200  0.62840600  0.01663600  1
  H  1469  1  0.00314000  0.73097600  0.04439900  1
  H  1470  1  0.06862200  0.64707900  0.05088300  1
  H  1480  1  0.99225600  0.38955400  0.38129500  1
  H  1484  1  0.05692700  0.48071900  0.46347600  1
  H  1485  1  0.99057500  0.40480800  0.36184900  1
  H  1486  1  0.05626000  0.49552800  0.44415500  1
  C  1  1  0.06640900  0.50644900  0.15632000  1
  C  2  1  0.09865600  0.51759800  0.16869500  1
  C  3  1  0.11430200  0.51467500  0.18596000  1
  C  4  1  0.09621800  0.49886200  0.19072300  1
  C  5  1  0.06327900  0.48689200  0.17899000  1
  C  6  1  0.05015400  0.49143900  0.16224700  1
  C  9  1  0.05052400  0.51001000  0.13873500  1
  C  10  1  0.05890300  0.52919300  0.13701200  1
  C  11  1  0.04448100  0.53431900  0.12089200  1
  C  12  1  0.01968300  0.51829500  0.10475800  1
  C  13  1  0.01040000  0.49832500  0.10559400  1
  C  14  1  0.02548800  0.49488500  0.12245400  1
  C  23  1  0.98329100  0.48343900  0.09200000  1
  C  24  1  0.04093700  0.47071900  0.18119200  1
  C  25  1  0.14839600  0.52555600  0.19648700  1
  C  26  1  0.05728300  0.55497800  0.12314000  1
  C  31  1  0.07844800  0.93590500  0.35091100  1
  C  32  1  0.11094800  0.92347700  0.34964800  1
  C  33  1  0.12671400  0.90617900  0.32940200  1
  C  34  1  0.10855800  0.90142800  0.30889900  1
  C  35  1  0.07531800  0.91323800  0.30870500  1
  C  36  1  0.06207500  0.93009100  0.33005900  1
  C  39  1  0.06272000  0.95346900  0.37216100  1
  C  40  1  0.07129200  0.95508200  0.39300100  1
  C  41  1  0.05679200  0.97130800  0.41430700  1
  C  42  1  0.03180900  0.98760700  0.41447000  1
  C  43  1  0.02247300  0.98683600  0.39370500  1
  C  44  1  0.03761800  0.96991500  0.37334700  1
  C  53  1  0.99515900  0.00043300  0.39232900  1
  C  54  1  0.05286000  0.91101100  0.29034400  1
  C  55  1  0.16102000  0.89567000  0.32978400  1
  C  56  1  0.06966500  0.96899600  0.43267900  1
  C  61  1  0.09079900  0.74124200  0.58580100  1
  C  62  1  0.12329200  0.74240100  0.57452500  1
  C  63  1  0.13889500  0.76259100  0.57747800  1
  C  64  1  0.12073200  0.78324100  0.59335300  1
  C  65  1  0.08761300  0.78342300  0.60526700  1
  C  66  1  0.07431600  0.76223700  0.60091500  1
  C  69  1  0.07499800  0.72011000  0.58221700  1
  C  70  1  0.08358600  0.69919200  0.56292300  1
  C  71  1  0.06905700  0.67802100  0.55784700  1
  C  72  1  0.04408700  0.67790200  0.57398500  1
  C  73  1  0.03462600  0.69875300  0.59401900  1
  C  74  1  0.04975400  0.71901300  0.59749000  1
  C  83  1  0.00762600  0.70019500  0.60917900  1
  C  84  1  0.06570400  0.80197400  0.62141400  1
  C  85  1  0.17311600  0.76220400  0.56653800  1
  C  86  1  0.08185100  0.65960900  0.53707600  1
  C  91  1  0.55403500  0.61601700  0.90577000  1
  C  92  1  0.58661100  0.60477200  0.89331000  1
  C  93  1  0.60230600  0.60771900  0.87602800  1
  C  94  1  0.58413900  0.62355700  0.87127800  1
  C  95  1  0.55085100  0.63556100  0.88308800  1
  C  96  1  0.53757200  0.63112100  0.89994100  1
  C  99  1  0.53827900  0.61236800  0.92333800  1
  C  100  1  0.54693800  0.59307000  0.92491300  1
  C  101  1  0.53238100  0.58798900  0.94108000  1
  C  102  1  0.50735100  0.60420000  0.95742400  1
  C  103  1  0.49785100  0.62428100  0.95672800  1
  C  104  1  0.51302600  0.62768200  0.93981400  1
  C  113  1  0.47059100  0.63948200  0.97059000  1
  C  114  1  0.52861500  0.65173900  0.88081300  1
  C  115  1  0.63664400  0.59681000  0.86551500  1
  C  116  1  0.54509200  0.56715700  0.93868600  1
  C  121  1  0.56642400  0.18645900  0.71103300  1
  C  122  1  0.59874900  0.19886600  0.71221300  1
  C  123  1  0.61431900  0.21610400  0.73238500  1
  C  124  1  0.59618800  0.22086200  0.75304200  1
  C  125  1  0.56319500  0.20909700  0.75328900  1
  C  126  1  0.55006600  0.19239200  0.73204900  1
  C  129  1  0.55051100  0.16887400  0.68991800  1
  C  130  1  0.55896700  0.16718700  0.66897500  1
  C  131  1  0.54449400  0.15112900  0.64778400  1
  C  132  1  0.51965800  0.13494800  0.64771100  1
  C  133  1  0.51023700  0.13570100  0.66852300  1
  C  134  1  0.52533900  0.15255400  0.68878900  1
  C  143  1  0.48312500  0.12184000  0.66967200  1
  C  144  1  0.54088900  0.21125700  0.77174600  1
  C  145  1  0.64844200  0.22664400  0.73201300  1
  C  146  1  0.55720800  0.15338700  0.62927600  1
  C  151  1  0.57852800  0.38109600  0.47623700  1
  C  152  1  0.61086500  0.37983200  0.48735900  1
  C  153  1  0.62661300  0.35960900  0.48442500  1
  C  154  1  0.60850400  0.33911200  0.46869500  1
  C  155  1  0.57543600  0.33889500  0.45673300  1
  C  156  1  0.56226300  0.36024200  0.46125400  1
  C  159  1  0.56272500  0.40229600  0.47986400  1
  C  160  1  0.57118600  0.42312400  0.49901600  1
  C  161  1  0.55679100  0.44440000  0.50406800  1
  C  162  1  0.53187200  0.44460600  0.48808200  1
  C  163  1  0.52262000  0.42383700  0.46814800  1
  C  164  1  0.53773000  0.40349200  0.46470600  1
  C  173  1  0.49544900  0.42246000  0.45326200  1
  C  174  1  0.55304100  0.32056300  0.44061800  1
  C  175  1  0.66079200  0.35997000  0.49530000  1
  C  176  1  0.56997800  0.46275000  0.52449100  1
  C  181  1  0.45076600  0.18646800  0.47628600  1
  C  182  1  0.41816800  0.19900100  0.48738300  1
  C  183  1  0.40242800  0.21611900  0.48411100  1
  C  184  1  0.42073400  0.22089900  0.46825000  1
  C  185  1  0.45386900  0.20868000  0.45633000  1
  C  186  1  0.46726800  0.19201200  0.46093200  1
  C  189  1  0.46623300  0.16896400  0.48019800  1
  C  190  1  0.45713400  0.16704700  0.49936300  1
  C  191  1  0.47071100  0.15018900  0.50386300  1
  C  192  1  0.49678800  0.13444100  0.48789100  1
  C  193  1  0.50666900  0.13565700  0.46815000  1
  C  194  1  0.49145800  0.15255000  0.46480600  1
  C  203  1  0.53398400  0.12207100  0.45297600  1
  C  204  1  0.47694000  0.21227100  0.44143800  1
  C  205  1  0.36823800  0.22678200  0.49526400  1
  C  206  1  0.46025100  0.15192000  0.52486600  1
  C  211  1  0.43838000  0.38132400  0.90589300  1
  C  212  1  0.40604100  0.37991200  0.89340000  1
  C  213  1  0.39041500  0.35957500  0.87632500  1
  C  214  1  0.40864600  0.33885400  0.87152800  1
  C  215  1  0.44147000  0.33913500  0.88368300  1
  C  216  1  0.45473800  0.36034000  0.90025000  1
  C  219  1  0.45402200  0.40263800  0.92341700  1
  C  220  1  0.44511600  0.42378400  0.92543700  1
  C  221  1  0.45865400  0.44507400  0.94216700  1
  C  222  1  0.48449100  0.44481200  0.95778400  1
  C  223  1  0.49431400  0.42382300  0.95654700  1
  C  224  1  0.47918100  0.40364600  0.93968400  1
  C  233  1  0.52158200  0.42227600  0.97008000  1
  C  234  1  0.46447400  0.32062000  0.88007300  1
  C  235  1  0.35644800  0.36004700  0.86565200  1
  C  236  1  0.44816100  0.46438500  0.94052200  1
  C  241  1  0.42622800  0.61629900  0.71147700  1
  C  242  1  0.39383900  0.60519800  0.71280100  1
  C  243  1  0.37809100  0.60831800  0.73308400  1
  C  244  1  0.39631300  0.62406400  0.75360200  1
  C  245  1  0.42920100  0.63592600  0.75335400  1
  C  246  1  0.44263000  0.63138700  0.73214900  1
  C  249  1  0.44216800  0.61279300  0.69050300  1
  C  250  1  0.43308900  0.59374100  0.67006200  1
  C  251  1  0.44612900  0.58965300  0.64907300  1
  C  252  1  0.47204400  0.60476700  0.64794100  1
  C  253  1  0.48232600  0.62429300  0.66867000  1
  C  254  1  0.46720700  0.62781500  0.68905000  1
  C  263  1  0.50937400  0.63919200  0.66992700  1
  C  264  1  0.45216600  0.65070100  0.77167600  1
  C  265  1  0.34405100  0.59721200  0.73256400  1
  C  266  1  0.43130200  0.57118700  0.63329100  1
  C  271  1  0.96285100  0.93604300  0.58583000  1
  C  272  1  0.93057600  0.92357600  0.57482100  1
  C  273  1  0.91486100  0.90646700  0.57806100  1
  C  274  1  0.93304700  0.90165200  0.59388400  1
  C  275  1  0.96581200  0.91376900  0.60571700  1
  C  276  1  0.97910500  0.93038000  0.60107800  1
  C  279  1  0.97850400  0.95360500  0.58205300  1
  C  280  1  0.96963400  0.95563700  0.56299800  1
  C  281  1  0.98315200  0.97241400  0.55845500  1
  C  282  1  0.00894700  0.98801900  0.57425600  1
  C  283  1  0.01868800  0.98684400  0.59399200  1
  C  284  1  0.00355800  0.96988500  0.59725900  1
  C  293  1  0.04591200  0.00055100  0.60897400  1
  C  294  1  0.98871300  0.91020200  0.62059300  1
  C  295  1  0.88091600  0.89581000  0.56695800  1
  C  296  1  0.97271200  0.97076500  0.53757400  1
  C  301  1  0.95080200  0.74128400  0.15630600  1
  C  302  1  0.91827300  0.74277400  0.16882200  1
  C  303  1  0.90244500  0.76317700  0.18597600  1
  C  304  1  0.92070000  0.78373200  0.19076200  1
  C  305  1  0.95378800  0.78342400  0.17858700  1
  C  306  1  0.96719300  0.76210800  0.16186600  1
  C  309  1  0.96630200  0.71984300  0.13877300  1
  C  310  1  0.95725400  0.69881800  0.13684500  1
  C  311  1  0.97080600  0.67742800  0.11994100  1
  C  312  1  0.99684600  0.67759200  0.10420800  1
  C  313  1  0.00668200  0.69847200  0.10536400  1
  C  314  1  0.99143300  0.71875000  0.12234600  1
  C  323  1  0.03391300  0.69985000  0.09158100  1
  C  324  1  0.97680400  0.80183500  0.18218700  1
  C  325  1  0.86827900  0.76271600  0.19662500  1
  C  326  1  0.96028200  0.65823400  0.12166700  1
  C  331  1  0.93838500  0.50620800  0.35073700  1
  C  332  1  0.90586500  0.51747500  0.34952300  1
  C  333  1  0.89027000  0.51430100  0.32926100  1
  C  334  1  0.90858700  0.49836800  0.30857200  1
  C  335  1  0.94159500  0.48641800  0.30880400  1
  C  336  1  0.95498200  0.49094100  0.32991400  1
  C  339  1  0.95433900  0.50967900  0.37164000  1
  C  340  1  0.94511300  0.52887000  0.39216000  1
  C  341  1  0.95826700  0.53297600  0.41305200  1
  C  342  1  0.98427400  0.51775900  0.41414900  1
  C  343  1  0.99479800  0.49813600  0.39333300  1
  C  344  1  0.97963400  0.49456100  0.37302200  1
  C  353  1  0.02197600  0.48307600  0.39199300  1
  C  354  1  0.96470400  0.47152200  0.29033600  1
  C  355  1  0.85618600  0.52549500  0.32983000  1
  C  356  1  0.94352900  0.55162300  0.42898500  1
  C  361  1  0.92614700  0.61605800  0.90606200  1
  C  362  1  0.89395000  0.60464300  0.89330700  1
  C  363  1  0.87837400  0.60693500  0.87551500  1
  C  364  1  0.89630700  0.62330600  0.87129300  1
  C  365  1  0.92918900  0.63563800  0.88326100  1
  C  366  1  0.94228200  0.63095400  0.89996500  1
  C  369  1  0.94307300  0.61282400  0.92392500  1
  C  370  1  0.93444400  0.59364900  0.92550900  1
  C  371  1  0.94882000  0.58840600  0.94152800  1
  C  372  1  0.97478800  0.60387700  0.95751700  1
  C  373  1  0.98734100  0.62330400  0.95630000  1
  C  374  1  0.96947800  0.62743800  0.94017300  1
  C  383  1  0.01076800  0.63952300  0.97385700  1
  C  384  1  0.95226900  0.65207600  0.88121600  1
  C  385  1  0.84393100  0.59592200  0.86439600  1
  C  386  1  0.93508700  0.56786200  0.93906600  1
  C  391  1  0.93852700  0.18627900  0.71098400  1
  C  392  1  0.90605700  0.19908600  0.71235200  1
  C  393  1  0.89037100  0.21692100  0.73249400  1
  C  394  1  0.90834500  0.22115500  0.75300500  1
  C  395  1  0.94151100  0.20920800  0.75324200  1
  C  396  1  0.95480400  0.19227200  0.73189000  1
  C  399  1  0.95527700  0.16844000  0.68977400  1
  C  400  1  0.94645700  0.16697600  0.66908600  1
  C  401  1  0.96093600  0.15084200  0.64777200  1
  C  402  1  0.98709300  0.13469800  0.64715600  1
  C  403  1  0.99967100  0.13589000  0.66776600  1
  C  404  1  0.98177200  0.15203500  0.68810900  1
  C  413  1  0.02318200  0.11831500  0.66645100  1
  C  414  1  0.96401100  0.21146000  0.77167400  1
  C  415  1  0.85578500  0.22810000  0.73259200  1
  C  416  1  0.94727000  0.15333500  0.62972300  1
  C  421  1  0.95038200  0.38132800  0.47636800  1
  C  422  1  0.91796400  0.38009800  0.48784800  1
  C  423  1  0.90253400  0.36001000  0.48547600  1
  C  424  1  0.92060800  0.33938200  0.46906600  1
  C  425  1  0.95369900  0.33914400  0.45695400  1
  C  426  1  0.96693100  0.36034100  0.46128900  1
  C  429  1  0.96656900  0.40250100  0.47991900  1
  C  430  1  0.95779400  0.42335900  0.49926500  1
  C  431  1  0.97215500  0.44465200  0.50458700  1
  C  432  1  0.99788700  0.44504100  0.48898400  1
  C  433  1  0.00924400  0.42438500  0.46964000  1
  C  434  1  0.99269900  0.40396300  0.46514000  1
  C  443  1  0.03456300  0.42423100  0.45437700  1
  C  444  1  0.97572900  0.32056200  0.44064500  1
  C  445  1  0.86797000  0.35994500  0.49651800  1
  C  446  1  0.95941600  0.46306500  0.52536700  1
  C  451  1  0.43821300  0.50659600  0.15641100  1
  C  452  1  0.40569300  0.51798700  0.16908700  1
  C  453  1  0.39021500  0.51560100  0.18682700  1
  C  454  1  0.40829800  0.49922500  0.19100200  1
  C  455  1  0.44152500  0.48704700  0.17906300  1
  C  456  1  0.45477900  0.49147400  0.16219100  1
  C  459  1  0.45387500  0.51022600  0.13872100  1
  C  460  1  0.44533000  0.52955000  0.13722300  1
  C  461  1  0.45977500  0.53455900  0.12088300  1
  C  462  1  0.48472200  0.51864700  0.10442300  1
  C  463  1  0.49368400  0.49868100  0.10501800  1
  C  464  1  0.47902200  0.49512000  0.12204100  1
  C  473  1  0.52508300  0.48595100  0.09504100  1
  C  474  1  0.46303200  0.47073900  0.18141100  1
  C  475  1  0.35563200  0.52669500  0.19794400  1
  C  476  1  0.44716100  0.55489000  0.12297200  1
  C  481  1  0.45027000  0.93592700  0.35116400  1
  C  482  1  0.41800600  0.92330600  0.34992000  1
  C  483  1  0.40262600  0.90562100  0.32985400  1
  C  484  1  0.42063100  0.90142300  0.30923400  1
  C  485  1  0.45354100  0.91328200  0.30895200  1
  C  486  1  0.46670000  0.93004000  0.33017400  1
  C  489  1  0.46608200  0.95363600  0.37238000  1
  C  490  1  0.45771900  0.95524600  0.39327100  1
  C  491  1  0.47195200  0.97139900  0.41454800  1
  C  492  1  0.49681600  0.98776500  0.41506400  1
  C  493  1  0.50562500  0.98716100  0.39447100  1
  C  494  1  0.49117700  0.97013900  0.37392000  1
  C  503  1  0.53685400  0.99708300  0.39167100  1
  C  504  1  0.47578500  0.91107900  0.29044200  1
  C  505  1  0.36823500  0.89451900  0.32979000  1
  C  506  1  0.45907700  0.96897200  0.43274500  1
  C  511  1  0.46265900  0.74127600  0.58576000  1
  C  512  1  0.43035600  0.74259800  0.57447300  1
  C  513  1  0.41480800  0.76271000  0.57682300  1
  C  514  1  0.43278800  0.78318400  0.59309000  1
  C  515  1  0.46577600  0.78345800  0.60524700  1
  C  516  1  0.47895000  0.76212000  0.60075300  1
  C  519  1  0.47913100  0.72003500  0.58193800  1
  C  520  1  0.47021600  0.69922300  0.56290000  1
  C  521  1  0.48457700  0.67785100  0.55762800  1
  C  522  1  0.51064000  0.67745800  0.57293100  1
  C  523  1  0.52178800  0.69805600  0.59214100  1
  C  524  1  0.50531300  0.71853700  0.59643700  1
  C  533  1  0.53951200  0.69825600  0.60999700  1
  C  534  1  0.48827400  0.80182700  0.62141800  1
  C  535  1  0.38034800  0.76277700  0.56579100  1
  C  536  1  0.47152900  0.65958200  0.53721700  1
  C  541  1  0.59072500  0.93611200  0.58624500  1
  C  542  1  0.62335300  0.92327300  0.57473000  1
  C  543  1  0.63894600  0.90559000  0.57720400  1
  C  544  1  0.62075700  0.90135100  0.59356600  1
  C  545  1  0.58770200  0.91368200  0.60570500  1
  C  546  1  0.57416100  0.93042500  0.60131400  1
  C  549  1  0.57375500  0.95380400  0.58308700  1
  C  550  1  0.58341000  0.95482900  0.56390800  1
  C  551  1  0.57101300  0.97182200  0.55983800  1
  C  552  1  0.54334200  0.98796300  0.57425100  1
  C  553  1  0.52953400  0.98644700  0.59332500  1
  C  554  1  0.54720200  0.97040800  0.59769300  1
  C  563  1  0.50590600  0.00398900  0.60965900  1
  C  564  1  0.56457500  0.91016200  0.62064100  1
  C  565  1  0.67347300  0.89436800  0.56587100  1
  C  566  1  0.58804400  0.96878600  0.54164900  1
  C  571  1  0.57874800  0.74146400  0.15624100  1
  C  572  1  0.61110700  0.74274300  0.16896000  1
  C  573  1  0.62657100  0.76285400  0.18655300  1
  C  574  1  0.60844900  0.78352600  0.19079800  1
  C  575  1  0.57570600  0.78335900  0.17854000  1
  C  576  1  0.56230400  0.76229200  0.16193100  1
  C  579  1  0.56189800  0.72067400  0.13865900  1
  C  580  1  0.57118900  0.70030900  0.13734200  1
  C  581  1  0.55851100  0.67933400  0.12042900  1
  C  582  1  0.53158800  0.67790000  0.10421300  1
  C  583  1  0.51981700  0.69856200  0.10553000  1
  C  584  1  0.53620500  0.71881900  0.12210500  1
  C  593  1  0.49978000  0.70000900  0.08858600  1
  C  594  1  0.55262400  0.80183800  0.18207100  1
  C  595  1  0.66085000  0.76271600  0.19774800  1
  C  596  1  0.57550000  0.66416300  0.12341700  1
  C  601  1  0.56663500  0.50650300  0.35101600  1
  C  602  1  0.59889600  0.51768000  0.34949700  1
  C  603  1  0.61442700  0.51506100  0.32925100  1
  C  604  1  0.59635300  0.49876400  0.30873400  1
  C  605  1  0.56355100  0.48673900  0.30897100  1
  C  606  1  0.55019400  0.49131400  0.33025400  1
  C  609  1  0.55106000  0.51039100  0.37245200  1
  C  610  1  0.56021400  0.52939900  0.39332200  1
  C  611  1  0.54768400  0.53395000  0.41488300  1
  C  612  1  0.52062400  0.51902700  0.41526600  1
  C  613  1  0.50942100  0.50013800  0.39454100  1
  C  614  1  0.52547300  0.49575300  0.37401100  1
  C  623  1  0.48050600  0.48600200  0.39162000  1
  C  624  1  0.54053300  0.47187700  0.29056600  1
  C  625  1  0.64875100  0.52629200  0.32929200  1
  C  626  1  0.56002500  0.55439900  0.43351000  1
  C  631  1  0.07893400  0.18664900  0.47608600  1
  C  632  1  0.11119300  0.19926500  0.48739700  1
  C  633  1  0.12661800  0.21684800  0.48487100  1
  C  634  1  0.10849900  0.22106300  0.46852700  1
  C  635  1  0.07582000  0.20883800  0.45647200  1
  C  636  1  0.06242700  0.19222300  0.46097400  1
  C  639  1  0.06290400  0.16905600  0.47942100  1
  C  640  1  0.07203200  0.16783200  0.49851000  1
  C  641  1  0.05992600  0.15080400  0.50262000  1
  C  642  1  0.03352600  0.13450200  0.48805100  1
  C  643  1  0.02348700  0.13548600  0.46852000  1
  C  644  1  0.03791800  0.15239800  0.46473600  1
  C  653  1  0.99239000  0.12542700  0.45586400  1
  C  654  1  0.05282400  0.21229900  0.44154800  1
  C  655  1  0.16084500  0.22799400  0.49615200  1
  C  656  1  0.07622600  0.15383900  0.52076300  1
  C  661  1  0.06656500  0.38074900  0.90557500  1
  C  662  1  0.09909100  0.37940100  0.89291100  1
  C  663  1  0.11459200  0.35923900  0.87526100  1
  C  664  1  0.09639700  0.33876500  0.87108600  1
  C  665  1  0.06340200  0.33896700  0.88337700  1
  C  666  1  0.04991100  0.36015200  0.90010600  1
  C  669  1  0.05068500  0.40177900  0.92313900  1
  C  670  1  0.05997900  0.42203100  0.92426400  1
  C  671  1  0.04786100  0.44320400  0.94144100  1
  C  672  1  0.02117500  0.44496500  0.95786000  1
  C  673  1  0.01102200  0.42447500  0.95687900  1
  C  674  1  0.02564400  0.40375300  0.93994800  1
  C  683  1  0.98000400  0.42169400  0.96698900  1
  C  684  1  0.04029500  0.32061300  0.87988700  1
  C  685  1  0.14908300  0.35938000  0.86413600  1
  C  686  1  0.06425900  0.45830300  0.93839200  1
  C  691  1  0.05433800  0.61591000  0.71099100  1
  C  692  1  0.08683600  0.60461100  0.71240600  1
  C  693  1  0.10229000  0.60729500  0.73263800  1
  C  694  1  0.08409000  0.62374800  0.75333000  1
  C  695  1  0.05116800  0.63585600  0.75310300  1
  C  696  1  0.03781600  0.63129300  0.73192100  1
  C  699  1  0.03808500  0.61194700  0.68970100  1
  C  700  1  0.04780900  0.59295900  0.66871000  1
  C  701  1  0.03511900  0.58834200  0.64724700  1
  C  702  1  0.00740500  0.60327100  0.64714400  1
  C  703  1  0.99551000  0.62238100  0.66793500  1
  C  704  1  0.01174000  0.62659600  0.68831300  1
  C  713  1  0.97746000  0.64034400  0.66824800  1
  C  714  1  0.02799300  0.65083100  0.77165200  1
  C  715  1  0.13662900  0.59593200  0.73254300  1
  C  716  1  0.04786100  0.56777400  0.62841500  1
  C  721  1  0.98738600  0.46793400  0.25401000  1
  C  722  1  0.02326800  0.47662800  0.25490400  1
  C  723  1  0.03824200  0.47588900  0.23544100  1
  C  724  1  0.01795300  0.46658000  0.21522000  1
  C  725  1  0.98203100  0.45784800  0.21433300  1
  C  726  1  0.96660000  0.45886900  0.23397200  1
  C  737  1  0.99970700  0.83817500  0.21486900  1
  C  738  1  0.03569200  0.83726500  0.22261500  1
  C  739  1  0.05048300  0.85669600  0.24123600  1
  C  740  1  0.02996000  0.87707100  0.25223600  1
  C  741  1  0.99400700  0.87802600  0.24441900  1
  C  742  1  0.97879400  0.85843200  0.22590000  1
  C  753  1  0.01164400  0.87752200  0.62431700  1
  C  754  1  0.04782200  0.86970700  0.61557300  1
  C  755  1  0.06306500  0.85096800  0.61618700  1
  C  756  1  0.04254400  0.83991200  0.62530500  1
  C  757  1  0.00648400  0.84792300  0.63436900  1
  C  758  1  0.99080400  0.86652400  0.63343600  1
  C  769  1  0.47515300  0.65440200  0.80799800  1
  C  770  1  0.51128900  0.64569600  0.80706500  1
  C  771  1  0.52624400  0.64643200  0.82647100  1
  C  772  1  0.50569200  0.65574400  0.84676100  1
  C  773  1  0.46957800  0.66464500  0.84778600  1
  C  774  1  0.45421400  0.66361100  0.82822200  1
  C  785  1  0.48723000  0.28420100  0.84736600  1
  C  786  1  0.52326600  0.28509500  0.83952400  1
  C  787  1  0.53834800  0.26563100  0.82076300  1
  C  788  1  0.51801900  0.24542400  0.80989900  1
  C  789  1  0.48195600  0.24453800  0.81776100  1
  C  790  1  0.46642800  0.26418000  0.83639500  1
  C  801  1  0.49971900  0.24503300  0.43787500  1
  C  802  1  0.53558200  0.25279200  0.44652400  1
  C  803  1  0.55041400  0.27145100  0.44573500  1
  C  804  1  0.53001800  0.28242500  0.43640300  1
  C  805  1  0.49415800  0.27460000  0.42766500  1
  C  806  1  0.47888800  0.25604100  0.42872000  1
  C  817  1  0.00519000  0.65451800  0.80808900  1
  C  818  1  0.96933000  0.64584000  0.80723800  1
  C  819  1  0.95459000  0.64667700  0.82681400  1
  C  820  1  0.97471600  0.65620400  0.84721800  1
  C  821  1  0.01084400  0.66461500  0.84784800  1
  C  822  1  0.02601000  0.66359100  0.82813400  1
  C  833  1  0.01727000  0.28428100  0.84723500  1
  C  834  1  0.98128700  0.28519200  0.83949200  1
  C  835  1  0.96649400  0.26576000  0.82086900  1
  C  836  1  0.98700400  0.24537500  0.80985400  1
  C  837  1  0.02296300  0.24443200  0.81768600  1
  C  838  1  0.03818400  0.26402500  0.83620700  1
  C  849  1  0.02976200  0.24494600  0.43779600  1
  C  850  1  0.99359200  0.25276400  0.44653500  1
  C  851  1  0.97841500  0.27150500  0.44589300  1
  C  852  1  0.99891100  0.28251800  0.43670700  1
  C  853  1  0.03500700  0.27454100  0.42771500  1
  C  854  1  0.05061700  0.25593800  0.42867200  1
  C  865  1  0.51741500  0.46807000  0.25413400  1
  C  866  1  0.48127100  0.47676600  0.25504500  1
  C  867  1  0.46632200  0.47603200  0.23563200  1
  C  868  1  0.48607800  0.46666500  0.21544300  1
  C  869  1  0.52298400  0.45782100  0.21432900  1
  C  870  1  0.53833700  0.45885800  0.23389800  1
  C  881  1  0.52974000  0.83825800  0.21475100  1
  C  882  1  0.49369800  0.83735900  0.22259100  1
  C  883  1  0.47854600  0.85679500  0.24136600  1
  C  884  1  0.49890300  0.87696200  0.25227900  1
  C  885  1  0.53493300  0.87788300  0.24435300  1
  C  886  1  0.55053100  0.85827500  0.22572000  1
  C  897  1  0.54168800  0.87742300  0.62423500  1
  C  898  1  0.50582800  0.86966400  0.61558800  1
  C  899  1  0.49100700  0.85100400  0.61638300  1
  C  900  1  0.51138400  0.84002100  0.62571700  1
  C  901  1  0.54725800  0.84785600  0.63445000  1
  C  902  1  0.56252100  0.86641700  0.63339100  1
  C  913  1  0.29256800  0.53583700  0.19518500  1
  C  914  1  0.26936000  0.55244400  0.21251300  1
  C  915  1  0.22939700  0.55058200  0.21079700  1
  C  916  1  0.21280000  0.53234900  0.19167200  1
  C  917  1  0.23605400  0.51523100  0.17536500  1
  C  918  1  0.27539200  0.51695500  0.17722600  1
  C  929  1  0.30492000  0.89693000  0.34155100  1
  C  930  1  0.28190200  0.87972300  0.34083500  1
  C  931  1  0.24190600  0.88155800  0.34064200  1
  C  932  1  0.22508800  0.90075400  0.34149300  1
  C  933  1  0.24805600  0.91698000  0.34073700  1
  C  934  1  0.28743000  0.91497200  0.34061400  1
  C  945  1  0.31735100  0.75087600  0.55634000  1
  C  946  1  0.29425500  0.75149500  0.53980300  1
  C  947  1  0.25424400  0.75160800  0.54178300  1
  C  948  1  0.23750000  0.75067600  0.56009000  1
  C  949  1  0.26039400  0.75152200  0.57712000  1
  C  950  1  0.29976300  0.75171900  0.57526400  1
  C  961  1  0.78069700  0.58642600  0.86665400  1
  C  962  1  0.75768400  0.56994200  0.84952400  1
  C  963  1  0.71766300  0.57199300  0.85141700  1
  C  964  1  0.70081900  0.59034900  0.87066200  1
  C  965  1  0.72364200  0.60731900  0.88683800  1
  C  966  1  0.76302800  0.60540000  0.88475100  1
  C  977  1  0.79277400  0.22545500  0.72066700  1
  C  978  1  0.76956900  0.24270900  0.72132000  1
  C  979  1  0.72958700  0.24093500  0.72143000  1
  C  980  1  0.71296500  0.22176100  0.72050200  1
  C  981  1  0.73606900  0.20550600  0.72135000  1
  C  982  1  0.77541700  0.20744200  0.72152900  1
  C  993  1  0.80475900  0.37176500  0.50575800  1
  C  994  1  0.78163800  0.37101200  0.52230900  1
  C  995  1  0.74166700  0.37082200  0.52037100  1
  C  996  1  0.72497200  0.37167500  0.50208800  1
  C  997  1  0.74815700  0.37091000  0.48503300  1
  C  998  1  0.78751000  0.37080200  0.48682400  1
  C  1009  1  0.22401600  0.22564700  0.50583900  1
  C  1010  1  0.24707600  0.24275300  0.52233200  1
  C  1011  1  0.28712100  0.24085900  0.52028600  1
  C  1012  1  0.30402100  0.22163100  0.50192900  1
  C  1013  1  0.28114800  0.20545600  0.48498100  1
  C  1014  1  0.24174300  0.20754200  0.48689500  1
  C  1025  1  0.21194000  0.37158700  0.86681300  1
  C  1026  1  0.23518900  0.37096500  0.84958300  1
  C  1027  1  0.27519400  0.37085500  0.85135500  1
  C  1028  1  0.29187200  0.37176100  0.87051000  1
  C  1029  1  0.26871500  0.37093900  0.88676900  1
  C  1030  1  0.22935200  0.37075800  0.88483300  1
  C  1041  1  0.19994200  0.58655900  0.72057000  1
  C  1042  1  0.22311400  0.56999400  0.72128200  1
  C  1043  1  0.26310700  0.57192200  0.72146500  1
  C  1044  1  0.27985700  0.59020700  0.72063400  1
  C  1045  1  0.25662700  0.60724200  0.72137400  1
  C  1046  1  0.21725700  0.60546000  0.72148700  1
  C  1057  1  0.73654200  0.89708600  0.55646900  1
  C  1058  1  0.75981400  0.87978300  0.53985300  1
  C  1059  1  0.79980400  0.88149600  0.54171000  1
  C  1060  1  0.81646000  0.90060200  0.55994800  1
  C  1061  1  0.79315500  0.91691000  0.57704100  1
  C  1062  1  0.75379600  0.91505200  0.57532100  1
  C  1073  1  0.72420400  0.75078400  0.19537900  1
  C  1074  1  0.74728000  0.75145800  0.21255600  1
  C  1075  1  0.78730200  0.75164300  0.21071800  1
  C  1076  1  0.80417700  0.75080800  0.19153800  1
  C  1077  1  0.78115900  0.75154600  0.17531500  1
  C  1078  1  0.74176400  0.75167600  0.17732600  1
  C  1089  1  0.71177400  0.53592400  0.34137200  1
  C  1090  1  0.73492000  0.55247400  0.34078900  1
  C  1091  1  0.77495200  0.55050000  0.34067500  1
  C  1092  1  0.79175200  0.53219100  0.34158100  1
  C  1093  1  0.76881500  0.51518200  0.34076700  1
  C  1094  1  0.72942800  0.51703200  0.34056900  1
  C  1105  1  0.02432600  0.58593800  0.11751700  1
  C  1106  1  0.01488600  0.60640900  0.13702700  1
  C  1107  1  0.99672100  0.62380900  0.13511900  1
  C  1108  1  0.98797000  0.62098900  0.11384300  1
  C  1109  1  0.99968200  0.60083300  0.09421900  1
  C  1110  1  0.01748700  0.58312500  0.09603600  1
  C  1121  1  0.03654100  0.97468100  0.46928900  1
  C  1122  1  0.02713400  0.95522600  0.47019900  1
  C  1123  1  0.00896500  0.95723300  0.48956600  1
  C  1124  1  0.00016400  0.97857900  0.50813200  1
  C  1125  1  0.01182100  0.99811500  0.50760200  1
  C  1126  1  0.02961900  0.99620800  0.48802300  1
  C  1137  1  0.04925000  0.62340000  0.50664600  1
  C  1138  1  0.04019100  0.62257700  0.48622200  1
  C  1139  1  0.02303200  0.60333200  0.46884000  1
  C  1140  1  0.01642700  0.58541800  0.47260400  1
  C  1141  1  0.02568400  0.58536100  0.49242500  1
  C  1142  1  0.04280700  0.60480800  0.50973900  1
  C  1153  1  0.51208800  0.53640800  0.94449000  1
  C  1154  1  0.50270000  0.51606400  0.92506400  1
  C  1155  1  0.48460500  0.49878100  0.92705900  1
  C  1156  1  0.47583200  0.50154300  0.94837500  1
  C  1157  1  0.48744700  0.52157500  0.96790100  1
  C  1158  1  0.50516800  0.53917800  0.96600400  1
  C  1169  1  0.52429500  0.14770200  0.59279200  1
  C  1170  1  0.51487100  0.16718800  0.59182400  1
  C  1171  1  0.49678000  0.16529300  0.57260600  1
  C  1172  1  0.48803400  0.14404600  0.55417000  1
  C  1173  1  0.49972700  0.12443200  0.55467500  1
  C  1174  1  0.51746200  0.12624100  0.57411800  1
  C  1185  1  0.53733000  0.49913700  0.55531700  1
  C  1186  1  0.52804200  0.49981100  0.57585500  1
  C  1187  1  0.51073000  0.51922600  0.59339400  1
  C  1188  1  0.50414400  0.53718100  0.58964200  1
  C  1189  1  0.51340400  0.53720700  0.56975000  1
  C  1190  1  0.53064100  0.51759900  0.55227500  1
  C  1201  1  0.96739000  0.53708600  0.94451400  1
  C  1202  1  0.97667300  0.51659500  0.92483400  1
  C  1203  1  0.99384900  0.49915900  0.92677600  1
  C  1204  1  0.99999700  0.50336700  0.94861200  1
  C  1205  1  0.99097100  0.52315200  0.96856100  1
  C  1206  1  0.97386400  0.54043200  0.96628300  1
  C  1217  1  0.97970900  0.14784400  0.59348900  1
  C  1218  1  0.98882200  0.16747800  0.59269600  1
  C  1219  1  0.00603000  0.16546200  0.57327200  1
  C  1220  1  0.01224900  0.14357700  0.55556600  1
  C  1221  1  0.00324900  0.12368900  0.55537000  1
  C  1222  1  0.98613600  0.12603900  0.57496600  1
  C  1233  1  0.99256000  0.49947000  0.55584400  1
  C  1234  1  0.00212600  0.50047000  0.57622100  1
  C  1235  1  0.02001900  0.51979100  0.59341000  1
  C  1236  1  0.02859900  0.53821100  0.59035800  1
  C  1237  1  0.01724600  0.53746100  0.57023200  1
  C  1238  1  0.99949600  0.51803600  0.55285600  1
  C  1249  1  0.48064200  0.58523800  0.11772200  1
  C  1250  1  0.48890600  0.60578800  0.13715700  1
  C  1251  1  0.50599800  0.62318500  0.13524300  1
  C  1252  1  0.51221900  0.61902900  0.11338300  1
  C  1253  1  0.50322800  0.59935600  0.09351400  1
  C  1254  1  0.48617200  0.58212500  0.09577000  1
  C  1265  1  0.49190600  0.97468000  0.46871200  1
  C  1266  1  0.50112700  0.95502200  0.46950800  1
  C  1267  1  0.51822800  0.95693900  0.48878200  1
  C  1268  1  0.52436800  0.97875700  0.50637400  1
  C  1269  1  0.51536400  0.99870900  0.50659200  1
  C  1270  1  0.49832100  0.99644800  0.48712400  1
  C  1281  1  0.50490400  0.62307300  0.50640300  1
  C  1282  1  0.51432600  0.62204200  0.48592800  1
  C  1283  1  0.53233900  0.60253900  0.46857200  1
  C  1284  1  0.54095300  0.58406200  0.47161600  1
  C  1285  1  0.52955900  0.58488900  0.49183600  1
  C  1286  1  0.51167600  0.60447400  0.50937100  1
  C  1297  1  0.97922500  0.45268000  0.05492500  1
  C  1298  1  0.99288300  0.43041100  0.04130000  1
  C  1299  1  0.99221200  0.42030900  0.01754100  1
  C  1300  1  0.97941400  0.43291300  0.00777800  1
  C  1301  1  0.96568400  0.45512400  0.02116700  1
  C  1302  1  0.96611800  0.46506100  0.04455300  1
  C  1313  1  0.99139900  0.03749300  0.39865100  1
  C  1314  1  0.00511900  0.05096000  0.38995500  1
  C  1315  1  0.00441500  0.07471700  0.40363500  1
  C  1316  1  0.99164100  0.08459800  0.42607700  1
  C  1317  1  0.97792000  0.07134800  0.43495400  1
  C  1318  1  0.97829500  0.04796000  0.42148200  1
  C  1329  1  0.00343400  0.69408700  0.64006700  1
  C  1330  1  0.01716600  0.70243300  0.66215200  1
  C  1331  1  0.01606500  0.68890800  0.67242500  1
  C  1332  1  0.00148300  0.66720100  0.66011800  1
  C  1333  1  0.99059200  0.65830100  0.63763900  1
  C  1334  1  0.99071700  0.67146900  0.62760300  1
  C  1345  1  0.46672300  0.67015500  0.00799100  1
  C  1346  1  0.48009600  0.69230100  0.02152000  1
  C  1347  1  0.47903900  0.70248800  0.04540100  1
  C  1348  1  0.46616900  0.69026500  0.05564300  1
  C  1349  1  0.45265800  0.66824400  0.04221800  1
  C  1350  1  0.45337900  0.65810200  0.01865800  1
  C  1361  1  0.47886100  0.08439700  0.66307500  1
  C  1362  1  0.49209800  0.07100700  0.67195000  1
  C  1363  1  0.48972400  0.04719400  0.65897600  1
  C  1364  1  0.47393700  0.03630000  0.63734500  1
  C  1365  1  0.46398400  0.04961400  0.62749500  1
  C  1366  1  0.46565900  0.07338600  0.64036800  1
  C  1377  1  0.49138500  0.42861400  0.42245900  1
  C  1378  1  0.50500700  0.42003300  0.40020400  1
  C  1379  1  0.50409400  0.43377100  0.39019600  1
  C  1380  1  0.49062000  0.45606900  0.40286100  1
  C  1381  1  0.47811700  0.46501500  0.42529800  1
  C  1382  1  0.47834800  0.45142000  0.43499500  1
  C  1393  1  0.53789700  0.08493100  0.42234500  1
  C  1394  1  0.52414000  0.07148900  0.40027600  1
  C  1395  1  0.52482100  0.04774100  0.39020900  1
  C  1396  1  0.53755200  0.03788700  0.40272800  1
  C  1397  1  0.55121800  0.05111200  0.42478600  1
  C  1398  1  0.55090700  0.07449500  0.43468200  1
  C  1409  1  0.52557800  0.42880300  0.00722600  1
  C  1410  1  0.51193700  0.42021100  0.02082400  1
  C  1411  1  0.51258900  0.43385300  0.04457100  1
  C  1412  1  0.52534500  0.45614700  0.05432500  1
  C  1413  1  0.53903900  0.46493500  0.04096400  1
  C  1414  1  0.53864300  0.45148600  0.01757600  1
  C  1425  1  0.51342100  0.67016700  0.66393800  1
  C  1426  1  0.49968500  0.69242000  0.67241000  1
  C  1427  1  0.50078200  0.70271100  0.65888900  1
  C  1428  1  0.51539400  0.69028200  0.63701900  1
  C  1429  1  0.52643000  0.66771300  0.62804300  1
  C  1430  1  0.52629400  0.65765000  0.64119400  1
  C  1441  1  0.05031800  0.03803400  0.63987300  1
  C  1442  1  0.03707800  0.05146400  0.66221400  1
  C  1443  1  0.03945500  0.07529700  0.67304900  1
  C  1444  1  0.05515200  0.08625300  0.66224500  1
  C  1445  1  0.06525900  0.07287300  0.63905000  1
  C  1446  1  0.06358500  0.04908900  0.62815600  1
  C  1457  1  0.03809700  0.69318000  0.05396800  1
  C  1458  1  0.02475300  0.70210000  0.04029600  1
  C  1459  1  0.02661300  0.69153600  0.01555500  1
  C  1460  1  0.04204000  0.66791700  0.00580200  1
  C  1461  1  0.05269800  0.65752400  0.01911000  1
  C  1462  1  0.05137700  0.67038600  0.04291800  1
  C  1473  1  0.02566700  0.45234300  0.39827000  1
  C  1474  1  0.01219400  0.43017700  0.38946700  1
  C  1475  1  0.01293500  0.41973200  0.40275400  1
  C  1476  1  0.02685300  0.43174600  0.42466100  1
  C  1477  1  0.03894400  0.45425500  0.43409700  1
  C  1478  1  0.03876700  0.46446000  0.42091100  1
  N  8  1  0.11126700  0.49447700  0.20616600  1
  N  15  1  0.00569900  0.52232600  0.08876800  1
  N  38  1  0.12382300  0.88591000  0.28903400  1
  N  45  1  0.01772600  0.00367000  0.43455200  1
  N  68  1  0.13573600  0.80307000  0.59782300  1
  N  75  1  0.03018100  0.65790300  0.56995600  1
  N  98  1  0.59927500  0.62793400  0.85579700  1
  N  105  1  0.49335600  0.60016300  0.97345200  1
  N  128  1  0.61117400  0.23623300  0.77285200  1
  N  135  1  0.50575000  0.11898800  0.62771500  1
  N  158  1  0.62371800  0.31925800  0.46433100  1
  N  165  1  0.51779400  0.46467000  0.49211200  1
  N  188  1  0.40620200  0.23695400  0.46423100  1
  N  195  1  0.51189800  0.11825800  0.49147200  1
  N  218  1  0.39433100  0.31881300  0.85553500  1
  N  225  1  0.49945200  0.46452700  0.97388200  1
  N  248  1  0.38178100  0.62806700  0.77365900  1
  N  255  1  0.48597500  0.60103000  0.62784400  1
  N  278  1  0.91866000  0.88563700  0.59793100  1
  N  285  1  0.02399800  0.00413400  0.57061300  1
  N  308  1  0.90610700  0.80382800  0.20685000  1
  N  315  1  0.01201700  0.65777600  0.08799500  1
  N  338  1  0.89418900  0.49434900  0.28855700  1
  N  345  1  0.99801800  0.52153200  0.43421300  1
  N  368  1  0.88151400  0.62804000  0.85598600  1
  N  375  1  0.98748900  0.59952200  0.97377400  1
  N  398  1  0.89339000  0.23652100  0.77310300  1
  N  405  1  0.99989700  0.11831900  0.62648600  1
  N  428  1  0.90592600  0.31932400  0.46420800  1
  N  435  1  0.01111000  0.46507000  0.49282400  1
  N  458  1  0.39349900  0.49444300  0.20630400  1
  N  465  1  0.49971300  0.52240100  0.08845400  1
  N  488  1  0.40601000  0.88623700  0.28919300  1
  N  495  1  0.51171500  0.00366000  0.43469800  1
  N  518  1  0.41788400  0.80325400  0.59783500  1
  N  525  1  0.52484600  0.65758000  0.56916100  1
  N  548  1  0.63499900  0.88545200  0.59793400  1
  N  555  1  0.53024900  0.00454400  0.57017700  1
  N  578  1  0.62245700  0.80375900  0.20663700  1
  N  585  1  0.51751500  0.65804900  0.08753400  1
  N  608  1  0.61057500  0.49437800  0.28843900  1
  N  615  1  0.50512700  0.52255500  0.43484000  1
  N  638  1  0.12259400  0.23690800  0.46413700  1
  N  645  1  0.01820700  0.11823800  0.49139900  1
  N  668  1  0.11070900  0.31849800  0.85518100  1
  N  675  1  0.00577000  0.46466600  0.97418400  1
  N  698  1  0.09813200  0.62815000  0.77359800  1
  N  705  1  0.99191700  0.59961500  0.62759000  1
  N  735  1  0.96885400  0.47379600  0.27307400  1
  N  736  1  0.03055700  0.46932500  0.19838600  1
  N  751  1  0.98126800  0.81914700  0.20168500  1
  N  752  1  0.04249200  0.89390100  0.27179700  1
  N  767  1  0.99307800  0.89070800  0.61846100  1
  N  768  1  0.05313300  0.82077100  0.62430300  1
  N  783  1  0.45664700  0.64855200  0.78900100  1
  N  784  1  0.51724200  0.65381400  0.86422500  1
  N  799  1  0.46865700  0.30328000  0.86055900  1
  N  800  1  0.53051900  0.22849600  0.79033400  1
  N  815  1  0.48125100  0.23180700  0.44370200  1
  N  816  1  0.54257600  0.30198900  0.43913700  1
  N  831  1  0.02368100  0.64865500  0.78898600  1
  N  832  1  0.95950800  0.65230700  0.86293100  1
  N  847  1  0.03570100  0.30330100  0.86042000  1
  N  848  1  0.97446300  0.22853800  0.79026100  1
  N  863  1  0.04832000  0.23176300  0.44364600  1
  N  864  1  0.98781700  0.30180000  0.43814800  1
  N  879  1  0.53589900  0.47392600  0.27316700  1
  N  880  1  0.47672600  0.46877300  0.19767500  1
  N  895  1  0.54830700  0.81918500  0.20155800  1
  N  896  1  0.48721900  0.89440600  0.27171200  1
  N  911  1  0.56013900  0.89065200  0.61841000  1
  N  912  1  0.49870800  0.82041900  0.62289100  1
  N  927  1  0.33034600  0.53589400  0.19173100  1
  N  928  1  0.17600300  0.52886600  0.18650700  1
  N  943  1  0.34266500  0.90036200  0.34515500  1
  N  944  1  0.18819600  0.90588600  0.34301900  1
  N  959  1  0.35529000  0.74740200  0.55627300  1
  N  960  1  0.20071700  0.74900000  0.56361400  1
  N  975  1  0.81856400  0.58628000  0.87007500  1
  N  976  1  0.66396800  0.59393700  0.87583200  1
  N  991  1  0.83068200  0.22201500  0.71721500  1
  N  992  1  0.67621100  0.21656000  0.71876800  1
  N  1007  1  0.84246400  0.37536700  0.50588600  1
  N  1008  1  0.68810700  0.37325100  0.49853400  1
  N  1023  1  0.18606800  0.22227100  0.50587400  1
  N  1024  1  0.34093400  0.21649800  0.49825400  1
  N  1039  1  0.17396500  0.37491300  0.87022100  1
  N  1040  1  0.32868400  0.37337000  0.87567400  1
  N  1055  1  0.16215500  0.58653100  0.71710200  1
  N  1056  1  0.31677400  0.59384600  0.71918600  1
  N  1071  1  0.69866400  0.90053400  0.55653000  1
  N  1072  1  0.85331600  0.90572900  0.56351600  1
  N  1087  1  0.68637300  0.74729600  0.19196600  1
  N  1088  1  0.84112500  0.74940200  0.18644100  1
  N  1103  1  0.67376200  0.53589100  0.34472500  1
  N  1104  1  0.82859500  0.52857900  0.34313000  1
  N  1119  1  0.04147100  0.57030400  0.12049100  1
  N  1120  1  0.97997100  0.63994100  0.11331400  1
  N  1135  1  0.05359200  0.97173100  0.45064500  1
  N  1136  1  0.99215900  0.97905700  0.52759600  1
  N  1151  1  0.06626900  0.64174500  0.52191400  1
  N  1152  1  0.00268700  0.56875100  0.45713100  1
  N  1167  1  0.52908300  0.55202700  0.94148000  1
  N  1168  1  0.46765500  0.48253400  0.94876200  1
  N  1183  1  0.54153000  0.15074100  0.61134500  1
  N  1184  1  0.47991300  0.14361800  0.53476100  1
  N  1199  1  0.55354000  0.48035300  0.53992300  1
  N  1200  1  0.49069200  0.55402300  0.60527400  1
  N  1215  1  0.95082400  0.55261100  0.94169200  1
  N  1216  1  0.01198400  0.48809900  0.95031600  1
  N  1231  1  0.96300400  0.15071000  0.61183000  1
  N  1232  1  0.02448100  0.14181400  0.53861500  1
  N  1247  1  0.97558400  0.48090700  0.54032900  1
  N  1248  1  0.03281000  0.55845500  0.60886400  1
  N  1263  1  0.46138100  0.57101400  0.12130400  1
  N  1264  1  0.52456800  0.63413600  0.11156400  1
  N  1279  1  0.47507500  0.97172800  0.45048500  1
  N  1280  1  0.53663900  0.98035300  0.52315700  1
  N  1295  1  0.48747800  0.64160900  0.52190700  1
  N  1296  1  0.54505300  0.56373600  0.45323000  1
  N  1311  1  0.99163000  0.46342900  0.07621700  1
  N  1312  1  0.97270700  0.42030900  0.98454600  1
  N  1327  1  0.00367700  0.01605500  0.38802000  1
  N  1328  1  0.98539600  0.10797800  0.43678100  1
  N  1343  1  0.01580300  0.70444600  0.62911700  1
  N  1344  1  0.00187800  0.65402500  0.66874300  1
  N  1359  1  0.47896600  0.65929300  0.98640900  1
  N  1360  1  0.46674500  0.69938000  0.07949900  1
  N  1375  1  0.49136600  0.10583500  0.67354500  1
  N  1376  1  0.48055600  0.01311900  0.62541100  1
  N  1391  1  0.50386000  0.41806400  0.43322200  1
  N  1392  1  0.48810100  0.46736100  0.39057900  1
  N  1407  1  0.52569300  0.10636500  0.43312500  1
  N  1408  1  0.54390700  0.01453200  0.39003100  1
  N  1423  1  0.51324000  0.41825000  0.98594000  1
  N  1424  1  0.53172700  0.46672400  0.07758600  1
  N  1439  1  0.50081800  0.65919900  0.67425700  1
  N  1440  1  0.51491800  0.69891700  0.62384300  1
  N  1455  1  0.03766200  0.01659600  0.62889700  1
  N  1456  1  0.04812800  0.10939800  0.67339900  1
  N  1471  1  0.02574000  0.70384100  0.07568500  1
  N  1472  1  0.03562500  0.65536900  0.98274600  1
  N  1487  1  0.01340800  0.46326800  0.38788100  1
  N  1488  1  0.01886700  0.42304500  0.43732800  1
  O  727  1  0.07184800  0.48446500  0.23495700  1
  O  729  1  0.04063900  0.48598000  0.27529700  1
  O  730  1  0.96419000  0.44970400  0.19417100  1
  O  731  1  0.93188600  0.45155800  0.23554300  1
  O  743  1  0.08413200  0.85718300  0.25024700  1
  O  745  1  0.05340500  0.81680000  0.21155300  1
  O  746  1  0.97589900  0.89830100  0.25644200  1
  O  747  1  0.94411400  0.85698500  0.21710200  1
  O  759  1  0.09674200  0.84186700  0.60768600  1
  O  761  1  0.06532200  0.88076800  0.60622200  1
  O  762  1  0.98830400  0.83594500  0.64268100  1
  O  763  1  0.95588100  0.87542000  0.64083600  1
  O  775  1  0.55998600  0.63790500  0.82699500  1
  O  777  1  0.52896600  0.63630200  0.78659900  1
  O  778  1  0.45143100  0.67292900  0.86808200  1
  O  779  1  0.41939200  0.67100000  0.82678400  1
  O  791  1  0.57209900  0.26516000  0.81166700  1
  O  793  1  0.54062200  0.30548900  0.85056700  1
  O  794  1  0.46415400  0.22436700  0.80573100  1
  O  795  1  0.43157800  0.26575100  0.84530700  1
  O  807  1  0.58397800  0.28046600  0.45425100  1
  O  809  1  0.55313900  0.24173600  0.45589500  1
  O  810  1  0.47617200  0.28661000  0.41945600  1
  O  811  1  0.44426400  0.24721900  0.42139800  1
  O  823  1  0.92072500  0.63801500  0.82713200  1
  O  825  1  0.95191500  0.63649000  0.78682800  1
  O  826  1  0.02838000  0.67277000  0.86797900  1
  O  827  1  0.06067600  0.67090900  0.82656400  1
  O  839  1  0.93283800  0.26527500  0.81186200  1
  O  841  1  0.96358000  0.30566000  0.85055900  1
  O  842  1  0.04107900  0.22416000  0.80566600  1
  O  843  1  0.07286500  0.26547500  0.84500800  1
  O  855  1  0.94467600  0.28059300  0.45442100  1
  O  857  1  0.97609100  0.24169800  0.45589000  1
  O  858  1  0.05310000  0.28652900  0.41943200  1
  O  859  1  0.08552900  0.24704200  0.42127500  1
  O  871  1  0.43255700  0.48455700  0.23511500  1
  O  873  1  0.46359100  0.48615800  0.27551200  1
  O  874  1  0.54112300  0.44953400  0.19403500  1
  O  875  1  0.57315900  0.45146400  0.23533100  1
  O  887  1  0.44484300  0.85731300  0.25046200  1
  O  889  1  0.47635800  0.81696700  0.21153900  1
  O  890  1  0.55283300  0.89807100  0.25635500  1
  O  891  1  0.58538900  0.85671500  0.21680800  1
  O  903  1  0.45742600  0.84199500  0.60786200  1
  O  905  1  0.48827400  0.88072500  0.60621800  1
  O  906  1  0.56523800  0.83584600  0.64265400  1
  O  907  1  0.59714300  0.87524200  0.64071400  1
  O  919  1  0.20418900  0.56575700  0.22590500  1
  O  921  1  0.28843200  0.56957100  0.22969400  1
  O  922  1  0.21735000  0.49778000  0.15808000  1
  O  923  1  0.29984100  0.50137500  0.16168500  1
  O  935  1  0.21679500  0.86661700  0.34072700  1
  O  937  1  0.30104600  0.86239600  0.34077500  1
  O  938  1  0.22912900  0.93437200  0.34059300  1
  O  939  1  0.31164200  0.93041100  0.34057700  1
  O  951  1  0.22908800  0.75153700  0.52677600  1
  O  953  1  0.31332600  0.75152600  0.52250500  1
  O  954  1  0.24140800  0.75168400  0.59465400  1
  O  955  1  0.32391900  0.75172500  0.59073800  1
  O  967  1  0.69255200  0.55702800  0.83653800  1
  O  969  1  0.77679700  0.55260700  0.83214700  1
  O  970  1  0.70459800  0.62487900  0.90425100  1
  O  971  1  0.78712100  0.62084000  0.90017700  1
  O  983  1  0.70437600  0.25598300  0.72136700  1
  O  985  1  0.78861300  0.25994200  0.72135800  1
  O  986  1  0.71724900  0.18819800  0.72152100  1
  O  987  1  0.79974300  0.19191700  0.72155000  1
  O  999  1  0.71650500  0.37089800  0.53550200  1
  O  1001  1  0.80075300  0.37094400  0.53947100  1
  O  1002  1  0.72940000  0.37075900  0.46755400  1
  O  1003  1  0.81189500  0.37075700  0.47127800  1
  O  1015  1  0.31222400  0.25574600  0.53525400  1
  O  1017  1  0.22797500  0.26013500  0.53967200  1
  O  1018  1  0.30017500  0.18803800  0.46741100  1
  O  1019  1  0.21766200  0.19210800  0.47144700  1
  O  1031  1  0.30039700  0.37091500  0.83630300  1
  O  1033  1  0.21615800  0.37092600  0.83234400  1
  O  1034  1  0.28752200  0.37076800  0.90408100  1
  O  1035  1  0.20503700  0.37074200  0.90036900  1
  O  1047  1  0.28826200  0.55678900  0.72139200  1
  O  1049  1  0.20401200  0.55282500  0.72134700  1
  O  1050  1  0.27537300  0.62472800  0.72152800  1
  O  1051  1  0.19288500  0.62101300  0.72153400  1
  O  1063  1  0.82500700  0.86638400  0.52653500  1
  O  1065  1  0.74076200  0.86259400  0.52271900  1
  O  1066  1  0.81184800  0.93420100  0.59449800  1
  O  1067  1  0.72937000  0.93060300  0.59090900  1
  O  1079  1  0.81240700  0.75156200  0.22566700  1
  O  1081  1  0.72815600  0.75151500  0.22988800  1
  O  1082  1  0.80007200  0.75169300  0.15792000  1
  O  1083  1  0.71756900  0.75170900  0.16187800  1
  O  1095  1  0.80010500  0.56550800  0.34074600  1
  O  1097  1  0.71586500  0.56977800  0.34075900  1
  O  1098  1  0.78779200  0.49764300  0.34060300  1
  O  1099  1  0.70528900  0.50154700  0.34056200  1
  O  1111  1  0.98736100  0.64448000  0.15288800  1
  O  1113  1  0.02467900  0.60764000  0.15690200  1
  O  1114  1  0.99233200  0.59998100  0.07425800  1
  O  1115  1  0.03101300  0.56330900  0.07857700  1
  O  1127  1  0.99966300  0.93951100  0.49243900  1
  O  1129  1  0.03699000  0.93528300  0.45146900  1
  O  1130  1  0.00445200  0.01814300  0.52676500  1
  O  1131  1  0.04310700  0.01355000  0.48562700  1
  O  1143  1  0.01193000  0.60013100  0.44828400  1
  O  1145  1  0.04919300  0.64114000  0.48477600  1
  O  1146  1  0.01711500  0.56612100  0.49291400  1
  O  1147  1  0.05563800  0.60684500  0.52931600  1
  O  1159  1  0.47532300  0.47823800  0.90934400  1
  O  1161  1  0.51248300  0.51479600  0.90511700  1
  O  1162  1  0.48010200  0.52249300  0.98793400  1
  O  1163  1  0.51860300  0.55884200  0.98334800  1
  O  1175  1  0.48745000  0.18305600  0.56974500  1
  O  1177  1  0.52460700  0.18706500  0.61040900  1
  O  1178  1  0.49241300  0.10447100  0.53560800  1
  O  1179  1  0.53094700  0.10877500  0.57638900  1
  O  1191  1  0.49951800  0.52252900  0.61406100  1
  O  1193  1  0.53713500  0.48113400  0.57717600  1
  O  1194  1  0.50475400  0.55653200  0.56933600  1
  O  1195  1  0.54353600  0.51539800  0.53253400  1
  O  1207  1  0.00511800  0.47835900  0.90953700  1
  O  1209  1  0.96764900  0.51509000  0.90482000  1
  O  1210  1  0.99964100  0.52346200  0.98824200  1
  O  1211  1  0.96088600  0.56004600  0.98394800  1
  O  1223  1  0.01727200  0.18262200  0.56971300  1
  O  1225  1  0.97976800  0.18757200  0.61130000  1
  O  1226  1  0.01195600  0.10393700  0.53594000  1
  O  1227  1  0.97322700  0.10850400  0.57697100  1
  O  1239  1  0.02926600  0.52246500  0.61391300  1
  O  1241  1  0.99241200  0.48187000  0.57755900  1
  O  1242  1  0.02440700  0.55660100  0.56939500  1
  O  1243  1  0.98594700  0.51589600  0.53329800  1
  O  1255  1  0.51718100  0.64385300  0.15241900  1
  O  1257  1  0.47988500  0.60744700  0.15738400  1
  O  1258  1  0.51187900  0.59899300  0.07377900  1
  O  1259  1  0.47328800  0.56268700  0.07834700  1
  O  1271  1  0.52945300  0.93970400  0.49229100  1
  O  1273  1  0.49215600  0.93499900  0.45105100  1
  O  1274  1  0.52399500  0.01837600  0.52592200  1
  O  1275  1  0.48539000  0.01409100  0.48521500  1
  O  1287  1  0.54164700  0.59982600  0.44798900  1
  O  1289  1  0.50447800  0.64076100  0.48470300  1
  O  1290  1  0.53677900  0.56567300  0.49260500  1
  O  1291  1  0.49804600  0.60680400  0.52909300  1
  O  1303  1  0.00286000  0.39864100  0.00231200  1
  O  1305  1  0.00587800  0.42011100  0.05268900  1
  O  1306  1  0.94705500  0.46500700  0.01083400  1
  O  1307  1  0.94455900  0.48412900  0.05587500  1
  O  1319  1  0.01506900  0.08986700  0.39719400  1
  O  1321  1  0.01814600  0.03948500  0.36819100  1
  O  1322  1  0.95970000  0.08189300  0.45540800  1
  O  1323  1  0.95641000  0.03693600  0.42926500  1
  O  1335  1  0.02727600  0.69485100  0.69371400  1
  O  1337  1  0.03040200  0.72390200  0.67218200  1
  O  1338  1  0.97851000  0.63690900  0.62628400  1
  O  1339  1  0.96901900  0.66364800  0.60878200  1
  O  1351  1  0.49047300  0.72374900  0.06031100  1
  O  1353  1  0.49349200  0.70223700  0.00979500  1
  O  1354  1  0.43993600  0.65786800  0.05364500  1
  O  1355  1  0.43251600  0.63906600  0.00722800  1
  O  1367  1  0.50312300  0.03249300  0.66530400  1
  O  1369  1  0.50605900  0.08266000  0.69335800  1
  O  1370  1  0.45253600  0.03831100  0.60548300  1
  O  1371  1  0.44557500  0.08526500  0.63271400  1
  O  1383  1  0.51508000  0.42740400  0.36857600  1
  O  1385  1  0.51823600  0.39832900  0.38985500  1
  O  1386  1  0.45795500  0.48467800  0.43531200  1
  O  1387  1  0.45640500  0.45924400  0.45393000  1
  O  1399  1  0.51421400  0.03260800  0.36866400  1
  O  1401  1  0.51115000  0.08295500  0.39004000  1
  O  1402  1  0.56926000  0.04053600  0.43462200  1
  O  1403  1  0.57286700  0.08548700  0.45332300  1
  O  1415  1  0.50194800  0.42743200  0.05977100  1
  O  1417  1  0.49897800  0.39859000  0.00944300  1
  O  1418  1  0.55743600  0.48512700  0.05131900  1
  O  1419  1  0.56023900  0.45909600  0.00626400  1
  O  1431  1  0.48953500  0.72410300  0.66488200  1
  O  1433  1  0.48638700  0.70256100  0.69400300  1
  O  1434  1  0.53883500  0.65635300  0.60658500  1
  O  1435  1  0.54820700  0.63866500  0.63317800  1
  O  1447  1  0.02599700  0.08998800  0.69413700  1
  O  1449  1  0.02306300  0.03979400  0.67202100  1
  O  1450  1  0.07672900  0.08418100  0.62828500  1
  O  1451  1  0.08376600  0.03720500  0.60855300  1
  O  1463  1  0.01659300  0.70786800  0.00386600  1
  O  1465  1  0.01093700  0.72369800  0.05266300  1
  O  1466  1  0.06443500  0.63529300  0.00787500  1
  O  1467  1  0.07198100  0.66264700  0.05457700  1
  O  1479  1  0.00146600  0.39833500  0.39647800  1
  O  1481  1  0.99873900  0.42020800  0.36803200  1
  O  1482  1  0.05771700  0.46438000  0.45399000  1
  O  1483  1  0.06027200  0.48338400  0.42869800  1
