# generated using pymatgen
data_H8C14(NO)3
_symmetry_space_group_name_H-M   'P 1'
_cell_length_a   61.74880000
_cell_length_b   63.15020000
_cell_length_c   63.15040000
_cell_angle_alpha   89.88780000
_cell_angle_beta   90.00000000
_cell_angle_gamma   90.00000000
_symmetry_Int_Tables_number   1
_chemical_formula_structural   H8C14(NO)3
_chemical_formula_sum   'H512 C896 N192 O192'
_cell_volume   246251.29637445
_cell_formula_units_Z   64
loop_
 _symmetry_equiv_pos_site_id
 _symmetry_equiv_pos_as_xyz
  1  'x, y, z'
loop_
 _atom_site_type_symbol
 _atom_site_label
 _atom_site_symmetry_multiplicity
 _atom_site_fract_x
 _atom_site_fract_y
 _atom_site_fract_z
 _atom_site_occupancy
  H  2  1  0.13683600  0.09223700  0.88278300  1
  H  3  1  0.13715300  0.08659900  0.81702400  1
  H  5  1  0.11481200  0.12269800  0.91722700  1
  H  7  1  0.00984500  0.29853700  0.09290000  1
  H  9  1  0.00983900  0.29874000  0.91453400  1
  H  12  1  0.13828200  0.09256800  0.12499000  1
  H  13  1  0.13515700  0.09191500  0.19109200  1
  H  15  1  0.11574300  0.11878500  0.09282500  1
  H  20  1  0.13691200  0.33236800  0.12352600  1
  H  21  1  0.13677100  0.33975200  0.18877200  1
  H  23  1  0.11589400  0.30293300  0.08816300  1
  H  25  1  0.00852900  0.12358700  0.90933400  1
  H  26  1  0.00786500  0.12335900  0.09680700  1
  H  29  1  0.13807900  0.33169700  0.88178800  1
  H  30  1  0.13587000  0.33555400  0.81598700  1
  H  32  1  0.11711300  0.30604000  0.91418000  1
  H  41  1  0.07599100  0.08892900  0.88412900  1
  H  43  1  0.04687500  0.04022100  0.83250800  1
  H  44  1  0.08503100  0.04275100  0.83725200  1
  H  49  1  0.11108600  0.06739600  0.87953300  1
  H  51  1  0.01348700  0.06188700  0.83492800  1
  H  57  1  0.04801100  0.33224000  0.12660500  1
  H  59  1  0.07738000  0.38383400  0.17523700  1
  H  60  1  0.03917100  0.37913000  0.17286600  1
  H  65  1  0.01260900  0.33764900  0.14809200  1
  H  67  1  0.10986700  0.38226500  0.15132800  1
  H  73  1  0.04881800  0.33165200  0.87956400  1
  H  75  1  0.07797500  0.38340800  0.83083400  1
  H  76  1  0.03978600  0.37860400  0.83328800  1
  H  81  1  0.01369500  0.33617800  0.85827800  1
  H  83  1  0.11135400  0.38091400  0.85294600  1
  H  89  1  0.07682100  0.08941200  0.12284900  1
  H  91  1  0.04745600  0.04053900  0.17439100  1
  H  92  1  0.08568100  0.04313500  0.16987300  1
  H  97  1  0.11232000  0.06823400  0.12848200  1
  H  99  1  0.01484100  0.06436500  0.17259800  1
  H  104  1  0.11163300  0.11771700  0.01660800  1
  H  105  1  0.11512400  0.12232700  0.97945800  1
  H  107  1  0.11195000  0.13955900  0.04964700  1
  H  108  1  0.01282000  0.19879900  0.09783500  1
  H  109  1  0.00948700  0.23597700  0.09335500  1
  H  110  1  0.01216300  0.16532100  0.07756400  1
  H  111  1  0.01284400  0.19996000  0.90863800  1
  H  112  1  0.00898800  0.23710100  0.91345100  1
  H  113  1  0.01246500  0.16656600  0.93030600  1
  H  117  1  0.11227200  0.30693500  0.99031300  1
  H  118  1  0.11619500  0.30202000  0.02744800  1
  H  120  1  0.11278300  0.28733200  0.95640500  1
  H  134  1  0.14622300  0.22710400  0.57258100  1
  H  135  1  0.14621300  0.18999900  0.57932600  1
  H  136  1  0.14115300  0.25984100  0.59623500  1
  H  137  1  0.14602700  0.22725600  0.43374500  1
  H  138  1  0.14651500  0.19001700  0.42776100  1
  H  139  1  0.14085600  0.25971700  0.40924800  1
  H  143  1  0.14605600  0.16452000  0.95468800  1
  H  146  1  0.14686700  0.25876400  0.05105500  1
  H  151  1  0.88685300  0.90010600  0.87708700  1
  H  153  1  0.92908600  0.88217900  0.93589400  1
  H  160  1  0.48865400  0.90108800  0.62715300  1
  H  162  1  0.44679400  0.88157100  0.56913800  1
  H  169  1  0.48806500  0.89962700  0.37758800  1
  H  171  1  0.44483100  0.88097900  0.43618000  1
  H  178  1  0.88601900  0.90043700  0.12640500  1
  H  180  1  0.92826900  0.88204400  0.06803800  1
  H  188  1  0.45359300  0.98741300  0.57136900  1
  H  190  1  0.42197900  0.94122100  0.62363800  1
  H  191  1  0.40735700  0.97554800  0.61823400  1
  H  196  1  0.45337700  0.91886900  0.62142500  1
  H  202  1  0.95354800  0.93936500  0.93707600  1
  H  204  1  0.92181300  0.98540400  0.88472700  1
  H  205  1  0.90719400  0.95110400  0.89027400  1
  H  210  1  0.91956000  0.91782800  0.93454400  1
  H  216  1  0.42170200  0.93933100  0.43870900  1
  H  218  1  0.45285800  0.98570400  0.38635800  1
  H  219  1  0.46777100  0.95154100  0.39178200  1
  H  224  1  0.45500800  0.91739000  0.43565100  1
  H  230  1  0.92141400  0.98732400  0.06946000  1
  H  232  1  0.95262000  0.94117200  0.12200500  1
  H  233  1  0.96758000  0.97528300  0.11635500  1
  H  238  1  0.92152400  0.91875300  0.11989700  1
  H  243  1  0.54675300  0.88683300  0.67584400  1
  H  244  1  0.58492800  0.88439800  0.67113600  1
  H  246  1  0.61107600  0.85987800  0.62886900  1
  H  248  1  0.51339000  0.86517400  0.67335400  1
  H  253  1  0.82743700  0.88667000  0.83204900  1
  H  254  1  0.78923300  0.88419300  0.83660700  1
  H  256  1  0.76262200  0.85938200  0.87809100  1
  H  258  1  0.86004000  0.86327400  0.83381000  1
  H  263  1  0.82764400  0.88368000  0.17398900  1
  H  264  1  0.78950100  0.88061100  0.16924200  1
  H  266  1  0.86153900  0.86234200  0.17137200  1
  H  270  1  0.54686100  0.88316600  0.33103000  1
  H  271  1  0.58513100  0.87968600  0.33456800  1
  H  273  1  0.51305100  0.86136100  0.33445000  1
  H  285  1  0.76390200  0.85555200  0.12681600  1
  H  288  1  0.61180600  0.85482700  0.37603400  1
  H  299  1  0.88674100  0.59029200  0.12358600  1
  H  300  1  0.88721400  0.52451300  0.12923000  1
  H  307  1  0.92899300  0.64782300  0.06441000  1
  H  308  1  0.93902300  0.58479400  0.08001700  1
  H  311  1  0.93021000  0.54405600  0.07097300  1
  H  312  1  0.86469900  0.62509000  0.09293700  1
  H  323  1  0.38689500  0.33312800  0.38078100  1
  H  324  1  0.38716400  0.39890500  0.37524300  1
  H  331  1  0.42857900  0.27544300  0.43986100  1
  H  332  1  0.43908900  0.33852800  0.42446300  1
  H  335  1  0.43026000  0.37931500  0.43347900  1
  H  336  1  0.36452100  0.29868900  0.41131200  1
  H  349  1  0.17909300  0.15111400  0.94007000  1
  H  350  1  0.18923800  0.13583100  0.87701000  1
  H  352  1  0.18036500  0.14479600  0.83650500  1
  H  361  1  0.63670600  0.83494400  0.62550900  1
  H  362  1  0.63722700  0.84053200  0.69126300  1
  H  369  1  0.67896900  0.77588000  0.56810600  1
  H  370  1  0.68905000  0.79131000  0.63111000  1
  H  373  1  0.68020500  0.78228800  0.67194000  1
  H  374  1  0.61467100  0.80426600  0.59084400  1
  H  384  1  0.48721900  0.58949400  0.38121200  1
  H  385  1  0.48928700  0.52338100  0.38027400  1
  H  392  1  0.44566700  0.64816800  0.44005900  1
  H  393  1  0.43548100  0.58515200  0.42470700  1
  H  396  1  0.44622600  0.54400800  0.43727800  1
  H  397  1  0.50999900  0.62507900  0.41182300  1
  H  408  1  0.98708700  0.33392100  0.12330600  1
  H  409  1  0.98935600  0.40003100  0.12426700  1
  H  416  1  0.94554300  0.27535500  0.06461800  1
  H  417  1  0.93525900  0.33841200  0.07987200  1
  H  420  1  0.94616100  0.37945400  0.06727200  1
  H  430  1  0.23717900  0.09255000  0.62642900  1
  H  431  1  0.23934400  0.09156900  0.69254600  1
  H  438  1  0.19570600  0.15153400  0.56763100  1
  H  439  1  0.18548200  0.13601200  0.63067200  1
  H  442  1  0.19625800  0.14859100  0.67175400  1
  H  443  1  0.25999200  0.12313100  0.59076500  1
  H  454  1  0.73700900  0.83476800  0.88184400  1
  H  455  1  0.73940100  0.83561700  0.81574200  1
  H  462  1  0.69612200  0.77588800  0.94083900  1
  H  463  1  0.68540600  0.79109600  0.87772300  1
  H  466  1  0.69622300  0.77862700  0.83654100  1
  H  467  1  0.76015100  0.80430100  0.91715600  1
  H  478  1  0.98805200  0.33310600  0.88372400  1
  H  479  1  0.98756600  0.39879100  0.87645700  1
  H  486  1  0.94556900  0.27785000  0.94507000  1
  H  487  1  0.93533700  0.33932800  0.92503400  1
  H  490  1  0.94408000  0.37884800  0.93492100  1
  H  500  1  0.48838500  0.59032300  0.62068900  1
  H  501  1  0.48757900  0.52464300  0.62789000  1
  H  508  1  0.44567200  0.64586400  0.55939700  1
  H  509  1  0.43561200  0.58435400  0.57932100  1
  H  512  1  0.44419700  0.54445600  0.56952200  1
  H  513  1  0.51003100  0.62501700  0.58976800  1
  H  524  1  0.73882300  0.82988600  0.12351600  1
  H  525  1  0.73760700  0.83676300  0.18925000  1
  H  532  1  0.69524100  0.77034700  0.06743800  1
  H  533  1  0.68480200  0.78846400  0.12973400  1
  H  536  1  0.69413500  0.77856400  0.17021400  1
  H  537  1  0.75866000  0.80234400  0.08977800  1
  H  548  1  0.23823100  0.09253800  0.38104200  1
  H  549  1  0.23764800  0.08714300  0.31525400  1
  H  556  1  0.19790000  0.15130700  0.43951100  1
  H  557  1  0.18477900  0.13519200  0.37677800  1
  H  560  1  0.19431500  0.14507100  0.33402500  1
  H  561  1  0.25984300  0.11990600  0.41375400  1
  H  572  1  0.38756100  0.33379900  0.62047000  1
  H  573  1  0.38554800  0.39993900  0.62305800  1
  H  580  1  0.42940100  0.27730900  0.55943900  1
  H  581  1  0.43969600  0.33887500  0.57903300  1
  H  584  1  0.42871600  0.37971700  0.56567700  1
  H  585  1  0.36504200  0.29860900  0.58967100  1
  H  596  1  0.88724000  0.58956300  0.88406600  1
  H  597  1  0.88552500  0.52342700  0.88152700  1
  H  604  1  0.92931200  0.64625800  0.94503400  1
  H  605  1  0.93946600  0.58466100  0.92556200  1
  H  608  1  0.92865300  0.54373000  0.93883600  1
  H  609  1  0.86487200  0.62496800  0.91497500  1
  H  620  1  0.63807300  0.83096100  0.37976200  1
  H  621  1  0.63523700  0.83117800  0.31369900  1
  H  628  1  0.67696900  0.77240600  0.43980500  1
  H  629  1  0.69015500  0.78761700  0.37686000  1
  H  632  1  0.67879200  0.77454300  0.33412800  1
  H  633  1  0.61458400  0.80212800  0.41368400  1
  H  646  1  0.17715700  0.15082900  0.06542300  1
  H  647  1  0.19095600  0.13510100  0.12820800  1
  H  649  1  0.17900100  0.14860300  0.17109000  1
  H  658  1  0.38730300  0.09205900  0.62560000  1
  H  659  1  0.38678300  0.02669300  0.63147500  1
  H  666  1  0.42777000  0.15024500  0.56673100  1
  H  667  1  0.44006100  0.08720900  0.58317900  1
  H  670  1  0.42948400  0.04450800  0.57278200  1
  H  671  1  0.36627800  0.12363500  0.59913600  1
  H  677  1  0.88706000  0.83474400  0.88272100  1
  H  684  1  0.92767000  0.77619700  0.94161600  1
  H  685  1  0.93937600  0.83942500  0.92567300  1
  H  687  1  0.86567100  0.80172100  0.90972100  1
  H  696  1  0.63681900  0.59090000  0.38112200  1
  H  697  1  0.63681600  0.58360100  0.31586800  1
  H  704  1  0.67975100  0.65221400  0.43627200  1
  H  705  1  0.68850900  0.63234900  0.37446300  1
  H  708  1  0.67958100  0.64220600  0.33497600  1
  H  709  1  0.61570000  0.62052000  0.41676600  1
  H  722  1  0.17982400  0.27100600  0.06858600  1
  H  723  1  0.18873600  0.29107600  0.13033500  1
  H  725  1  0.17968000  0.28114600  0.16961700  1
  H  734  1  0.98662200  0.09101400  0.88294700  1
  H  735  1  0.98894300  0.02527400  0.88103600  1
  H  742  1  0.94682500  0.15042800  0.94096500  1
  H  743  1  0.93465800  0.08713500  0.92580800  1
  H  746  1  0.94655000  0.04463600  0.93892500  1
  H  753  1  0.48713200  0.83531000  0.62517200  1
  H  760  1  0.44689300  0.77592700  0.56612700  1
  H  761  1  0.43518900  0.83895300  0.58260000  1
  H  763  1  0.50874500  0.80139400  0.59852600  1
  H  772  1  0.73725200  0.59118200  0.12444400  1
  H  773  1  0.73877600  0.58747800  0.19021800  1
  H  780  1  0.69524000  0.65203700  0.06761500  1
  H  781  1  0.68600900  0.63291600  0.12977400  1
  H  784  1  0.69689000  0.64574700  0.17017000  1
  H  785  1  0.75905800  0.62037700  0.08813600  1
  H  796  1  0.23735500  0.33201500  0.38020200  1
  H  797  1  0.23873800  0.33577400  0.31442000  1
  H  804  1  0.19486700  0.27100600  0.43683800  1
  H  805  1  0.18614900  0.29043500  0.37477600  1
  H  808  1  0.19694500  0.27748800  0.33447400  1
  H  809  1  0.25893500  0.30263200  0.41691700  1
  H  815  1  0.48817800  0.83447800  0.38574900  1
  H  822  1  0.44646600  0.77783600  0.44488700  1
  H  823  1  0.43605600  0.84048300  0.42741500  1
  H  825  1  0.50947700  0.80147000  0.41339700  1
  H  834  1  0.98747700  0.09199600  0.12254700  1
  H  835  1  0.98812000  0.02671000  0.13023600  1
  H  842  1  0.94628400  0.14834000  0.06280600  1
  H  843  1  0.93497600  0.08609900  0.08164700  1
  H  846  1  0.94423900  0.04567600  0.07199200  1
  H  857  1  0.23818000  0.33118400  0.62452600  1
  H  858  1  0.23799200  0.33968200  0.68963600  1
  H  865  1  0.19598400  0.27209600  0.56833900  1
  H  866  1  0.18561200  0.29049900  0.63075100  1
  H  869  1  0.19468100  0.28110400  0.67189800  1
  H  870  1  0.25816900  0.30528500  0.59222300  1
  H  881  1  0.73835600  0.59475400  0.88277600  1
  H  882  1  0.73802600  0.58702700  0.81750600  1
  H  889  1  0.69513000  0.65833100  0.93643300  1
  H  890  1  0.68584500  0.63497400  0.87575000  1
  H  893  1  0.69514700  0.64562000  0.83688900  1
  H  894  1  0.75848800  0.62391500  0.91762100  1
  H  900  1  0.88733100  0.83473000  0.12154100  1
  H  907  1  0.92904400  0.77734000  0.06267900  1
  H  908  1  0.93939500  0.83990400  0.08066800  1
  H  910  1  0.86684500  0.80147300  0.09570600  1
  H  919  1  0.38709300  0.09136100  0.38561900  1
  H  920  1  0.38597500  0.02554500  0.38160000  1
  H  927  1  0.42992300  0.14625100  0.44904500  1
  H  928  1  0.43916800  0.08542900  0.42595200  1
  H  931  1  0.42784500  0.04541300  0.43986800  1
  H  932  1  0.36647900  0.12712800  0.41467900  1
  H  945  1  0.17872400  0.27225600  0.93944500  1
  H  946  1  0.19004400  0.29058500  0.87707400  1
  H  948  1  0.17855300  0.27752700  0.83522500  1
  H  957  1  0.63736600  0.59537000  0.62585500  1
  H  958  1  0.63593300  0.59084000  0.69157000  1
  H  965  1  0.67851900  0.65423600  0.56799100  1
  H  966  1  0.68893300  0.63729400  0.63076700  1
  H  969  1  0.67798800  0.64927500  0.67259000  1
  H  970  1  0.61541000  0.62311800  0.59183200  1
  H  979  1  0.94496600  0.57932900  0.01626900  1
  H  981  1  0.97863000  0.64302500  0.98890900  1
  H  982  1  0.97855700  0.63639100  0.02606000  1
  H  987  1  0.96251600  0.58811000  0.05102600  1
  H  989  1  0.98382400  0.61914400  0.95627500  1
  H  995  1  0.44492200  0.34390200  0.48819700  1
  H  997  1  0.47866900  0.28027000  0.51560100  1
  H  998  1  0.47848700  0.28681900  0.47843400  1
  H  1003  1  0.46247100  0.33504400  0.45342800  1
  H  1005  1  0.48395600  0.30419900  0.54816400  1
  H  1011  1  0.19504000  0.20002000  0.87194500  1
  H  1013  1  0.22860400  0.22672400  0.93582100  1
  H  1014  1  0.22851300  0.18964900  0.92898300  1
  H  1019  1  0.21254700  0.16516500  0.88045800  1
  H  1021  1  0.23389000  0.25953200  0.91230900  1
  H  1027  1  0.69500000  0.72725000  0.63647800  1
  H  1029  1  0.72848600  0.70043300  0.57260200  1
  H  1030  1  0.72855000  0.73750300  0.57945500  1
  H  1035  1  0.71247400  0.76214300  0.62780200  1
  H  1037  1  0.73332000  0.66742200  0.59597000  1
  H  1043  1  0.42984200  0.57936200  0.48832100  1
  H  1045  1  0.39624400  0.64294900  0.51577500  1
  H  1046  1  0.39617300  0.63644800  0.47863000  1
  H  1051  1  0.41219600  0.58832500  0.45361100  1
  H  1053  1  0.39121300  0.61895400  0.54844700  1
  H  1058  1  0.92981800  0.34396100  0.01616500  1
  H  1060  1  0.89623600  0.28036200  0.98873100  1
  H  1061  1  0.89616400  0.28687500  0.02588000  1
  H  1066  1  0.91208900  0.33512300  0.05081300  1
  H  1068  1  0.89107700  0.30439000  0.95612800  1
  H  1074  1  0.17980600  0.19990900  0.63636100  1
  H  1080  1  0.16239200  0.16507300  0.62755500  1
  H  1087  1  0.67999600  0.72755800  0.87203500  1
  H  1089  1  0.64616300  0.69949200  0.93533700  1
  H  1090  1  0.64638900  0.73676200  0.92919100  1
  H  1095  1  0.66230000  0.76216800  0.88113900  1
  H  1097  1  0.64074100  0.66726200  0.91053900  1
  H  1103  1  0.67972400  0.72348700  0.13484600  1
  H  1105  1  0.64633800  0.69665900  0.07091900  1
  H  1106  1  0.64611500  0.73375300  0.07786800  1
  H  1111  1  0.66203300  0.75799900  0.12691400  1
  H  1113  1  0.64106900  0.66385900  0.09498900  1
  H  1119  1  0.18003800  0.19942300  0.37054700  1
  H  1125  1  0.16271700  0.16457700  0.38014200  1
  H  1132  1  0.69471500  0.72391500  0.37062400  1
  H  1134  1  0.72874000  0.69551100  0.43367500  1
  H  1135  1  0.72829900  0.73280300  0.42786500  1
  H  1140  1  0.71219900  0.75865300  0.38048500  1
  H  1142  1  0.73377200  0.66322000  0.40908200  1
  H  1148  1  0.19476500  0.19938600  0.13402300  1
  H  1150  1  0.22868300  0.22763600  0.07086000  1
  H  1151  1  0.22832000  0.19035700  0.07680000  1
  H  1156  1  0.21239300  0.16477800  0.12457000  1
  H  1158  1  0.23385700  0.25991000  0.09546500  1
  H  1164  1  0.44468400  0.08169800  0.51840200  1
  H  1166  1  0.47873500  0.14488600  0.49038900  1
  H  1167  1  0.47814900  0.13890700  0.52768300  1
  H  1172  1  0.46207200  0.09077500  0.55305500  1
  H  1174  1  0.48429100  0.12003900  0.45819700  1
  H  1180  1  0.94481100  0.84528600  0.99021200  1
  H  1182  1  0.97875800  0.78179900  0.01761700  1
  H  1183  1  0.97824800  0.78814700  0.98044900  1
  H  1186  1  0.96178700  0.83602700  0.95521500  1
  H  1188  1  0.98390600  0.80554900  0.05025300  1
  H  1194  1  0.92998800  0.08179000  0.99037800  1
  H  1196  1  0.89620400  0.14525200  0.01776300  1
  H  1197  1  0.89654100  0.13895700  0.98059400  1
  H  1202  1  0.91262700  0.09089600  0.95555800  1
  H  1204  1  0.89109500  0.12148100  0.05039600  1
  H  1210  1  0.42998400  0.84535400  0.51812900  1
  H  1212  1  0.39627700  0.78193800  0.49052700  1
  H  1213  1  0.39642200  0.78820400  0.52768700  1
  H  1216  1  0.41290500  0.83594200  0.55304000  1
  H  1218  1  0.39163000  0.80560000  0.45772300  1
  H  1224  1  0.95369300  0.48557300  0.06909600  1
  H  1226  1  0.92137000  0.44003100  0.12161700  1
  H  1227  1  0.90710600  0.47440900  0.11587900  1
  H  1232  1  0.91975800  0.50773600  0.07195800  1
  H  1234  1  0.95277400  0.41784400  0.11995000  1
  H  1240  1  0.45370100  0.43776900  0.43540600  1
  H  1242  1  0.42140600  0.48334000  0.38289200  1
  H  1243  1  0.40713500  0.44896200  0.38861100  1
  H  1248  1  0.41976700  0.41560600  0.43252300  1
  H  1250  1  0.45284500  0.50551400  0.38458500  1
  H  1256  1  0.20376100  0.14674800  0.77795600  1
  H  1258  1  0.17141100  0.09427300  0.73258700  1
  H  1259  1  0.15713400  0.10001500  0.76693500  1
  H  1264  1  0.16996600  0.14387700  0.80020200  1
  H  1266  1  0.20285900  0.09590900  0.71042000  1
  H  1272  1  0.70373200  0.78045200  0.73038600  1
  H  1274  1  0.67138500  0.83293300  0.77575000  1
  H  1275  1  0.65710800  0.82718600  0.74140000  1
  H  1280  1  0.66974600  0.78328100  0.70824900  1
  H  1282  1  0.70280100  0.83129500  0.79793200  1
  H  1288  1  0.92129800  0.43775500  0.93731900  1
  H  1290  1  0.95334500  0.48335900  0.88466800  1
  H  1291  1  0.96783300  0.44912000  0.89050700  1
  H  1296  1  0.95483800  0.41542700  0.93424300  1
  H  1298  1  0.92208100  0.50549400  0.88630300  1
  H  1304  1  0.42132700  0.48563200  0.56720500  1
  H  1306  1  0.45337600  0.44002700  0.61985200  1
  H  1307  1  0.46785200  0.47427800  0.61402200  1
  H  1312  1  0.45503400  0.50786300  0.57023800  1
  H  1314  1  0.42216500  0.41786000  0.61820900  1
  H  1320  1  0.67111800  0.77655100  0.22844300  1
  H  1322  1  0.70344600  0.82905000  0.27382800  1
  H  1323  1  0.71774700  0.82329700  0.23949900  1
  H  1328  1  0.70511500  0.77943500  0.20633600  1
  H  1330  1  0.67194900  0.82739800  0.29592300  1
  H  1336  1  0.17105800  0.14678100  0.27623600  1
  H  1338  1  0.20353600  0.09422300  0.23100600  1
  H  1339  1  0.21780200  0.10010100  0.26533300  1
  H  1342  1  0.20530600  0.14403900  0.29820700  1
  H  1344  1  0.17220300  0.09578700  0.20880700  1
  H  1346  1  0.41964600  0.00897800  0.57402100  1
  H  1348  1  0.95295700  0.00789000  0.88686400  1
  H  1354  1  0.70339000  0.64442900  0.27628600  1
  H  1356  1  0.67198600  0.59206200  0.23028900  1
  H  1357  1  0.65714000  0.59761900  0.26445100  1
  H  1362  1  0.67015300  0.64162200  0.29830100  1
  H  1364  1  0.70302000  0.59419200  0.20781300  1
  H  1370  1  0.20339400  0.27884600  0.22828500  1
  H  1372  1  0.17202800  0.33121200  0.27431200  1
  H  1373  1  0.15716300  0.32566800  0.24015800  1
  H  1378  1  0.17017300  0.28169200  0.20626500  1
  H  1380  1  0.20308900  0.32906500  0.29676600  1
  H  1382  1  0.42187700  0.00808600  0.38851300  1
  H  1384  1  0.95469900  0.00926300  0.07234100  1
  H  1390  1  0.17158600  0.27900600  0.72985700  1
  H  1392  1  0.20295900  0.33133900  0.77593200  1
  H  1393  1  0.21782500  0.32582000  0.74177500  1
  H  1396  1  0.20519600  0.28180700  0.70812900  1
  H  1398  1  0.17203400  0.32915500  0.79843200  1
  H  1404  1  0.67150500  0.64821600  0.77807200  1
  H  1406  1  0.70268600  0.59572600  0.73208600  1
  H  1407  1  0.71765800  0.60135000  0.76615700  1
  H  1412  1  0.70457800  0.64522300  0.80019300  1
  H  1414  1  0.67175900  0.59774500  0.70962000  1
  H  1420  1  0.82603300  0.59152500  0.12689900  1
  H  1422  1  0.79688500  0.53977100  0.17566500  1
  H  1423  1  0.83505800  0.54459600  0.17323300  1
  H  1428  1  0.86112300  0.58690500  0.14850800  1
  H  1430  1  0.76360400  0.54210300  0.15353900  1
  H  1436  1  0.32603600  0.33174900  0.37761700  1
  H  1438  1  0.29686100  0.38349200  0.32885100  1
  H  1439  1  0.33503500  0.37868500  0.33127800  1
  H  1444  1  0.36113400  0.33641700  0.35603700  1
  H  1446  1  0.26358600  0.38115300  0.35098500  1
  H  1448  1  0.57603200  0.83819500  0.62423400  1
  H  1457  1  0.54800400  0.59103800  0.37789500  1
  H  1459  1  0.57739300  0.53944100  0.32927500  1
  H  1460  1  0.53918200  0.54414800  0.33162900  1
  H  1465  1  0.51262700  0.58565400  0.35633900  1
  H  1467  1  0.60988300  0.54102200  0.35316000  1
  H  1473  1  0.29803700  0.08930200  0.62478100  1
  H  1475  1  0.32741200  0.04048900  0.67638200  1
  H  1476  1  0.28921500  0.04300600  0.67180700  1
  H  1481  1  0.26266400  0.06779700  0.63027500  1
  H  1483  1  0.36005200  0.06389000  0.67460100  1
  H  1485  1  0.79798300  0.83787300  0.88362800  1
  H  1494  1  0.54922100  0.59160800  0.62451100  1
  H  1496  1  0.57857800  0.54082200  0.67412400  1
  H  1497  1  0.54033500  0.54460700  0.67074400  1
  H  1502  1  0.51416100  0.58704700  0.64588300  1
  H  1504  1  0.61296300  0.54493000  0.65395000  1
  H  1507  1  0.79920800  0.83439000  0.12256900  1
  H  1516  1  0.29874900  0.08958900  0.38245000  1
  H  1518  1  0.32886000  0.04073400  0.33149500  1
  H  1519  1  0.29055600  0.04342800  0.33535800  1
  H  1524  1  0.26382900  0.06750500  0.37746400  1
  H  1526  1  0.36272900  0.06176300  0.33533800  1
  H  1532  1  0.32637900  0.33239500  0.62470400  1
  H  1534  1  0.29775700  0.38378400  0.67393900  1
  H  1535  1  0.33593500  0.37911200  0.67094000  1
  H  1540  1  0.36193300  0.33729000  0.64555400  1
  H  1542  1  0.26450900  0.38182800  0.65094200  1
  H  1548  1  0.82681500  0.59138600  0.88034700  1
  H  1550  1  0.79642200  0.54040700  0.83167300  1
  H  1551  1  0.83476100  0.54424600  0.83417800  1
  H  1556  1  0.86195600  0.58578200  0.85854800  1
  H  1558  1  0.76325600  0.54353300  0.85450000  1
  H  1561  1  0.57641600  0.83345900  0.38165400  1
  H  1570  1  0.91249600  0.69779000  0.04657900  1
  H  1572  1  0.86238100  0.72569300  0.09786200  1
  H  1573  1  0.86547100  0.68851500  0.09347300  1
  H  1578  1  0.89634800  0.66327700  0.05157300  1
  H  1580  1  0.86365900  0.75948100  0.07856400  1
  H  1586  1  0.41046800  0.22698700  0.45890200  1
  H  1588  1  0.36076800  0.19839500  0.40748500  1
  H  1589  1  0.36333800  0.23566000  0.41190500  1
  H  1594  1  0.39494200  0.26135000  0.45317500  1
  H  1596  1  0.37372100  0.16342600  0.41312000  1
  H  1599  1  0.16179900  0.16953000  0.98931000  1
  H  1608  1  0.66221100  0.75782300  0.51842400  1
  H  1610  1  0.61214300  0.80918800  0.49033300  1
  H  1611  1  0.61534500  0.80489500  0.52752100  1
  H  1616  1  0.64618800  0.76296600  0.55290800  1
  H  1618  1  0.61303700  0.78894900  0.45700800  1
  H  1624  1  0.46234900  0.69750000  0.45822100  1
  H  1626  1  0.51234100  0.72597300  0.40702500  1
  H  1627  1  0.50928900  0.68876000  0.41117600  1
  H  1632  1  0.47865900  0.66308700  0.45305300  1
  H  1634  1  0.51084700  0.75974500  0.42554000  1
  H  1640  1  0.96275100  0.22648400  0.04615400  1
  H  1646  1  0.97881900  0.26102200  0.05116900  1
  H  1653  1  0.21259200  0.16908500  0.51774600  1
  H  1655  1  0.26277100  0.11755700  0.49038700  1
  H  1656  1  0.25956800  0.12223500  0.52750800  1
  H  1661  1  0.22857500  0.16425700  0.55234300  1
  H  1663  1  0.26203300  0.13847100  0.45710300  1
  H  1669  1  0.71489400  0.75690900  0.98920000  1
  H  1671  1  0.76481000  0.80860500  0.01696900  1
  H  1672  1  0.76186000  0.80390200  0.97980200  1
  H  1677  1  0.72994800  0.76258900  0.95462400  1
  H  1679  1  0.74806000  0.80639100  0.05109300  1
  H  1685  1  0.96224400  0.22631700  0.96040600  1
  H  1691  1  0.97858800  0.26062600  0.95670300  1
  H  1698  1  0.46185900  0.69844800  0.54488800  1
  H  1700  1  0.51254800  0.72465900  0.59648200  1
  H  1701  1  0.50897400  0.68757000  0.59131000  1
  H  1706  1  0.47800100  0.66402900  0.54835900  1
  H  1708  1  0.51177500  0.75836300  0.57528500  1
  H  1714  1  0.41259000  0.22585200  0.54440900  1
  H  1716  1  0.36184400  0.19976300  0.59626000  1
  H  1717  1  0.36569500  0.23687200  0.59110000  1
  H  1722  1  0.39629400  0.26022700  0.54783500  1
  H  1724  1  0.36220600  0.16637400  0.57405500  1
  H  1730  1  0.91292300  0.69803000  0.96000200  1
  H  1732  1  0.86238500  0.72491200  0.90848300  1
  H  1733  1  0.86589700  0.68775600  0.91335700  1
  H  1738  1  0.89648700  0.66376800  0.95635500  1
  H  1740  1  0.86308600  0.75827400  0.92933600  1
  H  1746  1  0.66330500  0.66803200  0.48854400  1
  H  1748  1  0.61275400  0.61669200  0.51571700  1
  H  1749  1  0.61635400  0.62128600  0.47853800  1
  H  1754  1  0.64709900  0.66417900  0.45424200  1
  H  1756  1  0.61413800  0.63456700  0.54990000  1
  H  1758  1  0.16291500  0.25512000  0.01664900  1
  H  1766  1  0.71352700  0.66878400  0.01684900  1
  H  1768  1  0.76364300  0.61705700  0.98958200  1
  H  1769  1  0.76061800  0.62203000  0.02681400  1
  H  1774  1  0.72928200  0.66454800  0.05106600  1
  H  1776  1  0.75140000  0.62258300  0.95421000  1
  H  1782  1  0.21148300  0.25550000  0.48911500  1
  H  1784  1  0.26211000  0.30696200  0.51570400  1
  H  1785  1  0.25852500  0.30207000  0.47857500  1
  H  1790  1  0.22772400  0.25905700  0.45476600  1
  H  1792  1  0.26105100  0.28824600  0.54984700  1
  C  1  1  0.13437800  0.08765100  0.85010000  1
  C  11  1  0.13446200  0.08991100  0.15789900  1
  C  18  1  0.13923200  0.32551600  0.13803200  1
  C  19  1  0.13213900  0.33663100  0.15602600  1
  C  27  1  0.13280900  0.33471600  0.84912400  1
  C  28  1  0.13950400  0.32696300  0.82928500  1
  C  36  1  0.08362800  0.06529800  0.86198700  1
  C  37  1  0.06947800  0.07814300  0.87383800  1
  C  38  1  0.04669600  0.07711100  0.87124000  1
  C  39  1  0.03802800  0.06240600  0.85640000  1
  C  40  1  0.05254500  0.05016400  0.84405200  1
  C  42  1  0.07504200  0.05160700  0.84666800  1
  C  48  1  0.10546500  0.06768100  0.86479300  1
  C  50  1  0.01634200  0.06155100  0.85040300  1
  C  52  1  0.04043200  0.35457500  0.15012000  1
  C  53  1  0.05453700  0.34250600  0.13740800  1
  C  54  1  0.07731500  0.34509200  0.13835900  1
  C  55  1  0.08604800  0.36008500  0.15286100  1
  C  56  1  0.07163500  0.37223500  0.16540600  1
  C  58  1  0.04911500  0.36966200  0.16401900  1
  C  64  1  0.01856800  0.35224300  0.14738200  1
  C  66  1  0.10753800  0.36675100  0.15256700  1
  C  68  1  0.04114600  0.35380300  0.85586700  1
  C  69  1  0.05531900  0.34196400  0.86875200  1
  C  70  1  0.07809900  0.34459900  0.86776000  1
  C  71  1  0.08679800  0.35945100  0.85303300  1
  C  72  1  0.07228500  0.37182300  0.84075800  1
  C  74  1  0.04976900  0.36916900  0.84216600  1
  C  80  1  0.01928300  0.35093600  0.85830200  1
  C  82  1  0.10850800  0.36544600  0.85239200  1
  C  84  1  0.08443400  0.06595700  0.14530200  1
  C  85  1  0.07030000  0.07857200  0.13311900  1
  C  86  1  0.04750600  0.07748500  0.13558400  1
  C  87  1  0.03876900  0.06289600  0.15054500  1
  C  88  1  0.05320500  0.05042700  0.16280200  1
  C  90  1  0.07573700  0.05195500  0.16034500  1
  C  96  1  0.10630600  0.06884200  0.14305500  1
  C  98  1  0.01723500  0.06308900  0.15710300  1
  C  100  1  0.13853200  0.14671800  0.98073900  1
  C  101  1  0.13466400  0.14092700  0.02594700  1
  C  102  1  0.12273400  0.12855200  0.01129900  1
  C  103  1  0.12460700  0.13128200  0.98925200  1
  C  106  1  0.12782700  0.13964800  0.04715600  1
  C  114  1  0.13511800  0.28375800  0.98051000  1
  C  115  1  0.12345100  0.29608900  0.99542700  1
  C  116  1  0.12564700  0.29323700  0.01747400  1
  C  119  1  0.12847900  0.28532800  0.95918200  1
  C  121  1  0.14143600  0.09816400  0.86845300  1
  C  122  1  0.14224800  0.09437000  0.83038500  1
  C  123  1  0.14416600  0.12799600  0.90627400  1
  C  125  1  0.14255100  0.09906200  0.13917800  1
  C  126  1  0.14121600  0.09830300  0.17739700  1
  C  127  1  0.14434700  0.12848400  0.10141500  1
  C  128  1  0.13963000  0.33011800  0.17601100  1
  C  129  1  0.14347100  0.29419100  0.10089500  1
  C  131  1  0.14031800  0.32442300  0.86748700  1
  C  132  1  0.14344600  0.29313000  0.90451600  1
  C  142  1  0.14078300  0.15021900  0.95897900  1
  C  144  1  0.13972200  0.27776000  0.02573700  1
  C  145  1  0.14199200  0.27336600  0.04738200  1
  C  147  1  0.88229000  0.86732300  0.87948500  1
  C  148  1  0.88998700  0.88708100  0.88633300  1
  C  149  1  0.90331800  0.88916100  0.90433200  1
  C  150  1  0.90802600  0.87035600  0.91636100  1
  C  156  1  0.49207800  0.86803600  0.62707500  1
  C  157  1  0.48499600  0.88759900  0.61892900  1
  C  158  1  0.47183100  0.88893500  0.60061500  1
  C  159  1  0.46712300  0.86966600  0.58960300  1
  C  165  1  0.49283900  0.86692100  0.38105700  1
  C  166  1  0.48518400  0.88691900  0.38733600  1
  C  167  1  0.47232500  0.88967600  0.40557700  1
  C  168  1  0.46794600  0.87135600  0.41835100  1
  C  174  1  0.88246800  0.86736500  0.12501800  1
  C  175  1  0.88948500  0.88727200  0.11760100  1
  C  176  1  0.90218600  0.88933600  0.09903800  1
  C  177  1  0.90675200  0.87057700  0.08723300  1
  C  183  1  0.42930600  0.98508400  0.59430300  1
  C  184  1  0.44723600  0.97751700  0.58260100  1
  C  185  1  0.45635100  0.95685300  0.58519800  1
  C  186  1  0.44684600  0.94271600  0.60032600  1
  C  187  1  0.42917800  0.95062000  0.61242400  1
  C  189  1  0.42053000  0.97110200  0.60947700  1
  C  195  1  0.45491100  0.92250500  0.60613400  1
  C  197  1  0.92924100  0.94161600  0.91414700  1
  C  198  1  0.94718600  0.94921800  0.92580900  1
  C  199  1  0.95629900  0.96986500  0.92314300  1
  C  200  1  0.94679000  0.98390300  0.90793600  1
  C  201  1  0.92905600  0.97601800  0.89592900  1
  C  203  1  0.92040900  0.95555900  0.89896900  1
  C  209  1  0.91997800  0.92189400  0.91937200  1
  C  211  1  0.44589900  0.94179800  0.41569400  1
  C  212  1  0.42793200  0.94925600  0.42743700  1
  C  213  1  0.41860100  0.96982800  0.42482200  1
  C  214  1  0.42787200  0.98396300  0.40954600  1
  C  215  1  0.44570900  0.97625200  0.39756100  1
  C  217  1  0.45456000  0.95586800  0.40054300  1
  C  223  1  0.45519400  0.92199800  0.42062500  1
  C  225  1  0.94569600  0.98486700  0.09237800  1
  C  226  1  0.92766900  0.97742900  0.08074900  1
  C  227  1  0.91833200  0.95688700  0.08349200  1
  C  228  1  0.92763900  0.94280700  0.09880100  1
  C  229  1  0.94547300  0.95056900  0.11075600  1
  C  231  1  0.95435600  0.97091100  0.10763200  1
  C  237  1  0.91948500  0.92267400  0.10473200  1
  C  239  1  0.58360300  0.86184700  0.64639500  1
  C  240  1  0.53799600  0.86462400  0.65194300  1
  C  241  1  0.55246400  0.87690800  0.66430500  1
  C  242  1  0.57497000  0.87552000  0.66171100  1
  C  245  1  0.60544500  0.85952400  0.64360500  1
  C  247  1  0.51629000  0.86537900  0.65788600  1
  C  249  1  0.79045800  0.86139800  0.86120600  1
  C  250  1  0.83607600  0.86425100  0.85586500  1
  C  251  1  0.82167800  0.87677400  0.84362800  1
  C  252  1  0.79915900  0.87533400  0.84611600  1
  C  255  1  0.76859700  0.85867800  0.86350700  1
  C  257  1  0.85759800  0.86420900  0.84932400  1
  C  259  1  0.79123300  0.85805500  0.14453600  1
  C  260  1  0.83680400  0.86158900  0.15013100  1
  C  261  1  0.82210900  0.87361700  0.16249000  1
  C  262  1  0.79962400  0.87185500  0.15987000  1
  C  265  1  0.85853000  0.86286200  0.15593100  1
  C  267  1  0.53827300  0.86103700  0.35513000  1
  C  268  1  0.55267800  0.87300900  0.34235000  1
  C  269  1  0.57522600  0.87096600  0.34422500  1
  C  272  1  0.51642000  0.86214200  0.34980400  1
  C  275  1  0.90125800  0.84977600  0.90917100  1
  C  276  1  0.47459200  0.85051700  0.41192600  1
  C  277  1  0.90053600  0.85001900  0.09473900  1
  C  282  1  0.54671700  0.84995800  0.63709600  1
  C  283  1  0.82732800  0.84969900  0.87085900  1
  C  284  1  0.76943900  0.85542300  0.14159100  1
  C  286  1  0.58396900  0.85688500  0.35916200  1
  C  287  1  0.60584200  0.85408700  0.36144800  1
  C  289  1  0.95234800  0.59254200  0.01020000  1
  C  290  1  0.92246000  0.33076400  0.01008300  1
  C  291  1  0.15229900  0.26620000  0.01095100  1
  C  292  1  0.72421800  0.65786400  0.01100800  1
  C  293  1  0.90244200  0.57526400  0.09817800  1
  C  294  1  0.89134900  0.57600200  0.11763300  1
  C  295  1  0.88437100  0.55758900  0.12817200  1
  C  296  1  0.89227000  0.53791200  0.12144500  1
  C  297  1  0.90559700  0.53604800  0.10348700  1
  C  298  1  0.90934800  0.55470200  0.09103300  1
  C  301  1  0.90762300  0.59551300  0.08833000  1
  C  302  1  0.89408200  0.61419500  0.08788300  1
  C  303  1  0.90190500  0.63398400  0.07957300  1
  C  304  1  0.92305600  0.63427400  0.07130500  1
  C  305  1  0.93593300  0.61622400  0.07057500  1
  C  306  1  0.92874400  0.59745200  0.08007400  1
  C  317  1  0.40252800  0.34819200  0.40621500  1
  C  318  1  0.39145700  0.34742700  0.38675000  1
  C  319  1  0.38439500  0.36582600  0.37625300  1
  C  320  1  0.39225400  0.38551000  0.38300800  1
  C  321  1  0.40559700  0.38737700  0.40096000  1
  C  322  1  0.40939400  0.36873200  0.41340200  1
  C  325  1  0.40766800  0.32797400  0.41606300  1
  C  326  1  0.39397400  0.30943200  0.41648700  1
  C  327  1  0.40169900  0.28960300  0.42467100  1
  C  328  1  0.42285400  0.28906000  0.43292900  1
  C  329  1  0.43583900  0.30705100  0.43380100  1
  C  330  1  0.42877100  0.32589900  0.42433700  1
  C  341  1  0.15256700  0.11760200  0.86758200  1
  C  342  1  0.15558200  0.11232200  0.82842900  1
  C  343  1  0.15940100  0.12477200  0.84700400  1
  C  344  1  0.15781200  0.12748300  0.88771000  1
  C  345  1  0.15200300  0.13623400  0.92600000  1
  C  346  1  0.17323300  0.14428100  0.92648100  1
  C  347  1  0.18614800  0.14510300  0.90846700  1
  C  348  1  0.17895400  0.13571900  0.88966500  1
  C  355  1  0.65247300  0.80954600  0.64059900  1
  C  356  1  0.64133700  0.82898200  0.63981000  1
  C  357  1  0.63435800  0.83949300  0.65819700  1
  C  358  1  0.64228600  0.83276500  0.67788500  1
  C  359  1  0.65563200  0.81482000  0.67979500  1
  C  360  1  0.65938800  0.80238300  0.66117800  1
  C  363  1  0.65765400  0.79970900  0.62038600  1
  C  364  1  0.64409000  0.79928600  0.60172300  1
  C  365  1  0.65190800  0.79101400  0.58195900  1
  C  366  1  0.67305900  0.78275100  0.58165100  1
  C  367  1  0.68593700  0.78194300  0.59969800  1
  C  368  1  0.67876300  0.79141000  0.61845700  1
  C  378  1  0.47230200  0.57539500  0.40757200  1
  C  379  1  0.48305200  0.57538100  0.38793500  1
  C  380  1  0.49053100  0.55657700  0.37850800  1
  C  381  1  0.48355500  0.53709900  0.38684400  1
  C  382  1  0.47004700  0.53598500  0.40487900  1
  C  383  1  0.46597000  0.55520900  0.41607200  1
  C  386  1  0.46694000  0.59584000  0.41658200  1
  C  387  1  0.48052300  0.61444800  0.41674600  1
  C  388  1  0.47270100  0.63424700  0.42490700  1
  C  389  1  0.45153900  0.63461200  0.43318500  1
  C  390  1  0.43856400  0.61662300  0.43394700  1
  C  391  1  0.44572700  0.59784700  0.42454900  1
  C  402  1  0.97217600  0.34811600  0.09698200  1
  C  403  1  0.98294900  0.34805900  0.11661100  1
  C  404  1  0.99051700  0.36683000  0.12602700  1
  C  405  1  0.98358700  0.38632800  0.11769600  1
  C  406  1  0.97008200  0.38747600  0.09965800  1
  C  407  1  0.96592500  0.36829200  0.08845900  1
  C  410  1  0.96675000  0.32775400  0.08793900  1
  C  411  1  0.98042600  0.30925200  0.08767300  1
  C  412  1  0.97258600  0.28949200  0.07954300  1
  C  413  1  0.95135500  0.28895400  0.07146700  1
  C  414  1  0.93833600  0.30690500  0.07070000  1
  C  415  1  0.94550700  0.32571700  0.08003400  1
  C  424  1  0.22231700  0.11891000  0.64046600  1
  C  425  1  0.23304300  0.09926100  0.64052800  1
  C  426  1  0.24055200  0.08982700  0.65935300  1
  C  427  1  0.23359500  0.09814800  0.67881400  1
  C  428  1  0.22009800  0.11618900  0.67987900  1
  C  429  1  0.21600900  0.12740100  0.66062800  1
  C  432  1  0.21694700  0.12793900  0.62000400  1
  C  433  1  0.23053300  0.12812900  0.60140100  1
  C  434  1  0.22271200  0.13631300  0.58158400  1
  C  435  1  0.20156500  0.14463100  0.58120300  1
  C  436  1  0.18858200  0.14535800  0.59919200  1
  C  437  1  0.19572900  0.13588800  0.61797500  1
  C  448  1  0.72219200  0.80838500  0.86778800  1
  C  449  1  0.73291500  0.82803500  0.86774100  1
  C  450  1  0.74052200  0.83741900  0.84893400  1
  C  451  1  0.73361500  0.82906300  0.82947200  1
  C  452  1  0.72010200  0.81102800  0.82840300  1
  C  453  1  0.71594300  0.79984300  0.84764800  1
  C  456  1  0.71686400  0.79935700  0.88822600  1
  C  457  1  0.73060900  0.79920400  0.90668300  1
  C  458  1  0.72290000  0.79114500  0.92654800  1
  C  459  1  0.70175800  0.78282700  0.92719400  1
  C  460  1  0.68867400  0.78190400  0.90926600  1
  C  461  1  0.69568700  0.79132700  0.89039100  1
  C  472  1  0.97275500  0.34887600  0.90897200  1
  C  473  1  0.98351700  0.34755200  0.88933800  1
  C  474  1  0.99035800  0.36571100  0.87821900  1
  C  475  1  0.98259300  0.38556700  0.88458200  1
  C  476  1  0.96961600  0.38786300  0.90272200  1
  C  477  1  0.96601800  0.36958100  0.91565500  1
  C  480  1  0.96772300  0.32929800  0.92006200  1
  C  481  1  0.98110100  0.31059800  0.92108000  1
  C  482  1  0.97331000  0.29140500  0.93062700  1
  C  483  1  0.95236100  0.29161300  0.93956400  1
  C  484  1  0.93911300  0.30947200  0.93855000  1
  C  485  1  0.94635400  0.32751900  0.92780300  1
  C  494  1  0.47291600  0.57472600  0.59545300  1
  C  495  1  0.48377000  0.57591800  0.61504900  1
  C  496  1  0.49056700  0.55770100  0.62611500  1
  C  497  1  0.48263000  0.53790100  0.61979900  1
  C  498  1  0.46956600  0.53568500  0.60171300  1
  C  499  1  0.46603800  0.55402300  0.58880700  1
  C  502  1  0.46795100  0.59443000  0.58442200  1
  C  503  1  0.48121400  0.61326100  0.58350900  1
  C  504  1  0.47343600  0.63252900  0.57398300  1
  C  505  1  0.45254700  0.63214800  0.56490200  1
  C  506  1  0.43937400  0.61421300  0.56583200  1
  C  507  1  0.44662300  0.59617900  0.57659100  1
  C  518  1  0.72228500  0.80523400  0.13903700  1
  C  519  1  0.73380900  0.82443700  0.13792100  1
  C  520  1  0.74065400  0.83523500  0.15620300  1
  C  521  1  0.73258600  0.82883200  0.17595600  1
  C  522  1  0.71923200  0.81091100  0.17807300  1
  C  523  1  0.71531800  0.79832500  0.15962600  1
  C  526  1  0.71666700  0.79531000  0.11909600  1
  C  527  1  0.73048200  0.79383200  0.10074600  1
  C  528  1  0.72234100  0.78546300  0.08122600  1
  C  529  1  0.70102900  0.77795400  0.08069000  1
  C  530  1  0.68780300  0.77839900  0.09848100  1
  C  531  1  0.69513100  0.78805600  0.11710800  1
  C  542  1  0.22157500  0.11745100  0.36605400  1
  C  543  1  0.23325600  0.09830200  0.36675000  1
  C  544  1  0.24048200  0.08803100  0.34831600  1
  C  545  1  0.23242600  0.09473400  0.32867500  1
  C  546  1  0.21874900  0.11246600  0.32687800  1
  C  547  1  0.21456100  0.12467500  0.34557100  1
  C  550  1  0.21649800  0.12710500  0.38635000  1
  C  551  1  0.23088200  0.12808500  0.40427200  1
  C  552  1  0.22347000  0.13536100  0.42452700  1
  C  553  1  0.20248700  0.14357200  0.42600400  1
  C  554  1  0.18896200  0.14461000  0.40827300  1
  C  555  1  0.19532900  0.13494100  0.38922000  1
  C  566  1  0.40210800  0.34862100  0.59426200  1
  C  567  1  0.39165300  0.34808000  0.61407900  1
  C  568  1  0.38432000  0.36667700  0.62408400  1
  C  569  1  0.39118200  0.38635800  0.61612500  1
  C  570  1  0.40431200  0.38786800  0.59786700  1
  C  571  1  0.40826200  0.36897300  0.58620500  1
  C  574  1  0.40731700  0.32879200  0.58399000  1
  C  575  1  0.39390700  0.31014800  0.58326100  1
  C  576  1  0.40168100  0.29093500  0.57383700  1
  C  577  1  0.42264200  0.29108200  0.56489100  1
  C  578  1  0.43594400  0.30890800  0.56582800  1
  C  579  1  0.42872900  0.32697800  0.57643400  1
  C  590  1  0.90196100  0.57487000  0.91024900  1
  C  591  1  0.89144800  0.57531800  0.89045800  1
  C  592  1  0.88417600  0.55667800  0.88047500  1
  C  593  1  0.89115100  0.53703100  0.88841900  1
  C  594  1  0.90433400  0.53558200  0.90664100  1
  C  595  1  0.90822200  0.55451800  0.91828300  1
  C  598  1  0.90712200  0.59478100  0.92048700  1
  C  599  1  0.89380700  0.61352500  0.92112400  1
  C  600  1  0.90157900  0.63279100  0.93052400  1
  C  601  1  0.92249300  0.63251500  0.93958400  1
  C  602  1  0.93573200  0.61463100  0.93873500  1
  C  603  1  0.92850600  0.59657000  0.92812600  1
  C  614  1  0.65340100  0.80477800  0.36584200  1
  C  615  1  0.64228000  0.82423600  0.36567900  1
  C  616  1  0.63428100  0.83327000  0.34686100  1
  C  617  1  0.64121900  0.82484400  0.32745100  1
  C  618  1  0.65505100  0.80702600  0.32647300  1
  C  619  1  0.65965000  0.79610200  0.34578600  1
  C  622  1  0.65852800  0.79593200  0.38640700  1
  C  623  1  0.64413900  0.79559800  0.40431400  1
  C  624  1  0.65158200  0.78865400  0.42468400  1
  C  625  1  0.67237900  0.77993500  0.42617000  1
  C  626  1  0.68591800  0.77851600  0.40848500  1
  C  627  1  0.67966900  0.78810500  0.38935000  1
  C  638  1  0.15378400  0.11845800  0.13927700  1
  C  639  1  0.15499800  0.11615800  0.17852200  1
  C  640  1  0.15986700  0.12711400  0.15932900  1
  C  641  1  0.15906900  0.12744500  0.11893100  1
  C  642  1  0.15157100  0.13555600  0.08112100  1
  C  643  1  0.17273100  0.14324500  0.07906300  1
  C  644  1  0.18658300  0.14428900  0.09656200  1
  C  645  1  0.18037100  0.13478500  0.11578200  1
  C  652  1  0.40163500  0.07677500  0.59935200  1
  C  653  1  0.38995300  0.07770300  0.61856000  1
  C  654  1  0.38238700  0.05949600  0.62898200  1
  C  655  1  0.39001700  0.03967600  0.62221000  1
  C  656  1  0.40339600  0.03747200  0.60424600  1
  C  657  1  0.40828300  0.05619600  0.59219300  1
  C  660  1  0.40810700  0.09693700  0.59018800  1
  C  661  1  0.39393000  0.11482300  0.58840600  1
  C  662  1  0.40155900  0.13493000  0.58123500  1
  C  663  1  0.42301600  0.13672600  0.57441400  1
  C  664  1  0.43652000  0.11893200  0.57382300  1
  C  665  1  0.42966000  0.09977600  0.58321500  1
  C  676  1  0.88969700  0.84903600  0.88988400  1
  C  678  1  0.90763400  0.82943800  0.91820400  1
  C  679  1  0.89376700  0.81120200  0.91934800  1
  C  680  1  0.90160000  0.79099300  0.92626000  1
  C  681  1  0.92278800  0.78971000  0.93400000  1
  C  682  1  0.93599800  0.80770400  0.93494000  1
  C  683  1  0.92908600  0.82678200  0.92548000  1
  C  690  1  0.64993500  0.61750000  0.36530000  1
  C  691  1  0.63915300  0.59779100  0.36663800  1
  C  692  1  0.63212600  0.58668400  0.34860900  1
  C  693  1  0.63965000  0.59322300  0.32864700  1
  C  694  1  0.65241800  0.61152500  0.32606200  1
  C  695  1  0.65652800  0.62418600  0.34446000  1
  C  698  1  0.65621200  0.62791200  0.38500500  1
  C  699  1  0.64337500  0.62897900  0.40405000  1
  C  700  1  0.65160300  0.63819400  0.42322400  1
  C  701  1  0.67268100  0.64679500  0.42263100  1
  C  702  1  0.68559300  0.64567300  0.40451400  1
  C  703  1  0.67781900  0.63514000  0.38652500  1
  C  714  1  0.15004600  0.30582800  0.13945200  1
  C  715  1  0.15239000  0.31181500  0.17864200  1
  C  716  1  0.15656400  0.29913600  0.16028700  1
  C  717  1  0.15639500  0.29538300  0.11983900  1
  C  718  1  0.15169800  0.28493000  0.08179300  1
  C  719  1  0.17281800  0.27644200  0.08225500  1
  C  720  1  0.18580000  0.27767600  0.10030600  1
  C  721  1  0.17803800  0.28823700  0.11829100  1
  C  728  1  0.97303100  0.07666800  0.91012000  1
  C  729  1  0.98429600  0.07692400  0.89067000  1
  C  730  1  0.99203100  0.05837000  0.88109000  1
  C  731  1  0.98516400  0.03873700  0.88924900  1
  C  732  1  0.97201900  0.03730900  0.90758400  1
  C  733  1  0.96698900  0.05645200  0.91858400  1
  C  736  1  0.96651300  0.09695100  0.91857200  1
  C  737  1  0.98066700  0.11485100  0.91977600  1
  C  738  1  0.97294100  0.13506300  0.92643000  1
  C  739  1  0.95160100  0.13680400  0.93359500  1
  C  740  1  0.93814200  0.11899500  0.93461600  1
  C  741  1  0.94496000  0.09977900  0.92545400  1
  C  751  1  0.47347700  0.84941400  0.59794300  1
  C  752  1  0.48469100  0.84935600  0.61741900  1
  C  754  1  0.46703100  0.82893400  0.58956700  1
  C  755  1  0.48096500  0.81077900  0.58828200  1
  C  756  1  0.47314800  0.79065400  0.58116500  1
  C  757  1  0.45179500  0.78934000  0.57388200  1
  C  758  1  0.43845600  0.80725700  0.57331000  1
  C  759  1  0.44545000  0.82627300  0.58272800  1
  C  766  1  0.72468600  0.61854200  0.13920200  1
  C  767  1  0.73516000  0.59866100  0.13864800  1
  C  768  1  0.74229300  0.58832200  0.15712900  1
  C  769  1  0.73541900  0.59612400  0.17688600  1
  C  770  1  0.72286600  0.61478900  0.17858200  1
  C  771  1  0.71864400  0.62645200  0.15964100  1
  C  774  1  0.71831100  0.62831700  0.11932600  1
  C  775  1  0.73133600  0.62913600  0.10047600  1
  C  776  1  0.72320100  0.63810000  0.08119100  1
  C  777  1  0.70209800  0.64667300  0.08140200  1
  C  778  1  0.68906300  0.64584200  0.09946700  1
  C  779  1  0.69669600  0.63546500  0.11763500  1
  C  790  1  0.22482400  0.30463400  0.36547800  1
  C  791  1  0.23525800  0.32453300  0.36600300  1
  C  792  1  0.24231400  0.33490600  0.34750300  1
  C  793  1  0.23541400  0.32711400  0.32775100  1
  C  794  1  0.22287200  0.30844400  0.32606200  1
  C  795  1  0.21872300  0.29676400  0.34501900  1
  C  798  1  0.21842200  0.29485700  0.38538800  1
  C  799  1  0.23127600  0.29401000  0.40438400  1
  C  800  1  0.22302100  0.28494400  0.42363200  1
  C  801  1  0.20192300  0.27635900  0.42314500  1
  C  802  1  0.18900000  0.27738300  0.40502200  1
  C  803  1  0.19677800  0.28778800  0.38694800  1
  C  814  1  0.48571000  0.84903400  0.39238700  1
  C  816  1  0.46850500  0.83078700  0.42244300  1
  C  817  1  0.48205700  0.81229500  0.42366100  1
  C  818  1  0.47397500  0.79240200  0.43137300  1
  C  819  1  0.45287200  0.79182600  0.43959900  1
  C  820  1  0.43968200  0.80986200  0.43962200  1
  C  821  1  0.44696100  0.82848900  0.42967800  1
  C  828  1  0.97384800  0.07587400  0.09641200  1
  C  829  1  0.98497700  0.07742600  0.11593100  1
  C  830  1  0.99240800  0.05950500  0.12701900  1
  C  831  1  0.98500700  0.03947000  0.12062800  1
  C  832  1  0.97204700  0.03677000  0.10246400  1
  C  833  1  0.96740200  0.05507900  0.08981900  1
  C  836  1  0.96765500  0.09543900  0.08587600  1
  C  837  1  0.98155000  0.11353800  0.08394600  1
  C  838  1  0.97374600  0.13326300  0.07583100  1
  C  839  1  0.95239900  0.13433300  0.06833400  1
  C  840  1  0.93881100  0.11659500  0.06906400  1
  C  841  1  0.94597200  0.09796300  0.07911600  1
  C  851  1  0.22439100  0.30519900  0.64077900  1
  C  852  1  0.23561800  0.32465300  0.63914300  1
  C  853  1  0.24273200  0.33602100  0.65696100  1
  C  854  1  0.23504800  0.32989500  0.67701200  1
  C  855  1  0.22209000  0.31173300  0.67989800  1
  C  856  1  0.21764500  0.29891400  0.66166100  1
  C  859  1  0.21818700  0.29473200  0.62110700  1
  C  860  1  0.23173700  0.29307300  0.60265600  1
  C  861  1  0.22367700  0.28519300  0.58287100  1
  C  862  1  0.20237200  0.27752700  0.58225700  1
  C  863  1  0.18909000  0.27809600  0.60022600  1
  C  864  1  0.19649500  0.28799700  0.61878700  1
  C  875  1  0.72497600  0.62109600  0.86673100  1
  C  876  1  0.73595000  0.60147600  0.86822400  1
  C  877  1  0.74286200  0.59018900  0.85023200  1
  C  878  1  0.73529400  0.59670700  0.83026100  1
  C  879  1  0.72262200  0.61506100  0.82758700  1
  C  880  1  0.71845800  0.62775600  0.84590700  1
  C  883  1  0.71834600  0.63159200  0.88620500  1
  C  884  1  0.73129900  0.63340500  0.90505200  1
  C  885  1  0.72276700  0.64297900  0.92387400  1
  C  886  1  0.70194600  0.65188600  0.92310400  1
  C  887  1  0.68875200  0.64944300  0.90532100  1
  C  888  1  0.69652200  0.63826600  0.88769800  1
  C  899  1  0.88964500  0.84910500  0.11439600  1
  C  901  1  0.90684100  0.83018100  0.08489200  1
  C  902  1  0.89325500  0.81179300  0.08341900  1
  C  903  1  0.90133800  0.79199700  0.07565200  1
  C  904  1  0.92267600  0.79129100  0.06805300  1
  C  905  1  0.93598500  0.80924300  0.06856100  1
  C  906  1  0.92856400  0.82785900  0.07830300  1
  C  913  1  0.39992200  0.07634900  0.41277200  1
  C  914  1  0.38925600  0.07707400  0.39297200  1
  C  915  1  0.38227000  0.05862500  0.38248600  1
  C  916  1  0.38922100  0.03884500  0.39028500  1
  C  917  1  0.40168900  0.03703800  0.40900100  1
  C  918  1  0.40593800  0.05589300  0.42067300  1
  C  921  1  0.40669600  0.09599900  0.42260200  1
  C  922  1  0.39368900  0.11476700  0.42429800  1
  C  923  1  0.40224800  0.13359500  0.43379700  1
  C  924  1  0.42312300  0.13290300  0.44261900  1
  C  925  1  0.43633900  0.11513500  0.44019300  1
  C  926  1  0.42856200  0.09748900  0.42909800  1
  C  937  1  0.15112000  0.30470700  0.86671200  1
  C  938  1  0.15225200  0.30842000  0.82744900  1
  C  939  1  0.15704300  0.29684000  0.84629200  1
  C  940  1  0.15738700  0.29484100  0.88647600  1
  C  941  1  0.15124100  0.28515300  0.92428000  1
  C  942  1  0.17260100  0.27766500  0.92541400  1
  C  943  1  0.18621900  0.27828400  0.90769300  1
  C  944  1  0.17908700  0.28820300  0.88901400  1
  C  951  1  0.65035100  0.62236100  0.64092000  1
  C  952  1  0.63958000  0.60261600  0.64016200  1
  C  953  1  0.63238300  0.59202900  0.65848000  1
  C  954  1  0.63934400  0.59960000  0.67832700  1
  C  955  1  0.65192400  0.61825400  0.68026200  1
  C  956  1  0.65645000  0.63000800  0.66142500  1
  C  959  1  0.65651000  0.63226800  0.62101100  1
  C  960  1  0.64292900  0.63323400  0.60257100  1
  C  961  1  0.65100200  0.64081700  0.58264500  1
  C  962  1  0.67210900  0.64906000  0.58200500  1
  C  963  1  0.68532500  0.64921200  0.60002300  1
  C  964  1  0.67806700  0.63940800  0.61870400  1
  C  975  1  0.96318700  0.60639300  0.02409700  1
  C  976  1  0.95190600  0.59617800  0.98809600  1
  C  977  1  0.96210500  0.61477600  0.98008100  1
  C  978  1  0.97121300  0.62954900  0.99433500  1
  C  980  1  0.97170000  0.62548700  0.01612900  1
  C  986  1  0.96142500  0.60277800  0.04537800  1
  C  988  1  0.96813600  0.61711500  0.95905900  1
  C  990  1  0.46308900  0.31680300  0.48037200  1
  C  991  1  0.45231000  0.33069400  0.49427200  1
  C  992  1  0.45192800  0.32710600  0.51638500  1
  C  993  1  0.46215500  0.30852800  0.52441700  1
  C  994  1  0.47122400  0.29372700  0.51016600  1
  C  996  1  0.47164200  0.29773600  0.48836100  1
  C  1002  1  0.46130000  0.32038700  0.45908600  1
  C  1004  1  0.46826200  0.30624900  0.54542800  1
  C  1006  1  0.21317200  0.19188500  0.89899000  1
  C  1007  1  0.20237800  0.20594800  0.88522200  1
  C  1008  1  0.20193900  0.22802900  0.88899700  1
  C  1009  1  0.21208000  0.23591700  0.90765300  1
  C  1010  1  0.22117400  0.22145300  0.92231400  1
  C  1012  1  0.22165300  0.19968400  0.91813500  1
  C  1018  1  0.21148300  0.17062100  0.89517900  1
  C  1020  1  0.21818100  0.25694600  0.91016900  1
  C  1022  1  0.71315600  0.73532100  0.60942700  1
  C  1023  1  0.70234300  0.72128900  0.62321700  1
  C  1024  1  0.70181100  0.69921000  0.61943600  1
  C  1025  1  0.71186500  0.69131000  0.60074200  1
  C  1026  1  0.72110100  0.70572800  0.58612600  1
  C  1028  1  0.72167300  0.72748900  0.59031200  1
  C  1034  1  0.71138600  0.75659400  0.61311900  1
  C  1036  1  0.71764300  0.67023100  0.59806400  1
  C  1038  1  0.41157600  0.60645500  0.48055100  1
  C  1039  1  0.42246700  0.59254700  0.49441200  1
  C  1040  1  0.42299500  0.59610300  0.51651200  1
  C  1041  1  0.41282800  0.61468000  0.52455000  1
  C  1042  1  0.40364500  0.62949500  0.51032700  1
  C  1044  1  0.40306900  0.62550900  0.48854100  1
  C  1050  1  0.41327600  0.60296800  0.45926400  1
  C  1052  1  0.40688700  0.61692200  0.54559600  1
  C  1054  1  0.91154800  0.31687600  0.02394600  1
  C  1055  1  0.92298700  0.32720100  0.98798500  1
  C  1056  1  0.91279900  0.30863700  0.97994200  1
  C  1057  1  0.90365200  0.29380700  0.99417700  1
  C  1059  1  0.90307400  0.29780300  0.01596600  1
  C  1065  1  0.91315200  0.32045000  0.04523100  1
  C  1067  1  0.90675800  0.30646800  0.95890800  1
  C  1069  1  0.16161700  0.19200900  0.60930000  1
  C  1070  1  0.17243400  0.20595200  0.62313000  1
  C  1071  1  0.17292300  0.22805800  0.61941500  1
  C  1072  1  0.16281500  0.23605800  0.60075600  1
  C  1073  1  0.15362800  0.22173000  0.58608100  1
  C  1075  1  0.15308300  0.19995000  0.59020900  1
  C  1079  1  0.16339600  0.17071700  0.61288100  1
  C  1081  1  0.15686100  0.25711700  0.59822300  1
  C  1082  1  0.66181100  0.73512100  0.89920600  1
  C  1083  1  0.67260900  0.72136100  0.88518700  1
  C  1084  1  0.67300900  0.69922000  0.88856500  1
  C  1085  1  0.66274700  0.69097700  0.90703200  1
  C  1086  1  0.65366500  0.70508200  0.92197700  1
  C  1088  1  0.65327100  0.72694200  0.91819900  1
  C  1094  1  0.66349800  0.75644400  0.89576900  1
  C  1096  1  0.65647800  0.66993100  0.90873600  1
  C  1098  1  0.66135200  0.73154600  0.10792800  1
  C  1099  1  0.67242600  0.71755400  0.12155100  1
  C  1100  1  0.67304500  0.69550100  0.11773000  1
  C  1101  1  0.66289900  0.68759000  0.09909700  1
  C  1102  1  0.65375100  0.70198600  0.08441300  1
  C  1104  1  0.65307400  0.72374200  0.08867600  1
  C  1110  1  0.66260400  0.75279800  0.11207100  1
  C  1112  1  0.65679000  0.66655100  0.09687800  1
  C  1114  1  0.16213100  0.19171600  0.39788000  1
  C  1115  1  0.17264300  0.20557800  0.38369000  1
  C  1116  1  0.17286200  0.22773900  0.38696900  1
  C  1117  1  0.16265300  0.23589600  0.40546900  1
  C  1118  1  0.15355600  0.22172800  0.42039600  1
  C  1120  1  0.15335200  0.19986800  0.41673300  1
  C  1124  1  0.16409600  0.17038600  0.39469800  1
  C  1126  1  0.15657700  0.25695600  0.40746200  1
  C  1127  1  0.71261800  0.73136000  0.39801400  1
  C  1128  1  0.70210900  0.71763800  0.38373200  1
  C  1129  1  0.70185700  0.69544900  0.38691400  1
  C  1130  1  0.71205000  0.68713300  0.40538600  1
  C  1131  1  0.72120600  0.70116100  0.42035800  1
  C  1133  1  0.72143600  0.72305000  0.41680300  1
  C  1139  1  0.71066200  0.75271100  0.39499200  1
  C  1141  1  0.71806300  0.66604000  0.40727200  1
  C  1143  1  0.21268600  0.19186100  0.10667200  1
  C  1144  1  0.20210900  0.20562100  0.12086800  1
  C  1145  1  0.20181600  0.22780000  0.11761700  1
  C  1146  1  0.21201900  0.23608800  0.09913900  1
  C  1147  1  0.22113600  0.22201500  0.08418200  1
  C  1149  1  0.22140700  0.20013100  0.08781400  1
  C  1155  1  0.21100500  0.17050400  0.10996100  1
  C  1157  1  0.21813900  0.25716800  0.09730200  1
  C  1159  1  0.46257100  0.10900800  0.52610000  1
  C  1160  1  0.45204300  0.09487800  0.51223800  1
  C  1161  1  0.45186500  0.09815100  0.49006400  1
  C  1162  1  0.46216900  0.11659600  0.48182900  1
  C  1163  1  0.47114100  0.13157300  0.49597000  1
  C  1165  1  0.47126600  0.12791500  0.51787000  1
  C  1171  1  0.46093100  0.10546200  0.54747200  1
  C  1173  1  0.46853600  0.11829500  0.46079900  1
  C  1175  1  0.96262000  0.81800300  0.98228600  1
  C  1176  1  0.95219500  0.83207800  0.99628200  1
  C  1177  1  0.95201100  0.82859400  0.01844700  1
  C  1178  1  0.96217300  0.80998900  0.02650700  1
  C  1179  1  0.97124800  0.79522900  0.01220100  1
  C  1181  1  0.97142800  0.79909400  0.99035600  1
  C  1185  1  0.96061800  0.82139800  0.96093800  1
  C  1187  1  0.96818600  0.80749000  0.04756300  1
  C  1189  1  0.91215700  0.10909200  0.98244200  1
  C  1190  1  0.92267300  0.09501900  0.99643300  1
  C  1191  1  0.92296900  0.09847700  0.01858700  1
  C  1192  1  0.91283300  0.11705500  0.02666500  1
  C  1193  1  0.90372300  0.13185000  0.01234400  1
  C  1195  1  0.90344500  0.12801800  0.99049800  1
  C  1201  1  0.91384300  0.10557200  0.96109100  1
  C  1203  1  0.90679700  0.11936400  0.04774800  1
  C  1205  1  0.41207300  0.81806400  0.52594500  1
  C  1206  1  0.42263500  0.83217000  0.51201700  1
  C  1207  1  0.42303800  0.82873000  0.48985900  1
  C  1208  1  0.41299600  0.81012400  0.48174000  1
  C  1209  1  0.40372600  0.79536000  0.49598800  1
  C  1211  1  0.40332300  0.79918100  0.51782200  1
  C  1215  1  0.41395800  0.82132900  0.54731300  1
  C  1217  1  0.40729700  0.80765800  0.46060700  1
  C  1219  1  0.92930300  0.48349500  0.09195500  1
  C  1220  1  0.94720600  0.47578000  0.08034800  1
  C  1221  1  0.95616100  0.45511100  0.08319200  1
  C  1222  1  0.94641100  0.44127200  0.09843400  1
  C  1223  1  0.92869500  0.44928200  0.11034900  1
  C  1225  1  0.92025300  0.46976000  0.10718500  1
  C  1231  1  0.92046400  0.50338000  0.08704500  1
  C  1233  1  0.95423600  0.42120200  0.10457400  1
  C  1235  1  0.42930900  0.43987200  0.41255300  1
  C  1236  1  0.44721400  0.44757300  0.42416100  1
  C  1237  1  0.45617100  0.46824400  0.42132700  1
  C  1238  1  0.44642300  0.48210500  0.40610000  1
  C  1239  1  0.42872100  0.47408800  0.39416600  1
  C  1241  1  0.42027600  0.45360900  0.39731600  1
  C  1247  1  0.42046700  0.41998900  0.41744400  1
  C  1249  1  0.45425200  0.50218700  0.39997200  1
  C  1251  1  0.17934100  0.12392800  0.77593400  1
  C  1252  1  0.19726400  0.13551000  0.76819500  1
  C  1253  1  0.20622600  0.13266400  0.74754100  1
  C  1254  1  0.19646500  0.11744200  0.73374300  1
  C  1255  1  0.17873700  0.10553700  0.74179600  1
  C  1257  1  0.17028700  0.10870400  0.76225700  1
  C  1263  1  0.17053100  0.12881300  0.79580900  1
  C  1265  1  0.20429400  0.11129300  0.71369000  1
  C  1267  1  0.67932700  0.80328900  0.73238900  1
  C  1268  1  0.69724300  0.79169900  0.74013900  1
  C  1269  1  0.70620700  0.79454500  0.76079500  1
  C  1270  1  0.69644900  0.80977400  0.77458700  1
  C  1271  1  0.67871800  0.82167400  0.76653600  1
  C  1273  1  0.67026900  0.81850700  0.74607400  1
  C  1279  1  0.67048000  0.79837100  0.71253000  1
  C  1281  1  0.70427300  0.81591900  0.79463600  1
  C  1283  1  0.94569200  0.43999400  0.91447500  1
  C  1284  1  0.92772400  0.44757800  0.92605500  1
  C  1285  1  0.91862400  0.46816500  0.92314900  1
  C  1286  1  0.92826600  0.48198900  0.90782000  1
  C  1287  1  0.94607200  0.47409900  0.89595900  1
  C  1289  1  0.95466500  0.45371500  0.89920100  1
  C  1295  1  0.95453700  0.42012900  0.91924600  1
  C  1297  1  0.92037900  0.50199700  0.90162700  1
  C  1299  1  0.44569300  0.48342200  0.59007900  1
  C  1300  1  0.42774100  0.47581800  0.57848200  1
  C  1301  1  0.41864600  0.45522500  0.58138000  1
  C  1302  1  0.42828200  0.44140800  0.59671700  1
  C  1303  1  0.44609100  0.44929600  0.60857100  1
  C  1305  1  0.45467600  0.46968900  0.60533900  1
  C  1311  1  0.45456600  0.50328000  0.58526900  1
  C  1313  1  0.42040000  0.42139900  0.60290000  1
  C  1315  1  0.69553000  0.79938400  0.23050700  1
  C  1316  1  0.67759900  0.78779300  0.23821000  1
  C  1317  1  0.66862400  0.79064500  0.25885000  1
  C  1318  1  0.67839600  0.80587300  0.27262900  1
  C  1319  1  0.69612200  0.81779000  0.26461000  1
  C  1321  1  0.70458600  0.81461500  0.24416800  1
  C  1327  1  0.70438600  0.79450800  0.21067700  1
  C  1329  1  0.67059500  0.81200200  0.29266100  1
  C  1331  1  0.19547900  0.12395500  0.27425200  1
  C  1332  1  0.17755000  0.13551100  0.26650800  1
  C  1333  1  0.16860100  0.13259900  0.24587500  1
  C  1334  1  0.17839700  0.11731500  0.23218000  1
  C  1335  1  0.19616900  0.10547300  0.24020300  1
  C  1337  1  0.20461000  0.10872300  0.26063700  1
  C  1341  1  0.20430500  0.12892600  0.29406000  1
  C  1343  1  0.17064300  0.11114600  0.21217500  1
  C  1345  1  0.42003600  0.00482400  0.58917100  1
  C  1347  1  0.95481100  0.00406900  0.90208300  1
  C  1349  1  0.67906800  0.62153600  0.27398400  1
  C  1350  1  0.69708100  0.63317200  0.26643500  1
  C  1351  1  0.70635600  0.63048600  0.24586100  1
  C  1352  1  0.69698400  0.61524300  0.23181900  1
  C  1353  1  0.67916800  0.60328000  0.23965600  1
  C  1355  1  0.67036100  0.60634200  0.26003800  1
  C  1361  1  0.66981200  0.62659700  0.29375400  1
  C  1363  1  0.70513800  0.60934200  0.21170100  1
  C  1365  1  0.17906900  0.30173300  0.23062200  1
  C  1366  1  0.19708900  0.29009700  0.23814700  1
  C  1367  1  0.20637200  0.29277700  0.25871800  1
  C  1368  1  0.19700800  0.30801300  0.27277600  1
  C  1369  1  0.17919700  0.31999000  0.26494400  1
  C  1371  1  0.17037700  0.31693500  0.24456500  1
  C  1377  1  0.16980700  0.29670100  0.21086000  1
  C  1379  1  0.20517200  0.31390700  0.29289700  1
  C  1381  1  0.41964700  0.00407200  0.40363000  1
  C  1383  1  0.95496600  0.00460700  0.08735300  1
  C  1385  1  0.19584800  0.30196400  0.73219300  1
  C  1386  1  0.17785300  0.29027900  0.73971300  1
  C  1387  1  0.16856900  0.29293300  0.76028100  1
  C  1388  1  0.17792300  0.30820000  0.77430400  1
  C  1389  1  0.19576300  0.32015900  0.76653000  1
  C  1391  1  0.20457700  0.31712200  0.74615800  1
  C  1395  1  0.20517000  0.29689700  0.71247200  1
  C  1397  1  0.16981400  0.31405000  0.79441400  1
  C  1399  1  0.69575600  0.62526400  0.77573700  1
  C  1400  1  0.67773500  0.63691100  0.76822700  1
  C  1401  1  0.66836800  0.63418100  0.74769200  1
  C  1402  1  0.67763600  0.61885400  0.73365600  1
  C  1403  1  0.69551500  0.60694900  0.74145300  1
  C  1405  1  0.70441400  0.61006100  0.76178400  1
  C  1411  1  0.70504600  0.63024900  0.79549900  1
  C  1413  1  0.66947700  0.61286300  0.71354100  1
  C  1415  1  0.83366800  0.56936200  0.15061800  1
  C  1416  1  0.81952900  0.58122000  0.13771700  1
  C  1417  1  0.79675900  0.57855300  0.13868400  1
  C  1418  1  0.78806900  0.56367100  0.15339100  1
  C  1419  1  0.80257000  0.55135400  0.16573300  1
  C  1421  1  0.82507200  0.55401800  0.16434200  1
  C  1427  1  0.85550500  0.57216300  0.14823000  1
  C  1429  1  0.76639300  0.55758400  0.15400600  1
  C  1431  1  0.33366000  0.35392500  0.35390000  1
  C  1432  1  0.31952700  0.34205100  0.36679900  1
  C  1433  1  0.29675700  0.34470800  0.36583200  1
  C  1434  1  0.28806100  0.35959400  0.35113200  1
  C  1435  1  0.30255200  0.37191200  0.33878100  1
  C  1437  1  0.32505600  0.36925800  0.34016900  1
  C  1443  1  0.35550200  0.35115200  0.35629200  1
  C  1445  1  0.26638100  0.36567300  0.35053600  1
  C  1447  1  0.56949600  0.84897400  0.63451900  1
  C  1452  1  0.54043700  0.56870700  0.35437200  1
  C  1453  1  0.55453400  0.58077200  0.36709400  1
  C  1454  1  0.57731200  0.57818600  0.36615300  1
  C  1455  1  0.58605000  0.56319100  0.35165500  1
  C  1456  1  0.57164400  0.55103900  0.33910500  1
  C  1458  1  0.54912300  0.55361400  0.34048100  1
  C  1464  1  0.51857400  0.57105800  0.35708800  1
  C  1466  1  0.60754400  0.55653600  0.35195600  1
  C  1468  1  0.29047700  0.06579200  0.64720200  1
  C  1469  1  0.30457900  0.07848900  0.63506800  1
  C  1470  1  0.32736800  0.07745000  0.63756100  1
  C  1471  1  0.33609100  0.06288000  0.65255400  1
  C  1472  1  0.32167100  0.05039000  0.66480000  1
  C  1474  1  0.29915600  0.05185500  0.66230300  1
  C  1480  1  0.26861900  0.06851200  0.64486700  1
  C  1482  1  0.35761400  0.06287800  0.65909200  1
  C  1484  1  0.80453900  0.84868900  0.87335100  1
  C  1489  1  0.54159500  0.56941900  0.64817400  1
  C  1490  1  0.55574900  0.58144500  0.63544800  1
  C  1491  1  0.57856500  0.57938300  0.63695300  1
  C  1492  1  0.58729600  0.56503400  0.65215300  1
  C  1493  1  0.57281900  0.55214100  0.66393300  1
  C  1495  1  0.55027800  0.55418300  0.66197800  1
  C  1501  1  0.51973200  0.57228200  0.64576800  1
  C  1503  1  0.60924300  0.56023000  0.65403100  1
  C  1505  1  0.80557200  0.84530500  0.13281300  1
  C  1506  1  0.82833200  0.84661000  0.13546100  1
  C  1511  1  0.29147600  0.06595800  0.36014100  1
  C  1512  1  0.30541300  0.07878600  0.37227200  1
  C  1513  1  0.32823600  0.07763300  0.37019200  1
  C  1514  1  0.33719700  0.06278500  0.35567800  1
  C  1515  1  0.32292900  0.05073100  0.34286300  1
  C  1517  1  0.30036400  0.05228700  0.34495100  1
  C  1523  1  0.26958100  0.06814500  0.36278200  1
  C  1525  1  0.35913900  0.06166700  0.35066700  1
  C  1527  1  0.33433200  0.35456000  0.64821400  1
  C  1528  1  0.32000600  0.34263600  0.63561500  1
  C  1529  1  0.29723800  0.34522900  0.63689400  1
  C  1530  1  0.28872300  0.36003400  0.65170600  1
  C  1531  1  0.30335000  0.37225400  0.66394300  1
  C  1533  1  0.32585300  0.36969200  0.66219300  1
  C  1539  1  0.35616400  0.35197500  0.64527000  1
  C  1541  1  0.26712900  0.36635800  0.65216400  1
  C  1543  1  0.83400500  0.56893200  0.85681400  1
  C  1544  1  0.82011200  0.58121800  0.86955800  1
  C  1545  1  0.79728200  0.57916100  0.86850900  1
  C  1546  1  0.78824600  0.56450600  0.85385400  1
  C  1547  1  0.80242400  0.55183100  0.84156300  1
  C  1549  1  0.82500700  0.55389700  0.84302900  1
  C  1555  1  0.85594100  0.57120700  0.85929600  1
  C  1557  1  0.76643300  0.55892400  0.85362900  1
  C  1559  1  0.56986600  0.84440700  0.37151700  1
  C  1560  1  0.54704400  0.84598100  0.36960000  1
  C  1565  1  0.88907300  0.68939500  0.06928700  1
  C  1566  1  0.90191700  0.70385600  0.05746900  1
  C  1567  1  0.90054300  0.72631700  0.05980100  1
  C  1568  1  0.88549100  0.73495500  0.07468300  1
  C  1569  1  0.87342900  0.72030000  0.08705000  1
  C  1571  1  0.87511200  0.69818200  0.08450400  1
  C  1577  1  0.89117400  0.66751400  0.06590100  1
  C  1579  1  0.87928200  0.75652400  0.07629200  1
  C  1581  1  0.38706500  0.23505200  0.43600900  1
  C  1582  1  0.39979900  0.22083400  0.44813500  1
  C  1583  1  0.39882700  0.19846300  0.44569200  1
  C  1584  1  0.38421800  0.18953800  0.43054400  1
  C  1585  1  0.37130900  0.20393300  0.41869700  1
  C  1587  1  0.37279100  0.22608100  0.42115200  1
  C  1593  1  0.38979200  0.25687600  0.43890200  1
  C  1595  1  0.38265200  0.16776800  0.42542300  1
  C  1597  1  0.15124700  0.15851700  0.99524600  1
  C  1598  1  0.14962400  0.15604800  0.01763000  1
  C  1603  1  0.63891300  0.78067300  0.52672100  1
  C  1604  1  0.65169100  0.76877800  0.51232800  1
  C  1605  1  0.65022300  0.77104500  0.48987400  1
  C  1606  1  0.63525100  0.78599100  0.48118600  1
  C  1607  1  0.62321900  0.79839600  0.49577000  1
  C  1609  1  0.62495200  0.79589700  0.51788800  1
  C  1615  1  0.64103500  0.77729700  0.54859500  1
  C  1617  1  0.62880800  0.78749300  0.45971700  1
  C  1619  1  0.48575700  0.68937500  0.43542800  1
  C  1620  1  0.47289800  0.70368400  0.44734100  1
  C  1621  1  0.47429000  0.72616500  0.44516700  1
  C  1622  1  0.48936400  0.73501400  0.43038800  1
  C  1623  1  0.50134400  0.72047500  0.41785600  1
  C  1625  1  0.49967500  0.69832800  0.42023800  1
  C  1631  1  0.48373100  0.66747900  0.43871500  1
  C  1633  1  0.49542500  0.75666800  0.42877300  1
  C  1635  1  0.98612200  0.23487800  0.06892400  1
  C  1636  1  0.97331300  0.22046300  0.05711500  1
  C  1637  1  0.97485800  0.19805600  0.05949800  1
  C  1638  1  0.98995600  0.18958300  0.07442500  1
  C  1639  1  0.00179500  0.20417600  0.08696700  1
  C  1641  1  0.99998700  0.22624900  0.08434500  1
  C  1645  1  0.98399500  0.25665800  0.06548300  1
  C  1647  1  0.99645700  0.16819700  0.07577800  1
  C  1648  1  0.23592500  0.14637800  0.52635300  1
  C  1649  1  0.22314300  0.15810700  0.51178500  1
  C  1650  1  0.22456300  0.15558100  0.48935500  1
  C  1651  1  0.23947500  0.14047900  0.48089700  1
  C  1652  1  0.25163300  0.12834600  0.49566600  1
  C  1654  1  0.24992600  0.13109700  0.51774500  1
  C  1660  1  0.23373100  0.14990100  0.54817900  1
  C  1662  1  0.24614900  0.13890800  0.45950600  1
  C  1664  1  0.73823200  0.77972300  0.98081500  1
  C  1665  1  0.72569900  0.76763100  0.99520800  1
  C  1666  1  0.72686500  0.77025700  0.01754600  1
  C  1667  1  0.74156000  0.78553800  0.02623100  1
  C  1668  1  0.75437800  0.79719400  0.01163600  1
  C  1670  1  0.75262900  0.79460500  0.98953500  1
  C  1676  1  0.73514200  0.77686000  0.95906000  1
  C  1678  1  0.74239900  0.79208100  0.04766400  1
  C  1680  1  0.98540700  0.23537700  0.93767100  1
  C  1681  1  0.97281300  0.22060900  0.94931000  1
  C  1682  1  0.97467500  0.19827900  0.94677400  1
  C  1683  1  0.98977700  0.19025600  0.93169600  1
  C  1684  1  0.00160900  0.20510300  0.91940100  1
  C  1686  1  0.99947600  0.22713300  0.92221600  1
  C  1690  1  0.98328100  0.25700800  0.94204700  1
  C  1692  1  0.99659800  0.16908900  0.93041800  1
  C  1693  1  0.48509300  0.68922100  0.56741500  1
  C  1694  1  0.47246900  0.70414000  0.55594800  1
  C  1695  1  0.47409200  0.72652600  0.55874100  1
  C  1696  1  0.48908000  0.73463000  0.57395900  1
  C  1697  1  0.50123900  0.71959200  0.58576400  1
  C  1699  1  0.49928800  0.69753300  0.58272500  1
  C  1705  1  0.48285300  0.66748700  0.56299600  1
  C  1707  1  0.49589000  0.75596400  0.57566400  1
  C  1709  1  0.38936200  0.23501100  0.56698200  1
  C  1710  1  0.40197700  0.22017800  0.55550500  1
  C  1711  1  0.40017100  0.19784700  0.55828500  1
  C  1712  1  0.38509900  0.18990600  0.57349400  1
  C  1713  1  0.37313900  0.20484200  0.58550800  1
  C  1715  1  0.37524500  0.22685600  0.58246600  1
  C  1721  1  0.39155900  0.25662600  0.56249900  1
  C  1723  1  0.37807200  0.16876900  0.57489800  1
  C  1725  1  0.88969100  0.68913600  0.93735600  1
  C  1726  1  0.90236400  0.70385800  0.94894000  1
  C  1727  1  0.90073200  0.72626000  0.94634700  1
  C  1728  1  0.88573900  0.73457500  0.93123700  1
  C  1729  1  0.87364600  0.71970100  0.91920200  1
  C  1731  1  0.87556600  0.69761100  0.92204700  1
  C  1737  1  0.89179100  0.66740200  0.94169300  1
  C  1739  1  0.87897800  0.75594600  0.92972400  1
  C  1741  1  0.64005200  0.64538000  0.47973700  1
  C  1742  1  0.65269500  0.65703800  0.49441400  1
  C  1743  1  0.65095100  0.65463700  0.51683000  1
  C  1744  1  0.63572600  0.63982100  0.52532500  1
  C  1745  1  0.62389700  0.62750300  0.51047200  1
  C  1747  1  0.62592800  0.63012900  0.48834300  1
  C  1753  1  0.64225100  0.64958500  0.45795500  1
  C  1755  1  0.62953500  0.63800200  0.54692700  1
  C  1757  1  0.15037700  0.26880200  0.98861600  1
  C  1762  1  0.73679400  0.64604000  0.02557100  1
  C  1763  1  0.72549000  0.65512000  0.98870600  1
  C  1764  1  0.74024600  0.63992400  0.98012600  1
  C  1765  1  0.75295700  0.62826200  0.99486000  1
  C  1767  1  0.75118600  0.63103000  0.01698500  1
  C  1773  1  0.73402100  0.64995100  0.04724200  1
  C  1775  1  0.74216000  0.63473000  0.95837400  1
  C  1777  1  0.23478400  0.27802600  0.48007000  1
  C  1778  1  0.22211300  0.26651100  0.49487600  1
  C  1779  1  0.22380400  0.26911700  0.51727000  1
  C  1780  1  0.23900200  0.28403500  0.52557500  1
  C  1781  1  0.25091700  0.29616200  0.51057900  1
  C  1783  1  0.24891700  0.29333900  0.48848500  1
  C  1789  1  0.23256000  0.27367600  0.45834800  1
  C  1791  1  0.24541100  0.28584400  0.54710700  1
  N  6  1  0.11575600  0.07736600  0.85004900  1
  N  8  1  0.00888900  0.36681800  0.13682300  1
  N  10  1  0.00894000  0.36569300  0.86784200  1
  N  16  1  0.13916100  0.13761300  0.06408300  1
  N  17  1  0.11600400  0.07921200  0.15772400  1
  N  24  1  0.12528500  0.35627600  0.15395100  1
  N  33  1  0.12589500  0.35443000  0.85065800  1
  N  45  1  0.03286000  0.09079400  0.88284400  1
  N  61  1  0.09111600  0.33347800  0.12464300  1
  N  77  1  0.09193900  0.33301100  0.88150500  1
  N  93  1  0.03366900  0.09110300  0.12383900  1
  N  124  1  0.14256600  0.13500900  0.94530200  1
  N  130  1  0.14331700  0.28756000  0.06212000  1
  N  133  1  0.14049800  0.28509800  0.94256800  1
  N  154  1  0.91234000  0.90861200  0.90582500  1
  N  155  1  0.87527200  0.86561300  0.85988600  1
  N  163  1  0.46380800  0.90804700  0.59440500  1
  N  164  1  0.49894400  0.86695100  0.64680600  1
  N  172  1  0.46333900  0.90915700  0.40692100  1
  N  173  1  0.49949200  0.86464700  0.36133200  1
  N  181  1  0.91009100  0.90851100  0.09306600  1
  N  182  1  0.87570600  0.86543800  0.14475800  1
  N  192  1  0.47335000  0.94993200  0.57140800  1
  N  206  1  0.97327400  0.97687500  0.93692800  1
  N  220  1  0.40170800  0.97666800  0.43880500  1
  N  234  1  0.90139400  0.95003400  0.06958000  1
  N  274  1  0.61573200  0.84977400  0.65830800  1
  N  313  1  0.94862300  0.61595900  0.05410100  1
  N  314  1  0.89271400  0.65349800  0.08093700  1
  N  315  1  0.91384300  0.51648300  0.10120000  1
  N  316  1  0.86577600  0.55746800  0.13850600  1
  N  337  1  0.44848000  0.30722600  0.45033600  1
  N  338  1  0.39203000  0.27036200  0.42351700  1
  N  339  1  0.41384000  0.40692700  0.40325700  1
  N  340  1  0.36577600  0.36589000  0.36595400  1
  N  353  1  0.19876500  0.16164300  0.90829700  1
  N  354  1  0.16381100  0.11462000  0.80887100  1
  N  375  1  0.69860700  0.76544100  0.59996000  1
  N  376  1  0.64266500  0.79237500  0.56248400  1
  N  377  1  0.66388200  0.81252600  0.69936200  1
  N  398  1  0.42596800  0.61626600  0.45049600  1
  N  399  1  0.48198200  0.65369200  0.42355800  1
  N  400  1  0.46259900  0.51694700  0.41164400  1
  N  401  1  0.50889300  0.55652500  0.36769900  1
  N  421  1  0.92579000  0.30718500  0.05411300  1
  N  422  1  0.98206500  0.27023000  0.08076600  1
  N  423  1  0.96264900  0.40649600  0.09289200  1
  N  444  1  0.17599900  0.16192200  0.59954400  1
  N  445  1  0.23201100  0.13487500  0.56216600  1
  N  446  1  0.21266200  0.12295400  0.69889000  1
  N  447  1  0.25893100  0.07905100  0.65940900  1
  N  468  1  0.67619000  0.76523900  0.90903100  1
  N  469  1  0.73274500  0.79228800  0.94567000  1
  N  470  1  0.71268300  0.80425000  0.80940300  1
  N  471  1  0.75891700  0.84817400  0.84893400  1
  N  491  1  0.91833100  0.30728600  0.94211900  1
  N  492  1  0.98175400  0.27178400  0.92783900  1
  N  493  1  0.96143000  0.40739900  0.90489900  1
  N  514  1  0.41856900  0.61629300  0.56231600  1
  N  515  1  0.48172600  0.65231900  0.57689300  1
  N  516  1  0.46134500  0.51613500  0.59956300  1
  N  517  1  0.50925400  0.55756200  0.63631600  1
  N  538  1  0.67503800  0.76202600  0.09891500  1
  N  539  1  0.73058100  0.78340600  0.06187900  1
  N  540  1  0.71098600  0.80875400  0.19762100  1
  N  541  1  0.75916000  0.84570500  0.15631200  1
  N  562  1  0.17670800  0.16152400  0.40806700  1
  N  563  1  0.23513000  0.13715800  0.44227600  1
  N  564  1  0.21058400  0.11472400  0.30730700  1
  N  565  1  0.25926000  0.07798000  0.34815700  1
  N  586  1  0.45672000  0.30681600  0.56223900  1
  N  587  1  0.39314500  0.27136700  0.57667600  1
  N  588  1  0.41167600  0.40690300  0.59121700  1
  N  589  1  0.36602000  0.36662800  0.63499900  1
  N  610  1  0.95651900  0.61666200  0.94229600  1
  N  611  1  0.89319000  0.65249800  0.92762100  1
  N  612  1  0.91172200  0.51654400  0.91330300  1
  N  613  1  0.86572100  0.55667700  0.86980500  1
  N  634  1  0.69803800  0.76149500  0.40839000  1
  N  635  1  0.64044300  0.78799900  0.44281200  1
  N  636  1  0.66239900  0.80025000  0.30746600  1
  N  637  1  0.61570800  0.84377900  0.34685000  1
  N  650  1  0.19860200  0.16138800  0.09659700  1
  N  651  1  0.16225400  0.12291400  0.19751200  1
  N  672  1  0.44864700  0.11877000  0.55678300  1
  N  673  1  0.38918300  0.15185000  0.57802300  1
  N  674  1  0.41238400  0.01801800  0.60279200  1
  N  675  1  0.37528500  0.06134100  0.64854400  1
  N  688  1  0.94823100  0.80798000  0.95189600  1
  N  689  1  0.88996600  0.77321500  0.92801400  1
  N  710  1  0.70644200  0.64926400  0.40638700  1
  N  711  1  0.64336800  0.63549800  0.44304400  1
  N  712  1  0.66149200  0.61299300  0.30663400  1
  N  713  1  0.62528700  0.56702700  0.35062600  1
  N  726  1  0.20663100  0.27401300  0.09835100  1
  N  727  1  0.16146000  0.31035100  0.19805200  1
  N  747  1  0.92610100  0.11891300  0.95171700  1
  N  748  1  0.98523900  0.15218400  0.92843900  1
  N  749  1  0.96407700  0.01826100  0.91381400  1
  N  750  1  0.99897400  0.05968700  0.86140100  1
  N  764  1  0.42622100  0.80776900  0.55636400  1
  N  765  1  0.48485000  0.77306100  0.57837000  1
  N  786  1  0.66827100  0.64967100  0.09753900  1
  N  787  1  0.73199000  0.63551300  0.06170100  1
  N  788  1  0.71480600  0.62093800  0.19760600  1
  N  789  1  0.74897400  0.56854400  0.15570800  1
  N  810  1  0.16816200  0.27376300  0.40681000  1
  N  811  1  0.23132300  0.28772700  0.44337200  1
  N  812  1  0.21479800  0.30230900  0.30702400  1
  N  813  1  0.24896700  0.35469900  0.34888600  1
  N  826  1  0.41896400  0.80783100  0.44382700  1
  N  827  1  0.48336700  0.77324300  0.43041900  1
  N  847  1  0.91814600  0.11883200  0.06473600  1
  N  848  1  0.98435000  0.15164600  0.07565500  1
  N  849  1  0.96311500  0.01734100  0.10111600  1
  N  850  1  0.99951600  0.06163700  0.14658000  1
  N  871  1  0.16836300  0.27399700  0.59828300  1
  N  872  1  0.23362600  0.28530200  0.56396000  1
  N  873  1  0.21311700  0.31053900  0.69939800  1
  N  874  1  0.24963700  0.35562500  0.65447100  1
  N  895  1  0.66790500  0.65305500  0.90733600  1
  N  896  1  0.72991700  0.64247700  0.94384900  1
  N  897  1  0.71351000  0.61656200  0.80819800  1
  N  898  1  0.74930700  0.57035500  0.85213200  1
  N  911  1  0.95671000  0.80739400  0.06446100  1
  N  912  1  0.89135400  0.77315500  0.07574500  1
  N  933  1  0.45717300  0.11704300  0.44386700  1
  N  934  1  0.39500400  0.15349900  0.43342700  1
  N  935  1  0.40978500  0.01802800  0.41517200  1
  N  936  1  0.37593000  0.05990000  0.36254500  1
  N  949  1  0.20687200  0.27395600  0.90988500  1
  N  950  1  0.16013900  0.30234900  0.80839100  1
  N  971  1  0.70603000  0.65342400  0.59801800  1
  N  972  1  0.64149000  0.63974900  0.56356700  1
  N  973  1  0.65979300  0.62436600  0.69938600  1
  N  974  1  0.62584400  0.57217900  0.65675000  1
  N  983  1  0.94174800  0.58148600  0.97426000  1
  N  999  1  0.44178900  0.34182000  0.53021200  1
  N  1015  1  0.19189700  0.24200900  0.87433300  1
  N  1031  1  0.69170300  0.68524200  0.63407400  1
  N  1047  1  0.43324400  0.58139100  0.53033200  1
  N  1062  1  0.93321400  0.34193300  0.97417200  1
  N  1076  1  0.18310600  0.24195000  0.63403700  1
  N  1091  1  0.68327300  0.68553200  0.87378300  1
  N  1107  1  0.68314600  0.68156800  0.13240900  1
  N  1121  1  0.18297200  0.24153500  0.37213700  1
  N  1136  1  0.69166700  0.68177500  0.37205900  1
  N  1152  1  0.19165900  0.24149200  0.13247000  1
  N  1168  1  0.44173300  0.08332300  0.47632800  1
  N  1184  1  0.94195700  0.84330700  0.03233700  1
  N  1198  1  0.93303900  0.08371300  0.03247500  1
  N  1214  1  0.43321000  0.84346800  0.47600600  1
  N  1228  1  0.97318700  0.44795000  0.06954200  1
  N  1244  1  0.47320300  0.47538600  0.43497600  1
  N  1260  1  0.22325500  0.14632700  0.74035800  1
  N  1276  1  0.72323400  0.78088900  0.76799400  1
  N  1292  1  0.90160700  0.47525100  0.93685400  1
  N  1308  1  0.40164400  0.44812200  0.56766300  1
  N  1324  1  0.65159300  0.77698700  0.26604100  1
  N  1340  1  0.15158800  0.14624800  0.23861400  1
  N  1358  1  0.72332300  0.64434900  0.23891500  1
  N  1374  1  0.22334500  0.27891600  0.26564300  1
  N  1394  1  0.15164700  0.27901900  0.76724400  1
  N  1408  1  0.65150000  0.64818600  0.74078800  1
  N  1424  1  0.78294500  0.59005700  0.12485500  1
  N  1440  1  0.28294800  0.33321000  0.37967100  1
  N  1449  1  0.53292400  0.83621100  0.62552400  1
  N  1461  1  0.59110200  0.58979100  0.37988300  1
  N  1477  1  0.34118200  0.09107000  0.62579500  1
  N  1486  1  0.84111100  0.83602500  0.88259300  1
  N  1498  1  0.59243300  0.59110900  0.62334800  1
  N  1508  1  0.84233900  0.83293000  0.12405700  1
  N  1520  1  0.34192400  0.09135900  0.38192600  1
  N  1536  1  0.28324000  0.33369700  0.62330600  1
  N  1552  1  0.78364500  0.59101200  0.88219300  1
  N  1562  1  0.53318000  0.83250500  0.38148800  1
  N  1574  1  0.91408800  0.74007900  0.04771700  1
  N  1590  1  0.41269000  0.18516500  0.45787500  1
  N  1600  1  0.16276400  0.16824100  0.03156800  1
  N  1612  1  0.66345100  0.75866100  0.47619300  1
  N  1628  1  0.46087700  0.73975600  0.45748600  1
  N  1642  1  0.96158700  0.18420300  0.04732400  1
  N  1657  1  0.21115700  0.16767500  0.47549400  1
  N  1673  1  0.71280800  0.75831900  0.03089400  1
  N  1687  1  0.96174100  0.18412400  0.95899800  1
  N  1702  1  0.46072500  0.74066400  0.54686900  1
  N  1718  1  0.41332300  0.18362900  0.54636700  1
  N  1734  1  0.91390800  0.74024700  0.95847800  1
  N  1750  1  0.66407000  0.66693900  0.53068400  1
  N  1759  1  0.16333800  0.25663100  0.97450300  1
  N  1770  1  0.71190100  0.66727700  0.97515000  1
  N  1786  1  0.21051300  0.25707000  0.53127300  1
  O  4  1  0.12308600  0.12154000  0.90400300  1
  O  14  1  0.12289100  0.12466600  0.10539900  1
  O  22  1  0.12259400  0.30126000  0.10216600  1
  O  31  1  0.12210900  0.29786400  0.90189700  1
  O  34  1  0.13585600  0.13635200  0.23097100  1
  O  35  1  0.13554900  0.28866400  0.77446900  1
  O  46  1  0.04161300  0.10079300  0.89780000  1
  O  47  1  0.02524200  0.10463900  0.87067200  1
  O  62  1  0.08262600  0.31804700  0.11517200  1
  O  63  1  0.09830800  0.34548000  0.11044200  1
  O  78  1  0.08321300  0.31806600  0.89159000  1
  O  79  1  0.09959900  0.34518200  0.89528000  1
  O  94  1  0.04231900  0.10082900  0.10862000  1
  O  95  1  0.02612900  0.10512800  0.13579300  1
  O  140  1  0.14277800  0.15765700  0.25251400  1
  O  141  1  0.14337000  0.26735000  0.75325800  1
  O  152  1  0.91779100  0.87130700  0.93576100  1
  O  161  1  0.45744200  0.87005100  0.57009900  1
  O  170  1  0.45867300  0.87351700  0.43781600  1
  O  179  1  0.91614800  0.87196300  0.06769100  1
  O  193  1  0.48185200  0.96400500  0.55993700  1
  O  194  1  0.48925700  0.94249400  0.58122400  1
  O  207  1  0.98164200  0.96291900  0.94862600  1
  O  208  1  0.98927600  0.98411900  0.92710900  1
  O  221  1  0.39339400  0.96255400  0.45035100  1
  O  222  1  0.38561100  0.98403600  0.42924700  1
  O  235  1  0.89298300  0.96415500  0.05810100  1
  O  236  1  0.88538300  0.94261300  0.07922900  1
  O  278  1  0.92971400  0.85690700  0.02396800  1
  O  279  1  0.95616300  0.85354500  0.04210100  1
  O  280  1  0.44530100  0.85712900  0.48442100  1
  O  281  1  0.41909300  0.85365700  0.46602700  1
  O  309  1  0.91725900  0.55304600  0.07091100  1
  O  310  1  0.87307500  0.61197000  0.09455600  1
  O  333  1  0.41728600  0.37035700  0.43353300  1
  O  334  1  0.37292600  0.31182200  0.40997700  1
  O  351  1  0.16724500  0.14491300  0.84525800  1
  O  371  1  0.66730100  0.78226000  0.66288300  1
  O  372  1  0.62307800  0.80595100  0.60393000  1
  O  394  1  0.45792200  0.55451500  0.43625700  1
  O  395  1  0.50143000  0.61214100  0.40982000  1
  O  418  1  0.95789900  0.36899200  0.06826700  1
  O  419  1  0.00140900  0.31162800  0.09437800  1
  O  440  1  0.20796700  0.14758600  0.66126200  1
  O  441  1  0.25144500  0.12120900  0.60373500  1
  O  464  1  0.70792000  0.77965000  0.84704300  1
  O  465  1  0.75156000  0.80596500  0.90417700  1
  O  488  1  0.95828300  0.37190900  0.93572800  1
  O  489  1  0.00162500  0.31194800  0.91286900  1
  O  510  1  0.45822100  0.55173800  0.56875600  1
  O  511  1  0.50166500  0.61196400  0.59187900  1
  O  534  1  0.70722000  0.77828500  0.16142000  1
  O  535  1  0.75201500  0.79828500  0.10329900  1
  O  558  1  0.20619800  0.14466700  0.34429500  1
  O  559  1  0.25231300  0.12379500  0.40062300  1
  O  582  1  0.41607500  0.37026300  0.56600600  1
  O  583  1  0.37352500  0.31158100  0.59177400  1
  O  606  1  0.91606000  0.55324700  0.93847400  1
  O  607  1  0.87348500  0.61214600  0.91248400  1
  O  630  1  0.66804700  0.77603800  0.34549800  1
  O  631  1  0.62289700  0.80068700  0.40053100  1
  O  648  1  0.16834000  0.14714600  0.15964300  1
  O  668  1  0.41803700  0.05522500  0.57279500  1
  O  669  1  0.37232300  0.11159400  0.59127100  1
  O  686  1  0.87219400  0.81438800  0.91608300  1
  O  706  1  0.66564900  0.64373100  0.34230100  1
  O  707  1  0.62256500  0.62173700  0.40279400  1
  O  724  1  0.16565500  0.27958100  0.16247200  1
  O  744  1  0.95737300  0.05600900  0.93811400  1
  O  745  1  0.00226100  0.11144700  0.91690500  1
  O  762  1  0.50251700  0.81392700  0.59158200  1
  O  782  1  0.70965500  0.64617500  0.16087100  1
  O  783  1  0.75215400  0.62200000  0.10204200  1
  O  806  1  0.20971100  0.27704900  0.34377000  1
  O  807  1  0.25204100  0.30132600  0.40297300  1
  O  824  1  0.50333500  0.81486200  0.41846300  1
  O  844  1  0.95816000  0.05299100  0.07033800  1
  O  845  1  0.00291900  0.11105200  0.08863500  1
  O  867  1  0.20818100  0.27952900  0.66386300  1
  O  868  1  0.25310100  0.29781100  0.60494700  1
  O  891  1  0.70933600  0.64729200  0.84369800  1
  O  892  1  0.75242800  0.62716700  0.90367500  1
  O  909  1  0.87192200  0.81417900  0.08821300  1
  O  929  1  0.41499600  0.05459200  0.44037600  1
  O  930  1  0.37257300  0.11323600  0.41807100  1
  O  947  1  0.16627900  0.27722200  0.84512900  1
  O  967  1  0.66566500  0.64963300  0.66273800  1
  O  968  1  0.62171800  0.62786900  0.60526500  1
  O  984  1  0.92946000  0.56793700  0.98264600  1
  O  985  1  0.95590400  0.57121300  0.96446700  1
  O  1000  1  0.42946100  0.35533700  0.52183400  1
  O  1001  1  0.45594900  0.35212300  0.53996700  1
  O  1016  1  0.17947400  0.23374100  0.86085600  1
  O  1017  1  0.20616800  0.25159100  0.86397500  1
  O  1032  1  0.67947100  0.69355100  0.64769100  1
  O  1033  1  0.70593000  0.67545400  0.64429600  1
  O  1048  1  0.44547100  0.56782900  0.52194200  1
  O  1049  1  0.41917600  0.57111800  0.54028400  1
  O  1063  1  0.94550400  0.35544500  0.98255200  1
  O  1064  1  0.91913100  0.35225200  0.96428900  1
  O  1077  1  0.19534200  0.23358600  0.64764900  1
  O  1078  1  0.16896200  0.25179200  0.64427400  1
  O  1092  1  0.69558500  0.69401500  0.86033000  1
  O  1093  1  0.66927800  0.67562700  0.86340800  1
  O  1108  1  0.69545000  0.68987000  0.14595800  1
  O  1109  1  0.66893800  0.67180100  0.14267900  1
  O  1122  1  0.19519900  0.23311100  0.35859900  1
  O  1123  1  0.16884200  0.25139400  0.36184900  1
  O  1137  1  0.67950000  0.69029800  0.35850500  1
  O  1138  1  0.70571300  0.67183400  0.36177800  1
  O  1153  1  0.17943500  0.23300100  0.14599400  1
  O  1154  1  0.20572900  0.25137500  0.14277800  1
  O  1169  1  0.42941100  0.06985800  0.48477400  1
  O  1170  1  0.45580300  0.07296800  0.46649200  1
  O  1199  1  0.94534200  0.07018600  0.02413500  1
  O  1200  1  0.91885400  0.07339400  0.04222500  1
  O  1229  1  0.98200000  0.46192900  0.05818000  1
  O  1230  1  0.98890900  0.44025400  0.07944400  1
  O  1245  1  0.48203100  0.46138800  0.44630600  1
  O  1246  1  0.48891000  0.48309900  0.42506500  1
  O  1261  1  0.23214100  0.15757800  0.75434200  1
  O  1262  1  0.23893600  0.13644900  0.73259400  1
  O  1277  1  0.73208300  0.76958400  0.75403400  1
  O  1278  1  0.73893600  0.79077500  0.77570700  1
  O  1293  1  0.89285800  0.46122300  0.94820900  1
  O  1294  1  0.88582500  0.48291400  0.92702600  1
  O  1309  1  0.39292600  0.46213000  0.55626500  1
  O  1310  1  0.38583800  0.44048800  0.57748000  1
  O  1325  1  0.64272400  0.76571200  0.25206500  1
  O  1326  1  0.63590700  0.78687000  0.27379000  1
  O  1359  1  0.73168700  0.65592000  0.25293400  1
  O  1360  1  0.73935900  0.63465000  0.23163600  1
  O  1375  1  0.23171600  0.26736900  0.25160700  1
  O  1376  1  0.23937200  0.28862000  0.27293200  1
  O  1409  1  0.64302300  0.65956000  0.75491100  1
  O  1410  1  0.63548600  0.63868000  0.73322900  1
  O  1425  1  0.79153500  0.60521800  0.11497300  1
  O  1426  1  0.77560100  0.57786100  0.11094100  1
  O  1441  1  0.29150500  0.31802000  0.38952800  1
  O  1442  1  0.27563500  0.34540800  0.39360000  1
  O  1450  1  0.54158200  0.82638800  0.61040500  1
  O  1451  1  0.52553300  0.82224700  0.63769000  1
  O  1462  1  0.58262000  0.60524200  0.38932800  1
  O  1463  1  0.59825500  0.57778500  0.39409800  1
  O  1478  1  0.33253300  0.10070200  0.61051000  1
  O  1479  1  0.34861700  0.10516500  0.63772700  1
  O  1487  1  0.83249400  0.82648500  0.89795100  1
  O  1488  1  0.84841000  0.82187000  0.87065400  1
  O  1499  1  0.58346300  0.60535100  0.61248700  1
  O  1500  1  0.60100500  0.57885700  0.61016600  1
  O  1509  1  0.83364400  0.82250100  0.10937300  1
  O  1510  1  0.85023400  0.81941600  0.13643200  1
  O  1521  1  0.33316100  0.10147200  0.39678500  1
  O  1522  1  0.34979600  0.10509000  0.36978000  1
  O  1537  1  0.29185500  0.31873700  0.61321700  1
  O  1538  1  0.27546100  0.34587500  0.60955100  1
  O  1553  1  0.79237700  0.60611300  0.89196200  1
  O  1554  1  0.77591700  0.57906000  0.89616800  1
  O  1563  1  0.54208800  0.82198000  0.39601200  1
  O  1564  1  0.52469900  0.81908000  0.36944000  1
  O  1575  1  0.92886900  0.73158200  0.03691300  1
  O  1576  1  0.90310300  0.75062700  0.03475700  1
  O  1591  1  0.42931900  0.19345900  0.46586800  1
  O  1592  1  0.40229100  0.17689200  0.47281400  1
  O  1601  1  0.17808900  0.17861400  0.02342700  1
  O  1602  1  0.15159000  0.18137700  0.04164000  1
  O  1613  1  0.67878800  0.74849300  0.48458200  1
  O  1614  1  0.65225700  0.74521800  0.46655000  1
  O  1629  1  0.44564000  0.73121500  0.46767000  1
  O  1630  1  0.47197400  0.74941600  0.47099200  1
  O  1643  1  0.94627900  0.19247400  0.03703200  1
  O  1644  1  0.97272000  0.17430500  0.03402000  1
  O  1658  1  0.19633900  0.17853000  0.48387800  1
  O  1659  1  0.22224400  0.18053400  0.46493400  1
  O  1674  1  0.69600700  0.75051500  0.02270200  1
  O  1675  1  0.72295800  0.74328100  0.03926900  1
  O  1688  1  0.94641900  0.19207500  0.96948800  1
  O  1689  1  0.97309100  0.17412600  0.97209000  1
  O  1703  1  0.44647400  0.73245300  0.53519200  1
  O  1704  1  0.47183000  0.75203200  0.53472800  1
  O  1719  1  0.42809400  0.19167000  0.53517800  1
  O  1720  1  0.40210400  0.17280800  0.53387700  1
  O  1735  1  0.92873700  0.73198000  0.96943000  1
  O  1736  1  0.90263700  0.75063500  0.97128700  1
  O  1751  1  0.67949700  0.67711400  0.52246800  1
  O  1752  1  0.65275600  0.68043400  0.54011900  1
  O  1760  1  0.17883300  0.24634600  0.98243800  1
  O  1761  1  0.15198100  0.24334800  0.96482100  1
  O  1771  1  0.69513300  0.67528900  0.98316700  1
  O  1772  1  0.72250500  0.68220600  0.96712500  1
  O  1787  1  0.19558400  0.24624900  0.52303800  1
  O  1788  1  0.22173400  0.24411300  0.54157500  1
