# generated using pymatgen
data_H13C16(NO2)2
_symmetry_space_group_name_H-M   'P 1'
_cell_length_a   24.34260000
_cell_length_b   38.84790000
_cell_length_c   38.84790000
_cell_angle_alpha   90.00000000
_cell_angle_beta   90.00000000
_cell_angle_gamma   90.00000000
_symmetry_Int_Tables_number   1
_chemical_formula_structural   H13C16(NO2)2
_chemical_formula_sum   'H416 C512 N64 O128'
_cell_volume   36736.86201381
_cell_formula_units_Z   32
loop_
 _symmetry_equiv_pos_site_id
 _symmetry_equiv_pos_as_xyz
  1  'x, y, z'
loop_
 _atom_site_type_symbol
 _atom_site_label
 _atom_site_symmetry_multiplicity
 _atom_site_fract_x
 _atom_site_fract_y
 _atom_site_fract_z
 _atom_site_occupancy
  C  1  1  0.09782600  0.15779700  0.11948000  1
  C  2  1  0.07669700  0.17875100  0.14598300  1
  C  3  1  0.09237800  0.21348800  0.14913300  1
  C  4  1  0.12618900  0.22837100  0.12360500  1
  C  5  1  0.14808500  0.20804800  0.09664400  1
  C  6  1  0.13412800  0.17261700  0.09495500  1
  C  9  1  0.08733400  0.12170400  0.11968900  1
  C  10  1  0.10361100  0.10119700  0.14810500  1
  C  11  1  0.10541700  0.06485100  0.14519600  1
  C  12  1  0.08568200  0.04918200  0.11463100  1
  C  13  1  0.06749600  0.06907200  0.08609200  1
  C  14  1  0.06935300  0.10526100  0.08932300  1
  C  31  1  0.59752400  0.60554900  0.10682900  1
  C  32  1  0.57539600  0.58498600  0.08033600  1
  C  33  1  0.58943900  0.54997000  0.07717000  1
  C  34  1  0.62258000  0.53449500  0.10272100  1
  C  35  1  0.64552200  0.55443100  0.12962800  1
  C  36  1  0.63319600  0.59009600  0.13132000  1
  C  39  1  0.58835600  0.64178700  0.10678200  1
  C  40  1  0.60496700  0.66221100  0.07838100  1
  C  41  1  0.60741400  0.69854200  0.08135100  1
  C  42  1  0.58797600  0.71428800  0.11196000  1
  C  43  1  0.56947800  0.69448800  0.14048800  1
  C  44  1  0.57082600  0.65829800  0.13721100  1
  C  61  1  0.66002500  0.10448600  0.61599200  1
  C  62  1  0.67647800  0.08435800  0.64435900  1
  C  63  1  0.66186800  0.04936400  0.64670400  1
  C  64  1  0.63302100  0.03371400  0.61928900  1
  C  65  1  0.61529300  0.05344100  0.59075800  1
  C  66  1  0.62915300  0.08884400  0.58918500  1
  C  69  1  0.66734200  0.14078100  0.61656600  1
  C  70  1  0.64072000  0.16105800  0.64199100  1
  C  71  1  0.63514500  0.19719400  0.63763300  1
  C  72  1  0.65913200  0.21293500  0.60832900  1
  C  73  1  0.68605400  0.19291900  0.58305600  1
  C  74  1  0.69104900  0.15718300  0.58782800  1
  C  91  1  0.13884000  0.65251700  0.60689800  1
  C  92  1  0.16105300  0.67336200  0.58065900  1
  C  93  1  0.14736000  0.70846800  0.57806200  1
  C  94  1  0.11414200  0.72364000  0.60373900  1
  C  95  1  0.09106400  0.70341000  0.63039700  1
  C  96  1  0.10323200  0.66770400  0.63160400  1
  C  99  1  0.14877800  0.61636800  0.60674600  1
  C  100  1  0.13287100  0.59584200  0.57825000  1
  C  101  1  0.13154900  0.55946900  0.58109200  1
  C  102  1  0.15130400  0.54386700  0.61169800  1
  C  103  1  0.16922800  0.56381400  0.64024600  1
  C  104  1  0.16685400  0.59997800  0.63710800  1
  C  121  1  0.37401700  0.88495400  0.37819500  1
  C  122  1  0.39767200  0.91110200  0.39834100  1
  C  123  1  0.39801300  0.90970200  0.43472900  1
  C  124  1  0.36875100  0.88225900  0.45065000  1
  C  125  1  0.34152600  0.85685700  0.43076200  1
  C  126  1  0.34557600  0.85777300  0.39448500  1
  C  129  1  0.37832600  0.88618200  0.34188500  1
  C  130  1  0.35344400  0.91266700  0.32240900  1
  C  131  1  0.35174600  0.91038400  0.28595400  1
  C  132  1  0.37973100  0.88284300  0.26941700  1
  C  133  1  0.40794400  0.85728400  0.28863800  1
  C  134  1  0.40453700  0.85881800  0.32483300  1
  C  151  1  0.87682200  0.87715700  0.84840600  1
  C  152  1  0.89818000  0.85022900  0.82823800  1
  C  153  1  0.89522200  0.85038300  0.79185700  1
  C  154  1  0.86588000  0.87796800  0.77616800  1
  C  155  1  0.84126900  0.90430600  0.79616100  1
  C  156  1  0.84800600  0.90427500  0.83226900  1
  C  159  1  0.88193300  0.87616000  0.88471400  1
  C  160  1  0.85660500  0.85005100  0.90449400  1
  C  161  1  0.85490600  0.85272000  0.94091300  1
  C  162  1  0.88301900  0.88036400  0.95716100  1
  C  163  1  0.91137100  0.90568100  0.93768500  1
  C  164  1  0.90832900  0.90363400  0.90149000  1
  C  181  1  0.85730100  0.38266200  0.34990300  1
  C  182  1  0.83671800  0.41007900  0.33009000  1
  C  183  1  0.84170900  0.41104100  0.29378400  1
  C  184  1  0.87126400  0.38353400  0.27798400  1
  C  185  1  0.89437800  0.35647500  0.29769700  1
  C  186  1  0.88642700  0.35578000  0.33367000  1
  C  189  1  0.85197300  0.38304800  0.38615000  1
  C  190  1  0.88042100  0.40739900  0.40650600  1
  C  191  1  0.88280200  0.40341900  0.44282400  1
  C  192  1  0.85266900  0.37620600  0.45838200  1
  C  193  1  0.82103500  0.35306900  0.43828600  1
  C  194  1  0.82313900  0.35615000  0.40217900  1
  C  211  1  0.37006900  0.37335300  0.87471600  1
  C  212  1  0.34855400  0.34723900  0.89585500  1
  C  213  1  0.35066700  0.34903300  0.93220200  1
  C  214  1  0.37932800  0.37735900  0.94697500  1
  C  215  1  0.40414900  0.40292800  0.92610100  1
  C  216  1  0.39849200  0.40118800  0.88995000  1
  C  219  1  0.36295000  0.37162900  0.83853700  1
  C  220  1  0.38499700  0.34445900  0.81861300  1
  C  221  1  0.38365400  0.34618900  0.78210900  1
  C  222  1  0.35531700  0.37392200  0.76612900  1
  C  223  1  0.32951400  0.40005500  0.78588300  1
  C  224  1  0.33587500  0.39894800  0.82192800  1
  C  241  1  0.98757300  0.98683100  0.95593800  1
  C  242  1  0.94640200  0.01055700  0.96662400  1
  C  243  1  0.96148900  0.03762000  0.98892600  1
  C  244  1  0.01659300  0.04305600  0.99901000  1
  C  245  1  0.05861100  0.02271800  0.98364100  1
  C  247  1  0.04322700  0.99437300  0.96305300  1
  C  249  1  0.11851500  0.02908900  0.98828800  1
  C  253  1  0.88765900  0.00885800  0.95591500  1
  C  257  1  0.97455400  0.95484700  0.94015600  1
  C  258  1  0.02686400  0.06532100  0.02744000  1
  C  261  1  0.48625100  0.77706600  0.26989100  1
  C  262  1  0.44579100  0.75290300  0.25912600  1
  C  263  1  0.46180000  0.72590300  0.23700300  1
  C  264  1  0.51715600  0.72090900  0.22721900  1
  C  265  1  0.55848500  0.74174700  0.24265000  1
  C  267  1  0.54216000  0.77004700  0.26301000  1
  C  269  1  0.61859400  0.73588500  0.23838900  1
  C  273  1  0.38692100  0.75399700  0.26964100  1
  C  277  1  0.47232900  0.80885200  0.28577100  1
  C  278  1  0.52825400  0.69852200  0.19900600  1
  C  281  1  0.72813000  0.27939700  0.45472500  1
  C  282  1  0.76207300  0.24965900  0.45687400  1
  C  283  1  0.74439800  0.22192500  0.47751600  1
  C  284  1  0.69346600  0.22272300  0.49476000  1
  C  285  1  0.65760100  0.25126300  0.49052600  1
  C  287  1  0.67559200  0.27917100  0.47018200  1
  C  289  1  0.60345800  0.25480000  0.50805300  1
  C  293  1  0.81600300  0.24587000  0.43912300  1
  C  297  1  0.74743200  0.31078900  0.44081100  1
  C  298  1  0.68621000  0.19883800  0.52158800  1
  C  301  1  0.25345400  0.48138800  0.76891100  1
  C  302  1  0.29437900  0.50488400  0.75739200  1
  C  303  1  0.27847600  0.53209300  0.73549900  1
  C  304  1  0.22292900  0.53785100  0.72661300  1
  C  305  1  0.18147300  0.51768600  0.74277600  1
  C  307  1  0.19755400  0.48923100  0.76299100  1
  C  309  1  0.12144800  0.52435300  0.73931700  1
  C  313  1  0.35365800  0.50279700  0.76679600  1
  C  317  1  0.26686800  0.44937300  0.78445900  1
  C  318  1  0.21154400  0.56004600  0.69831800  1
  C  321  1  0.53631000  0.23162400  0.70337400  1
  C  322  1  0.56782200  0.25213500  0.72647900  1
  C  323  1  0.54059000  0.27733000  0.74633100  1
  C  324  1  0.48255600  0.28000500  0.74795300  1
  C  325  1  0.45128800  0.25445100  0.73033500  1
  C  327  1  0.47838500  0.23254800  0.70676700  1
  C  329  1  0.39189800  0.24725700  0.73646200  1
  C  333  1  0.62779600  0.24776900  0.73313100  1
  C  337  1  0.56011200  0.20976000  0.67770400  1
  C  338  1  0.45909700  0.30717500  0.76820600  1
  C  341  1  0.17700800  0.74478900  0.49302800  1
  C  342  1  0.15375300  0.77827100  0.49130100  1
  C  343  1  0.18114900  0.80352900  0.47169300  1
  C  344  1  0.23049900  0.79625100  0.45396800  1
  C  345  1  0.25127300  0.76199700  0.45363600  1
  C  347  1  0.22430900  0.73682000  0.47366300  1
  C  349  1  0.29987900  0.75049300  0.43337000  1
  C  353  1  0.10245600  0.78868300  0.50944300  1
  C  357  1  0.16020300  0.72068500  0.51796100  1
  C  358  1  0.25853200  0.82417100  0.43857200  1
  C  361  1  0.73795900  0.53325900  0.20264700  1
  C  362  1  0.70152200  0.52316300  0.22949000  1
  C  363  1  0.72154700  0.50135000  0.25564000  1
  C  364  1  0.77739600  0.49154300  0.25754500  1
  C  365  1  0.81517300  0.50576500  0.23346000  1
  C  367  1  0.79445600  0.52547700  0.20580500  1
  C  369  1  0.87596600  0.50185700  0.23570200  1
  C  373  1  0.64321300  0.53456200  0.23259100  1
  C  377  1  0.71915000  0.54957900  0.17208800  1
  C  378  1  0.79267700  0.46671200  0.28277700  1
  C  381  1  0.47861500  0.98563400  0.46742500  1
  C  382  1  0.44273900  0.00444800  0.48949600  1
  C  383  1  0.46587100  0.02559000  0.51528100  1
  C  384  1  0.52312100  0.03109100  0.51781700  1
  C  385  1  0.55797600  0.01702800  0.49200100  1
  C  387  1  0.53542200  0.99339200  0.46837300  1
  C  389  1  0.61708800  0.02605800  0.48743700  1
  C  393  1  0.38165000  0.00437900  0.48682700  1
  C  397  1  0.46035000  0.95911200  0.44466000  1
  C  398  1  0.54398800  0.04910700  0.54686900  1
  C  401  1  0.96414900  0.77062100  0.75738700  1
  C  402  1  0.92529700  0.75438800  0.73524700  1
  C  403  1  0.94481400  0.73326000  0.70828800  1
  C  404  1  0.00118100  0.72546800  0.70447800  1
  C  405  1  0.03862900  0.73686100  0.73020400  1
  C  407  1  0.01983400  0.76038100  0.75518900  1
  C  409  1  0.09689200  0.72531600  0.73311800  1
  C  413  1  0.86453700  0.75741500  0.73888200  1
  C  417  1  0.95005000  0.79734300  0.78105100  1
  C  418  1  0.01906300  0.70824200  0.67418300  1
  C  421  1  0.27818000  0.27173700  0.96901500  1
  C  422  1  0.31635200  0.25518900  0.99138700  1
  C  423  1  0.29595300  0.23496500  0.01877800  1
  C  424  1  0.23926100  0.22830500  0.02279900  1
  C  425  1  0.20223600  0.23992900  0.99694400  1
  C  427  1  0.22202800  0.26263400  0.97152200  1
  C  429  1  0.14345800  0.22938600  0.99426000  1
  C  433  1  0.37721000  0.25689200  0.98755100  1
  C  437  1  0.29338500  0.29760900  0.94468900  1
  C  438  1  0.22073100  0.21179200  0.05330900  1
  C  441  1  0.06323700  0.24765600  0.23521100  1
  C  442  1  0.08528000  0.28136700  0.23822700  1
  C  443  1  0.05670000  0.30558400  0.25848000  1
  C  444  1  0.00722900  0.29706400  0.27549200  1
  C  445  1  0.98744700  0.26260900  0.27440300  1
  C  447  1  0.01577600  0.23844700  0.25388300  1
  C  449  1  0.93845300  0.24992800  0.29356800  1
  C  453  1  0.13650300  0.29305100  0.22080000  1
  C  457  1  0.08114200  0.22459700  0.20960500  1
  C  458  1  0.97780200  0.32408200  0.29139300  1
  C  461  1  0.70039100  0.73576200  0.01367800  1
  C  462  1  0.66872800  0.75766000  0.99193800  1
  C  463  1  0.69584500  0.78394700  0.97341200  1
  C  464  1  0.75385300  0.78660400  0.97178500  1
  C  465  1  0.78525400  0.76007400  0.98771900  1
  C  467  1  0.75831600  0.73689400  0.01004100  1
  C  469  1  0.84465200  0.75329900  0.98107700  1
  C  473  1  0.60872600  0.75368000  0.98525500  1
  C  477  1  0.67733000  0.71259200  0.03855300  1
  C  478  1  0.77759900  0.81462600  0.95301900  1
  C  481  1  0.51267600  0.46540200  0.94874900  1
  C  482  1  0.49077400  0.49936300  0.94939700  1
  C  483  1  0.51610000  0.52408700  0.97078300  1
  C  484  1  0.56277200  0.51593500  0.99068400  1
  C  485  1  0.58719800  0.48283900  0.98803800  1
  C  487  1  0.56149800  0.45803500  0.96699400  1
  C  489  1  0.63804700  0.47235000  0.00662500  1
  C  493  1  0.44241100  0.51088000  0.92891200  1
  C  497  1  0.48547100  0.43763700  0.93251400  1
  C  498  1  0.57803900  0.53943200  0.01657300  1
  C  501  1  0.72940400  0.96427600  0.77372000  1
  C  502  1  0.74777500  0.99899100  0.77540300  1
  C  503  1  0.72040100  0.02390500  0.75525300  1
  C  504  1  0.67562300  0.01493400  0.73401600  1
  C  505  1  0.65466800  0.98081200  0.73439000  1
  C  507  1  0.68196000  0.95595100  0.75454800  1
  C  509  1  0.60618500  0.96936000  0.71399500  1
  C  513  1  0.79458800  0.00987100  0.79760500  1
  C  517  1  0.75816800  0.93709800  0.78974900  1
  C  518  1  0.66188600  0.03815700  0.70754900  1
  C  521  1  0.19842700  0.02760500  0.21285800  1
  C  522  1  0.16659000  0.00604700  0.23484000  1
  C  523  1  0.19349400  0.97988000  0.25364800  1
  C  524  1  0.25147800  0.97707500  0.25531100  1
  C  525  1  0.28309000  0.00335000  0.23913200  1
  C  527  1  0.25634300  0.02635900  0.21654600  1
  C  529  1  0.34252000  0.01004000  0.24574400  1
  C  533  1  0.10662100  0.01028300  0.24148600  1
  C  537  1  0.17551600  0.05061700  0.18778300  1
  C  538  1  0.27504700  0.94909400  0.27422100  1
  C  541  1  0.98522700  0.46855000  0.47383200  1
  C  542  1  0.95367300  0.49504900  0.48972000  1
  C  543  1  0.98070800  0.51884100  0.51134300  1
  C  544  1  0.03869100  0.52061200  0.51427500  1
  C  545  1  0.07023600  0.49853900  0.49263900  1
  C  547  1  0.04320900  0.47169900  0.47485200  1
  C  549  1  0.12996400  0.50290500  0.48528200  1
  C  553  1  0.89394600  0.50122400  0.48363000  1
  C  557  1  0.96155900  0.44026600  0.45539900  1
  C  558  1  0.06188900  0.54452100  0.53840700  1
  C  1121  1  0.50862800  0.15779700  0.11948000  1
  C  1122  1  0.48749900  0.17875100  0.14598300  1
  C  1123  1  0.50318000  0.21348800  0.14913300  1
  C  1124  1  0.53699100  0.22837100  0.12360500  1
  C  1125  1  0.55888700  0.20804800  0.09664400  1
  C  1126  1  0.54493000  0.17261700  0.09495500  1
  C  1129  1  0.49813600  0.12170400  0.11968900  1
  C  1130  1  0.51441300  0.10119700  0.14810500  1
  C  1131  1  0.51621900  0.06485100  0.14519600  1
  C  1132  1  0.49648400  0.04918200  0.11463100  1
  C  1133  1  0.47829800  0.06907200  0.08609200  1
  C  1134  1  0.48015500  0.10526100  0.08932300  1
  C  1151  1  0.00832623  0.60554900  0.10682900  1
  C  1152  1  0.98619800  0.58498600  0.08033600  1
  C  1153  1  0.00024123  0.54997000  0.07717000  1
  C  1154  1  0.03338220  0.53449500  0.10272100  1
  C  1155  1  0.05632420  0.55443100  0.12962800  1
  C  1156  1  0.04399820  0.59009600  0.13132000  1
  C  1159  1  0.99915800  0.64178700  0.10678200  1
  C  1160  1  0.01576923  0.66221100  0.07838100  1
  C  1161  1  0.01821623  0.69854200  0.08135100  1
  C  1162  1  0.99877800  0.71428800  0.11196000  1
  C  1163  1  0.98028000  0.69448800  0.14048800  1
  C  1164  1  0.98162800  0.65829800  0.13721100  1
  C  1181  1  0.07082720  0.10448600  0.61599200  1
  C  1182  1  0.08728020  0.08435800  0.64435900  1
  C  1183  1  0.07267020  0.04936400  0.64670400  1
  C  1184  1  0.04382320  0.03371400  0.61928900  1
  C  1185  1  0.02609520  0.05344100  0.59075800  1
  C  1186  1  0.03995520  0.08884400  0.58918500  1
  C  1189  1  0.07814420  0.14078100  0.61656600  1
  C  1190  1  0.05152220  0.16105800  0.64199100  1
  C  1191  1  0.04594720  0.19719400  0.63763300  1
  C  1192  1  0.06993420  0.21293500  0.60832900  1
  C  1193  1  0.09685620  0.19291900  0.58305600  1
  C  1194  1  0.10185120  0.15718300  0.58782800  1
  C  1211  1  0.54964200  0.65251700  0.60689800  1
  C  1212  1  0.57185500  0.67336200  0.58065900  1
  C  1213  1  0.55816200  0.70846800  0.57806200  1
  C  1214  1  0.52494400  0.72364000  0.60373900  1
  C  1215  1  0.50186600  0.70341000  0.63039700  1
  C  1216  1  0.51403400  0.66770400  0.63160400  1
  C  1219  1  0.55958000  0.61636800  0.60674600  1
  C  1220  1  0.54367300  0.59584200  0.57825000  1
  C  1221  1  0.54235100  0.55946900  0.58109200  1
  C  1222  1  0.56210600  0.54386700  0.61169800  1
  C  1223  1  0.58003000  0.56381400  0.64024600  1
  C  1224  1  0.57765600  0.59997800  0.63710800  1
  C  1241  1  0.78481900  0.88495400  0.37819500  1
  C  1242  1  0.80847400  0.91110200  0.39834100  1
  C  1243  1  0.80881500  0.90970200  0.43472900  1
  C  1244  1  0.77955300  0.88225900  0.45065000  1
  C  1245  1  0.75232800  0.85685700  0.43076200  1
  C  1246  1  0.75637800  0.85777300  0.39448500  1
  C  1249  1  0.78912800  0.88618200  0.34188500  1
  C  1250  1  0.76424600  0.91266700  0.32240900  1
  C  1251  1  0.76254800  0.91038400  0.28595400  1
  C  1252  1  0.79053300  0.88284300  0.26941700  1
  C  1253  1  0.81874600  0.85728400  0.28863800  1
  C  1254  1  0.81533900  0.85881800  0.32483300  1
  C  1271  1  0.28762400  0.87715700  0.84840600  1
  C  1272  1  0.30898200  0.85022900  0.82823800  1
  C  1273  1  0.30602400  0.85038300  0.79185700  1
  C  1274  1  0.27668200  0.87796800  0.77616800  1
  C  1275  1  0.25207100  0.90430600  0.79616100  1
  C  1276  1  0.25880800  0.90427500  0.83226900  1
  C  1279  1  0.29273500  0.87616000  0.88471400  1
  C  1280  1  0.26740700  0.85005100  0.90449400  1
  C  1281  1  0.26570800  0.85272000  0.94091300  1
  C  1282  1  0.29382100  0.88036400  0.95716100  1
  C  1283  1  0.32217300  0.90568100  0.93768500  1
  C  1284  1  0.31913100  0.90363400  0.90149000  1
  C  1301  1  0.26810300  0.38266200  0.34990300  1
  C  1302  1  0.24752000  0.41007900  0.33009000  1
  C  1303  1  0.25251100  0.41104100  0.29378400  1
  C  1304  1  0.28206600  0.38353400  0.27798400  1
  C  1305  1  0.30518000  0.35647500  0.29769700  1
  C  1306  1  0.29722900  0.35578000  0.33367000  1
  C  1309  1  0.26277500  0.38304800  0.38615000  1
  C  1310  1  0.29122300  0.40739900  0.40650600  1
  C  1311  1  0.29360400  0.40341900  0.44282400  1
  C  1312  1  0.26347100  0.37620600  0.45838200  1
  C  1313  1  0.23183700  0.35306900  0.43828600  1
  C  1314  1  0.23394100  0.35615000  0.40217900  1
  C  1331  1  0.78087100  0.37335300  0.87471600  1
  C  1332  1  0.75935600  0.34723900  0.89585500  1
  C  1333  1  0.76146900  0.34903300  0.93220200  1
  C  1334  1  0.79013000  0.37735900  0.94697500  1
  C  1335  1  0.81495100  0.40292800  0.92610100  1
  C  1336  1  0.80929400  0.40118800  0.88995000  1
  C  1339  1  0.77375200  0.37162900  0.83853700  1
  C  1340  1  0.79579900  0.34445900  0.81861300  1
  C  1341  1  0.79445600  0.34618900  0.78210900  1
  C  1342  1  0.76611900  0.37392200  0.76612900  1
  C  1343  1  0.74031600  0.40005500  0.78588300  1
  C  1344  1  0.74667700  0.39894800  0.82192800  1
  C  1361  1  0.39837500  0.98683100  0.95593800  1
  C  1362  1  0.35720400  0.01055700  0.96662400  1
  C  1363  1  0.37229100  0.03762000  0.98892600  1
  C  1364  1  0.42739500  0.04305600  0.99901000  1
  C  1365  1  0.46941300  0.02271800  0.98364100  1
  C  1367  1  0.45402900  0.99437300  0.96305300  1
  C  1369  1  0.52931700  0.02908900  0.98828800  1
  C  1373  1  0.29846100  0.00885800  0.95591500  1
  C  1377  1  0.38535600  0.95484700  0.94015600  1
  C  1378  1  0.43766600  0.06532100  0.02744000  1
  C  1381  1  0.89705300  0.77706600  0.26989100  1
  C  1382  1  0.85659300  0.75290300  0.25912600  1
  C  1383  1  0.87260200  0.72590300  0.23700300  1
  C  1384  1  0.92795800  0.72090900  0.22721900  1
  C  1385  1  0.96928700  0.74174700  0.24265000  1
  C  1387  1  0.95296200  0.77004700  0.26301000  1
  C  1389  1  0.02939620  0.73588500  0.23838900  1
  C  1393  1  0.79772300  0.75399700  0.26964100  1
  C  1397  1  0.88313100  0.80885200  0.28577100  1
  C  1398  1  0.93905600  0.69852200  0.19900600  1
  C  1401  1  0.13893220  0.27939700  0.45472500  1
  C  1402  1  0.17287520  0.24965900  0.45687400  1
  C  1403  1  0.15520020  0.22192500  0.47751600  1
  C  1404  1  0.10426820  0.22272300  0.49476000  1
  C  1405  1  0.06840320  0.25126300  0.49052600  1
  C  1407  1  0.08639420  0.27917100  0.47018200  1
  C  1409  1  0.01426023  0.25480000  0.50805300  1
  C  1413  1  0.22680500  0.24587000  0.43912300  1
  C  1417  1  0.15823420  0.31078900  0.44081100  1
  C  1418  1  0.09701220  0.19883800  0.52158800  1
  C  1421  1  0.66425600  0.48138800  0.76891100  1
  C  1422  1  0.70518100  0.50488400  0.75739200  1
  C  1423  1  0.68927800  0.53209300  0.73549900  1
  C  1424  1  0.63373100  0.53785100  0.72661300  1
  C  1425  1  0.59227500  0.51768600  0.74277600  1
  C  1427  1  0.60835600  0.48923100  0.76299100  1
  C  1429  1  0.53225000  0.52435300  0.73931700  1
  C  1433  1  0.76446000  0.50279700  0.76679600  1
  C  1437  1  0.67767000  0.44937300  0.78445900  1
  C  1438  1  0.62234600  0.56004600  0.69831800  1
  C  1441  1  0.94711200  0.23162400  0.70337400  1
  C  1442  1  0.97862400  0.25213500  0.72647900  1
  C  1443  1  0.95139200  0.27733000  0.74633100  1
  C  1444  1  0.89335800  0.28000500  0.74795300  1
  C  1445  1  0.86209000  0.25445100  0.73033500  1
  C  1447  1  0.88918700  0.23254800  0.70676700  1
  C  1449  1  0.80270000  0.24725700  0.73646200  1
  C  1453  1  0.03859820  0.24776900  0.73313100  1
  C  1457  1  0.97091400  0.20976000  0.67770400  1
  C  1458  1  0.86989900  0.30717500  0.76820600  1
  C  1461  1  0.58781000  0.74478900  0.49302800  1
  C  1462  1  0.56455500  0.77827100  0.49130100  1
  C  1463  1  0.59195100  0.80352900  0.47169300  1
  C  1464  1  0.64130100  0.79625100  0.45396800  1
  C  1465  1  0.66207500  0.76199700  0.45363600  1
  C  1467  1  0.63511100  0.73682000  0.47366300  1
  C  1469  1  0.71068100  0.75049300  0.43337000  1
  C  1473  1  0.51325800  0.78868300  0.50944300  1
  C  1477  1  0.57100500  0.72068500  0.51796100  1
  C  1478  1  0.66933400  0.82417100  0.43857200  1
  C  1481  1  0.14876120  0.53325900  0.20264700  1
  C  1482  1  0.11232420  0.52316300  0.22949000  1
  C  1483  1  0.13234920  0.50135000  0.25564000  1
  C  1484  1  0.18819820  0.49154300  0.25754500  1
  C  1485  1  0.22597500  0.50576500  0.23346000  1
  C  1487  1  0.20525800  0.52547700  0.20580500  1
  C  1489  1  0.28676800  0.50185700  0.23570200  1
  C  1493  1  0.05401520  0.53456200  0.23259100  1
  C  1497  1  0.12995220  0.54957900  0.17208800  1
  C  1498  1  0.20347900  0.46671200  0.28277700  1
  C  1501  1  0.88941700  0.98563400  0.46742500  1
  C  1502  1  0.85354100  0.00444800  0.48949600  1
  C  1503  1  0.87667300  0.02559000  0.51528100  1
  C  1504  1  0.93392300  0.03109100  0.51781700  1
  C  1505  1  0.96877800  0.01702800  0.49200100  1
  C  1507  1  0.94622400  0.99339200  0.46837300  1
  C  1509  1  0.02789020  0.02605800  0.48743700  1
  C  1513  1  0.79245200  0.00437900  0.48682700  1
  C  1517  1  0.87115200  0.95911200  0.44466000  1
  C  1518  1  0.95479000  0.04910700  0.54686900  1
  C  1521  1  0.37495100  0.77062100  0.75738700  1
  C  1522  1  0.33609900  0.75438800  0.73524700  1
  C  1523  1  0.35561600  0.73326000  0.70828800  1
  C  1524  1  0.41198300  0.72546800  0.70447800  1
  C  1525  1  0.44943100  0.73686100  0.73020400  1
  C  1527  1  0.43063600  0.76038100  0.75518900  1
  C  1529  1  0.50769400  0.72531600  0.73311800  1
  C  1533  1  0.27533900  0.75741500  0.73888200  1
  C  1537  1  0.36085200  0.79734300  0.78105100  1
  C  1538  1  0.42986500  0.70824200  0.67418300  1
  C  1541  1  0.68898200  0.27173700  0.96901500  1
  C  1542  1  0.72715400  0.25518900  0.99138700  1
  C  1543  1  0.70675500  0.23496500  0.01877800  1
  C  1544  1  0.65006300  0.22830500  0.02279900  1
  C  1545  1  0.61303800  0.23992900  0.99694400  1
  C  1547  1  0.63283000  0.26263400  0.97152200  1
  C  1549  1  0.55426000  0.22938600  0.99426000  1
  C  1553  1  0.78801200  0.25689200  0.98755100  1
  C  1557  1  0.70418700  0.29760900  0.94468900  1
  C  1558  1  0.63153300  0.21179200  0.05330900  1
  C  1561  1  0.47403900  0.24765600  0.23521100  1
  C  1562  1  0.49608200  0.28136700  0.23822700  1
  C  1563  1  0.46750200  0.30558400  0.25848000  1
  C  1564  1  0.41803100  0.29706400  0.27549200  1
  C  1565  1  0.39824900  0.26260900  0.27440300  1
  C  1567  1  0.42657800  0.23844700  0.25388300  1
  C  1569  1  0.34925500  0.24992800  0.29356800  1
  C  1573  1  0.54730500  0.29305100  0.22080000  1
  C  1577  1  0.49194400  0.22459700  0.20960500  1
  C  1578  1  0.38860400  0.32408200  0.29139300  1
  C  1581  1  0.11119320  0.73576200  0.01367800  1
  C  1582  1  0.07953020  0.75766000  0.99193800  1
  C  1583  1  0.10664720  0.78394700  0.97341200  1
  C  1584  1  0.16465520  0.78660400  0.97178500  1
  C  1585  1  0.19605620  0.76007400  0.98771900  1
  C  1587  1  0.16911820  0.73689400  0.01004100  1
  C  1589  1  0.25545400  0.75329900  0.98107700  1
  C  1593  1  0.01952823  0.75368000  0.98525500  1
  C  1597  1  0.08813220  0.71259200  0.03855300  1
  C  1598  1  0.18840120  0.81462600  0.95301900  1
  C  1601  1  0.92347800  0.46540200  0.94874900  1
  C  1602  1  0.90157600  0.49936300  0.94939700  1
  C  1603  1  0.92690200  0.52408700  0.97078300  1
  C  1604  1  0.97357400  0.51593500  0.99068400  1
  C  1605  1  0.99800000  0.48283900  0.98803800  1
  C  1607  1  0.97230000  0.45803500  0.96699400  1
  C  1609  1  0.04884920  0.47235000  0.00662500  1
  C  1613  1  0.85321300  0.51088000  0.92891200  1
  C  1617  1  0.89627300  0.43763700  0.93251400  1
  C  1618  1  0.98884100  0.53943200  0.01657300  1
  C  1621  1  0.14020620  0.96427600  0.77372000  1
  C  1622  1  0.15857720  0.99899100  0.77540300  1
  C  1623  1  0.13120320  0.02390500  0.75525300  1
  C  1624  1  0.08642520  0.01493400  0.73401600  1
  C  1625  1  0.06547020  0.98081200  0.73439000  1
  C  1627  1  0.09276220  0.95595100  0.75454800  1
  C  1629  1  0.01698723  0.96936000  0.71399500  1
  C  1633  1  0.20539000  0.00987100  0.79760500  1
  C  1637  1  0.16897020  0.93709800  0.78974900  1
  C  1638  1  0.07268820  0.03815700  0.70754900  1
  C  1641  1  0.60922900  0.02760500  0.21285800  1
  C  1642  1  0.57739200  0.00604700  0.23484000  1
  C  1643  1  0.60429600  0.97988000  0.25364800  1
  C  1644  1  0.66228000  0.97707500  0.25531100  1
  C  1645  1  0.69389200  0.00335000  0.23913200  1
  C  1647  1  0.66714500  0.02635900  0.21654600  1
  C  1649  1  0.75332200  0.01004000  0.24574400  1
  C  1653  1  0.51742300  0.01028300  0.24148600  1
  C  1657  1  0.58631800  0.05061700  0.18778300  1
  C  1658  1  0.68584900  0.94909400  0.27422100  1
  C  1661  1  0.39602900  0.46855000  0.47383200  1
  C  1662  1  0.36447500  0.49504900  0.48972000  1
  C  1663  1  0.39151000  0.51884100  0.51134300  1
  C  1664  1  0.44949300  0.52061200  0.51427500  1
  C  1665  1  0.48103800  0.49853900  0.49263900  1
  C  1667  1  0.45401100  0.47169900  0.47485200  1
  C  1669  1  0.54076600  0.50290500  0.48528200  1
  C  1673  1  0.30474800  0.50122400  0.48363000  1
  C  1677  1  0.37236100  0.44026600  0.45539900  1
  C  1678  1  0.47269100  0.54452100  0.53840700  1
  H  7  1  0.05027100  0.16845100  0.16372900  1
  H  16  1  0.06068100  0.12027900  0.06849600  1
  H  19  1  0.18011100  0.13700000  0.07767300  1
  H  20  1  0.14953400  0.12991400  0.17615200  1
  H  21  1  0.11268000  0.27561800  0.11524300  1
  H  22  1  0.05092200  0.00571900  0.11753800  1
  H  24  1  0.06784100  0.02935200  0.05323300  1
  H  26  1  0.11036400  0.02212300  0.17410400  1
  H  28  1  0.16136900  0.24617500  0.06320900  1
  H  30  1  0.06000000  0.25582800  0.17029300  1
  H  37  1  0.54944700  0.59577000  0.06260200  1
  H  46  1  0.56182100  0.64328600  0.15797900  1
  H  49  1  0.68076200  0.62495800  0.14849100  1
  H  50  1  0.65014900  0.63310200  0.05028500  1
  H  51  1  0.60714700  0.48751700  0.11120800  1
  H  52  1  0.55384100  0.75794300  0.10899300  1
  H  54  1  0.56939400  0.73434100  0.17319600  1
  H  56  1  0.61273200  0.74134800  0.05255900  1
  H  58  1  0.65755000  0.51637800  0.16340500  1
  H  60  1  0.55644700  0.50798600  0.05555400  1
  H  67  1  0.69849900  0.09542700  0.66391200  1
  H  76  1  0.70961500  0.14272000  0.56908100  1
  H  79  1  0.58668400  0.12385200  0.56743600  1
  H  80  1  0.59175800  0.13110500  0.66623400  1
  H  81  1  0.64806500  0.98646800  0.61220800  1
  H  82  1  0.68361600  0.25898700  0.61193500  1
  H  84  1  0.72481100  0.22936300  0.55602000  1
  H  86  1  0.62290900  0.24047000  0.66471800  1
  H  88  1  0.60327500  0.01475600  0.55765200  1
  H  90  1  0.69232400  0.00773300  0.67004400  1
  H  97  1  0.18722000  0.66282300  0.56290300  1
  H  106  1  0.17547100  0.61497300  0.65797600  1
  H  109  1  0.05587500  0.63261100  0.64848000  1
  H  110  1  0.08706700  0.62465100  0.55023000  1
  H  111  1  0.13016500  0.77044000  0.61290800  1
  H  112  1  0.18681800  0.50063200  0.60886900  1
  H  114  1  0.16877200  0.52428300  0.67332600  1
  H  116  1  0.12735100  0.51656800  0.55238000  1
  H  118  1  0.07978400  0.74157900  0.66407400  1
  H  120  1  0.18195100  0.75068900  0.55801700  1
  H  127  1  0.41461400  0.93153500  0.38578100  1
  H  136  1  0.42020300  0.83912900  0.33929500  1
  H  139  1  0.29260900  0.84110600  0.36231800  1
  H  140  1  0.30263700  0.93432100  0.35324900  1
  H  141  1  0.33179500  0.89123700  0.49256500  1
  H  142  1  0.34545900  0.87024000  0.22754700  1
  H  144  1  0.41542500  0.82224000  0.25091600  1
  H  146  1  0.34139900  0.94083800  0.24460100  1
  H  148  1  0.32999100  0.81831200  0.46456600  1
  H  150  1  0.41013100  0.93657000  0.47831700  1
  H  157  1  0.91525300  0.82998000  0.84092800  1
  H  166  1  0.92405200  0.92312800  0.88680500  1
  H  169  1  0.79726200  0.92232500  0.86507600  1
  H  170  1  0.80499700  0.82844400  0.87415300  1
  H  171  1  0.82486000  0.86826300  0.73590800  1
  H  172  1  0.84845000  0.89345400  0.99879800  1
  H  174  1  0.91812800  0.94107500  0.97510800  1
  H  176  1  0.84433600  0.82251000  0.98243100  1
  H  178  1  0.82748700  0.94165400  0.76138700  1
  H  180  1  0.90351400  0.82331100  0.74807900  1
  H  187  1  0.81826800  0.42952600  0.34314100  1
  H  196  1  0.80461100  0.33788700  0.38711700  1
  H  199  1  0.93629200  0.33679300  0.36645700  1
  H  200  1  0.93312700  0.42827800  0.37645000  1
  H  201  1  0.91404700  0.39465400  0.23883200  1
  H  202  1  0.88671600  0.36027400  0.49915200  1
  H  204  1  0.81271800  0.31460600  0.47239900  1
  H  206  1  0.89538800  0.43210800  0.48519000  1
  H  208  1  0.90840100  0.31901600  0.26307700  1
  H  210  1  0.83023700  0.43642500  0.24932700  1
  H  217  1  0.33142900  0.32649400  0.88399600  1
  H  226  1  0.32180900  0.41897800  0.83656200  1
  H  229  1  0.44923400  0.41794300  0.85649900  1
  H  230  1  0.43725700  0.32247000  0.84830100  1
  H  231  1  0.41907500  0.36999200  0.98821000  1
  H  232  1  0.38662500  0.38568400  0.72311200  1
  H  234  1  0.32088000  0.43500900  0.74818700  1
  H  236  1  0.39099000  0.31584700  0.74040500  1
  H  238  1  0.41460700  0.44201400  0.95934600  1
  H  240  1  0.34215900  0.32328100  0.97675300  1
  H  246  1  0.93105400  0.05275300  0.99911800  1
  H  248  1  0.07334300  0.97806800  0.95441200  1
  H  250  1  0.12717300  0.05309700  0.00175000  1
  H  251  1  0.13850000  0.03071600  0.96316400  1
  H  252  1  0.13693000  0.00793500  0.00275200  1
  H  254  1  0.88028900  0.99034200  0.93536300  1
  H  255  1  0.87445400  0.03392900  0.94624100  1
  H  256  1  0.86212000  0.00199100  0.97796800  1
  H  266  1  0.43183400  0.71044800  0.22674800  1
  H  268  1  0.57178300  0.78663700  0.27178000  1
  H  270  1  0.62799700  0.71186300  0.22515200  1
  H  271  1  0.63824800  0.73461400  0.26363600  1
  H  272  1  0.63673000  0.75710400  0.22388200  1
  H  274  1  0.37888900  0.77242300  0.29017800  1
  H  275  1  0.37428500  0.72879100  0.27927100  1
  H  276  1  0.36139700  0.76060200  0.24750500  1
  H  286  1  0.77022500  0.20135500  0.48114000  1
  H  288  1  0.65153200  0.30081200  0.46889300  1
  H  290  1  0.59188900  0.23220700  0.52297300  1
  H  291  1  0.57138800  0.25903100  0.48884700  1
  H  292  1  0.60440700  0.27682600  0.52549600  1
  H  294  1  0.82459100  0.26665000  0.42107800  1
  H  295  1  0.81658800  0.22191600  0.42440900  1
  H  296  1  0.84896800  0.24507200  0.45816600  1
  H  306  1  0.30857200  0.54703300  0.72464900  1
  H  308  1  0.16770900  0.47308100  0.77227600  1
  H  310  1  0.11242700  0.54840300  0.72602100  1
  H  311  1  0.10276900  0.52608000  0.76482400  1
  H  312  1  0.10204600  0.50329100  0.72523100  1
  H  314  1  0.36189500  0.48418100  0.78712900  1
  H  315  1  0.36778900  0.52776100  0.77623200  1
  H  316  1  0.37782900  0.49583400  0.74417900  1
  H  326  1  0.56440300  0.29358100  0.76077200  1
  H  328  1  0.45479200  0.21614700  0.69234400  1
  H  330  1  0.37737200  0.25780000  0.76080000  1
  H  331  1  0.36744900  0.25781600  0.71541800  1
  H  332  1  0.38453500  0.21953400  0.73779500  1
  H  334  1  0.64366900  0.22336100  0.72356500  1
  H  335  1  0.65058700  0.26885600  0.72126900  1
  H  336  1  0.63593600  0.24798200  0.76079500  1
  H  346  1  0.16599400  0.82817100  0.47174700  1
  H  348  1  0.24085400  0.71256900  0.47523800  1
  H  350  1  0.31536700  0.77007000  0.41585000  1
  H  351  1  0.33300300  0.74317500  0.45085300  1
  H  352  1  0.28890200  0.72817300  0.41770800  1
  H  354  1  0.08178400  0.76726100  0.52210800  1
  H  355  1  0.11196600  0.80808700  0.52887300  1
  H  356  1  0.07349000  0.79965200  0.49098400  1
  H  366  1  0.69429000  0.49214000  0.27353900  1
  H  368  1  0.82128000  0.53376400  0.18722100  1
  H  370  1  0.88950000  0.49011400  0.25971800  1
  H  371  1  0.89063100  0.48612100  0.21432000  1
  H  372  1  0.89553400  0.52712000  0.23422500  1
  H  374  1  0.63277900  0.55543000  0.21505200  1
  H  375  1  0.61583500  0.51286700  0.22761000  1
  H  376  1  0.63538500  0.54410900  0.25858300  1
  H  386  1  0.44012600  0.03698200  0.53279100  1
  H  388  1  0.56166700  0.98139900  0.45158700  1
  H  390  1  0.62971600  0.04809100  0.50287100  1
  H  391  1  0.62499600  0.03286100  0.46060100  1
  H  392  1  0.64272000  0.00402500  0.49422500  1
  H  394  1  0.36680300  0.99251400  0.46318800  1
  H  395  1  0.36619500  0.03078400  0.48687100  1
  H  396  1  0.36405600  0.99074300  0.50878400  1
  H  406  1  0.91717800  0.72380500  0.69076100  1
  H  408  1  0.04808100  0.77059500  0.77187900  1
  H  410  1  0.10649400  0.70360800  0.71642000  1
  H  411  1  0.10536100  0.71693700  0.75943300  1
  H  412  1  0.12439700  0.74660100  0.72682200  1
  H  414  1  0.85212900  0.76950600  0.76296000  1
  H  415  1  0.84584800  0.73184900  0.73856700  1
  H  416  1  0.84788900  0.77234000  0.71748300  1
  H  426  1  0.32320400  0.22528600  0.03642100  1
  H  428  1  0.19419700  0.27303700  0.95467400  1
  H  430  1  0.13294600  0.20807100  0.01124200  1
  H  431  1  0.13449100  0.22081800  0.96807300  1
  H  432  1  0.11695400  0.25123000  0.00031900  1
  H  434  1  0.39006700  0.26812800  0.96315600  1
  H  435  1  0.39459000  0.23097800  0.98844500  1
  H  436  1  0.39475800  0.27198400  0.00854800  1
  H  446  1  0.07102800  0.33040100  0.25943000  1
  H  448  1  0.99994400  0.21409800  0.25128200  1
  H  450  1  0.92152600  0.26884300  0.31128800  1
  H  451  1  0.90632600  0.24260800  0.27537100  1
  H  452  1  0.94960200  0.22737000  0.30883500  1
  H  454  1  0.15802800  0.27235200  0.20750200  1
  H  455  1  0.12667200  0.31301800  0.20201600  1
  H  456  1  0.16483500  0.30370200  0.23982100  1
  H  466  1  0.67210100  0.80107000  0.95995700  1
  H  468  1  0.78220200  0.71978100  0.02339800  1
  H  470  1  0.85923800  0.76546200  0.95752400  1
  H  471  1  0.86913200  0.76238600  0.00278200  1
  H  472  1  0.85194200  0.72572300  0.97785700  1
  H  474  1  0.59302700  0.72871600  0.99340200  1
  H  475  1  0.58602700  0.77400300  0.99844900  1
  H  476  1  0.60031300  0.75554700  0.95768600  1
  H  486  1  0.49873000  0.54806000  0.97296100  1
  H  488  1  0.57731200  0.43356300  0.96645900  1
  H  490  1  0.65751100  0.49350700  0.02043200  1
  H  491  1  0.66811000  0.46243900  0.98825900  1
  H  492  1  0.62834800  0.45210700  0.02514000  1
  H  494  1  0.42809600  0.49163000  0.91063100  1
  H  495  1  0.45313200  0.53380500  0.91408500  1
  H  496  1  0.40853600  0.51723300  0.94620500  1
  H  506  1  0.73569500  0.04848600  0.75429500  1
  H  508  1  0.66866200  0.93090700  0.75366500  1
  H  510  1  0.58549100  0.99046800  0.70081300  1
  H  511  1  0.57611900  0.95732100  0.73103800  1
  H  512  1  0.61904800  0.95057100  0.69472000  1
  H  514  1  0.78745800  0.00142400  0.82402100  1
  H  515  1  0.79998000  0.03778400  0.79810000  1
  H  516  1  0.83282700  0.99861700  0.78833300  1
  H  526  1  0.16961900  0.96294300  0.26724500  1
  H  528  1  0.28037500  0.04329000  0.20306100  1
  H  530  1  0.35712900  0.99784900  0.26927600  1
  H  531  1  0.36694000  0.00093500  0.22401800  1
  H  532  1  0.34987100  0.03760700  0.24896700  1
  H  534  1  0.09117100  0.03526200  0.23319900  1
  H  535  1  0.08374100  0.98997100  0.22840200  1
  H  536  1  0.09816200  0.00860500  0.26906200  1
  H  546  1  0.95679700  0.53595900  0.52467700  1
  H  548  1  0.06694200  0.45456800  0.46139900  1
  H  550  1  0.14536500  0.52810800  0.49289400  1
  H  551  1  0.13769100  0.50068300  0.45765900  1
  H  552  1  0.15342400  0.48296800  0.49854400  1
  H  554  1  0.87933400  0.48919200  0.46001400  1
  H  555  1  0.88566100  0.52873400  0.48082100  1
  H  556  1  0.87018400  0.49155500  0.50539700  1
  H  1127  1  0.46107300  0.16845100  0.16372900  1
  H  1136  1  0.47148300  0.12027900  0.06849600  1
  H  1139  1  0.59091300  0.13700000  0.07767300  1
  H  1140  1  0.56033600  0.12991400  0.17615200  1
  H  1141  1  0.52348200  0.27561800  0.11524300  1
  H  1142  1  0.46172400  0.00571900  0.11753800  1
  H  1144  1  0.47864300  0.02935200  0.05323300  1
  H  1146  1  0.52116600  0.02212300  0.17410400  1
  H  1148  1  0.57217100  0.24617500  0.06320900  1
  H  1150  1  0.47080200  0.25582800  0.17029300  1
  H  1157  1  0.96024900  0.59577000  0.06260200  1
  H  1166  1  0.97262300  0.64328600  0.15797900  1
  H  1169  1  0.09156420  0.62495800  0.14849100  1
  H  1170  1  0.06095120  0.63310200  0.05028500  1
  H  1171  1  0.01794923  0.48751700  0.11120800  1
  H  1172  1  0.96464300  0.75794300  0.10899300  1
  H  1174  1  0.98019600  0.73434100  0.17319600  1
  H  1176  1  0.02353420  0.74134800  0.05255900  1
  H  1178  1  0.06835220  0.51637800  0.16340500  1
  H  1180  1  0.96724900  0.50798600  0.05555400  1
  H  1187  1  0.10930120  0.09542700  0.66391200  1
  H  1196  1  0.12041720  0.14272000  0.56908100  1
  H  1199  1  0.99748600  0.12385200  0.56743600  1
  H  1200  1  0.00256023  0.13110500  0.66623400  1
  H  1201  1  0.05886720  0.98646800  0.61220800  1
  H  1202  1  0.09441820  0.25898700  0.61193500  1
  H  1204  1  0.13561320  0.22936300  0.55602000  1
  H  1206  1  0.03371120  0.24047000  0.66471800  1
  H  1208  1  0.01407723  0.01475600  0.55765200  1
  H  1210  1  0.10312620  0.00773300  0.67004400  1
  H  1217  1  0.59802200  0.66282300  0.56290300  1
  H  1226  1  0.58627300  0.61497300  0.65797600  1
  H  1229  1  0.46667700  0.63261100  0.64848000  1
  H  1230  1  0.49786900  0.62465100  0.55023000  1
  H  1231  1  0.54096700  0.77044000  0.61290800  1
  H  1232  1  0.59762000  0.50063200  0.60886900  1
  H  1234  1  0.57957400  0.52428300  0.67332600  1
  H  1236  1  0.53815300  0.51656800  0.55238000  1
  H  1238  1  0.49058600  0.74157900  0.66407400  1
  H  1240  1  0.59275300  0.75068900  0.55801700  1
  H  1247  1  0.82541600  0.93153500  0.38578100  1
  H  1256  1  0.83100500  0.83912900  0.33929500  1
  H  1259  1  0.70341100  0.84110600  0.36231800  1
  H  1260  1  0.71343900  0.93432100  0.35324900  1
  H  1261  1  0.74259700  0.89123700  0.49256500  1
  H  1262  1  0.75626100  0.87024000  0.22754700  1
  H  1264  1  0.82622700  0.82224000  0.25091600  1
  H  1266  1  0.75220100  0.94083800  0.24460100  1
  H  1268  1  0.74079300  0.81831200  0.46456600  1
  H  1270  1  0.82093300  0.93657000  0.47831700  1
  H  1277  1  0.32605500  0.82998000  0.84092800  1
  H  1286  1  0.33485400  0.92312800  0.88680500  1
  H  1289  1  0.20806400  0.92232500  0.86507600  1
  H  1290  1  0.21579900  0.82844400  0.87415300  1
  H  1291  1  0.23566200  0.86826300  0.73590800  1
  H  1292  1  0.25925200  0.89345400  0.99879800  1
  H  1294  1  0.32893000  0.94107500  0.97510800  1
  H  1296  1  0.25513800  0.82251000  0.98243100  1
  H  1298  1  0.23828900  0.94165400  0.76138700  1
  H  1300  1  0.31431600  0.82331100  0.74807900  1
  H  1307  1  0.22907000  0.42952600  0.34314100  1
  H  1316  1  0.21541300  0.33788700  0.38711700  1
  H  1319  1  0.34709400  0.33679300  0.36645700  1
  H  1320  1  0.34392900  0.42827800  0.37645000  1
  H  1321  1  0.32484900  0.39465400  0.23883200  1
  H  1322  1  0.29751800  0.36027400  0.49915200  1
  H  1324  1  0.22352000  0.31460600  0.47239900  1
  H  1326  1  0.30619000  0.43210800  0.48519000  1
  H  1328  1  0.31920300  0.31901600  0.26307700  1
  H  1330  1  0.24103900  0.43642500  0.24932700  1
  H  1337  1  0.74223100  0.32649400  0.88399600  1
  H  1346  1  0.73261100  0.41897800  0.83656200  1
  H  1349  1  0.86003600  0.41794300  0.85649900  1
  H  1350  1  0.84805900  0.32247000  0.84830100  1
  H  1351  1  0.82987700  0.36999200  0.98821000  1
  H  1352  1  0.79742700  0.38568400  0.72311200  1
  H  1354  1  0.73168200  0.43500900  0.74818700  1
  H  1356  1  0.80179200  0.31584700  0.74040500  1
  H  1358  1  0.82540900  0.44201400  0.95934600  1
  H  1360  1  0.75296100  0.32328100  0.97675300  1
  H  1366  1  0.34185600  0.05275300  0.99911800  1
  H  1368  1  0.48414500  0.97806800  0.95441200  1
  H  1370  1  0.53797500  0.05309700  0.00175000  1
  H  1371  1  0.54930200  0.03071600  0.96316400  1
  H  1372  1  0.54773200  0.00793500  0.00275200  1
  H  1374  1  0.29109100  0.99034200  0.93536300  1
  H  1375  1  0.28525600  0.03392900  0.94624100  1
  H  1376  1  0.27292200  0.00199100  0.97796800  1
  H  1386  1  0.84263600  0.71044800  0.22674800  1
  H  1388  1  0.98258500  0.78663700  0.27178000  1
  H  1390  1  0.03879920  0.71186300  0.22515200  1
  H  1391  1  0.04905020  0.73461400  0.26363600  1
  H  1392  1  0.04753220  0.75710400  0.22388200  1
  H  1394  1  0.78969100  0.77242300  0.29017800  1
  H  1395  1  0.78508700  0.72879100  0.27927100  1
  H  1396  1  0.77219900  0.76060200  0.24750500  1
  H  1406  1  0.18102720  0.20135500  0.48114000  1
  H  1408  1  0.06233420  0.30081200  0.46889300  1
  H  1410  1  0.00269123  0.23220700  0.52297300  1
  H  1411  1  0.98219000  0.25903100  0.48884700  1
  H  1412  1  0.01520923  0.27682600  0.52549600  1
  H  1414  1  0.23539300  0.26665000  0.42107800  1
  H  1415  1  0.22739000  0.22191600  0.42440900  1
  H  1416  1  0.25977000  0.24507200  0.45816600  1
  H  1426  1  0.71937400  0.54703300  0.72464900  1
  H  1428  1  0.57851100  0.47308100  0.77227600  1
  H  1430  1  0.52322900  0.54840300  0.72602100  1
  H  1431  1  0.51357100  0.52608000  0.76482400  1
  H  1432  1  0.51284800  0.50329100  0.72523100  1
  H  1434  1  0.77269700  0.48418100  0.78712900  1
  H  1435  1  0.77859100  0.52776100  0.77623200  1
  H  1436  1  0.78863100  0.49583400  0.74417900  1
  H  1446  1  0.97520500  0.29358100  0.76077200  1
  H  1448  1  0.86559400  0.21614700  0.69234400  1
  H  1450  1  0.78817400  0.25780000  0.76080000  1
  H  1451  1  0.77825100  0.25781600  0.71541800  1
  H  1452  1  0.79533700  0.21953400  0.73779500  1
  H  1454  1  0.05447120  0.22336100  0.72356500  1
  H  1455  1  0.06138920  0.26885600  0.72126900  1
  H  1456  1  0.04673820  0.24798200  0.76079500  1
  H  1466  1  0.57679600  0.82817100  0.47174700  1
  H  1468  1  0.65165600  0.71256900  0.47523800  1
  H  1470  1  0.72616900  0.77007000  0.41585000  1
  H  1471  1  0.74380500  0.74317500  0.45085300  1
  H  1472  1  0.69970400  0.72817300  0.41770800  1
  H  1474  1  0.49258600  0.76726100  0.52210800  1
  H  1475  1  0.52276800  0.80808700  0.52887300  1
  H  1476  1  0.48429200  0.79965200  0.49098400  1
  H  1486  1  0.10509220  0.49214000  0.27353900  1
  H  1488  1  0.23208200  0.53376400  0.18722100  1
  H  1490  1  0.30030200  0.49011400  0.25971800  1
  H  1491  1  0.30143300  0.48612100  0.21432000  1
  H  1492  1  0.30633600  0.52712000  0.23422500  1
  H  1494  1  0.04358120  0.55543000  0.21505200  1
  H  1495  1  0.02663720  0.51286700  0.22761000  1
  H  1496  1  0.04618720  0.54410900  0.25858300  1
  H  1506  1  0.85092800  0.03698200  0.53279100  1
  H  1508  1  0.97246900  0.98139900  0.45158700  1
  H  1510  1  0.04051820  0.04809100  0.50287100  1
  H  1511  1  0.03579820  0.03286100  0.46060100  1
  H  1512  1  0.05352220  0.00402500  0.49422500  1
  H  1514  1  0.77760500  0.99251400  0.46318800  1
  H  1515  1  0.77699700  0.03078400  0.48687100  1
  H  1516  1  0.77485800  0.99074300  0.50878400  1
  H  1526  1  0.32798000  0.72380500  0.69076100  1
  H  1528  1  0.45888300  0.77059500  0.77187900  1
  H  1530  1  0.51729600  0.70360800  0.71642000  1
  H  1531  1  0.51616300  0.71693700  0.75943300  1
  H  1532  1  0.53519900  0.74660100  0.72682200  1
  H  1534  1  0.26293100  0.76950600  0.76296000  1
  H  1535  1  0.25665000  0.73184900  0.73856700  1
  H  1536  1  0.25869100  0.77234000  0.71748300  1
  H  1546  1  0.73400600  0.22528600  0.03642100  1
  H  1548  1  0.60499900  0.27303700  0.95467400  1
  H  1550  1  0.54374800  0.20807100  0.01124200  1
  H  1551  1  0.54529300  0.22081800  0.96807300  1
  H  1552  1  0.52775600  0.25123000  0.00031900  1
  H  1554  1  0.80086900  0.26812800  0.96315600  1
  H  1555  1  0.80539200  0.23097800  0.98844500  1
  H  1556  1  0.80556000  0.27198400  0.00854800  1
  H  1566  1  0.48183000  0.33040100  0.25943000  1
  H  1568  1  0.41074600  0.21409800  0.25128200  1
  H  1570  1  0.33232800  0.26884300  0.31128800  1
  H  1571  1  0.31712800  0.24260800  0.27537100  1
  H  1572  1  0.36040400  0.22737000  0.30883500  1
  H  1574  1  0.56883000  0.27235200  0.20750200  1
  H  1575  1  0.53747400  0.31301800  0.20201600  1
  H  1576  1  0.57563700  0.30370200  0.23982100  1
  H  1586  1  0.08290320  0.80107000  0.95995700  1
  H  1588  1  0.19300420  0.71978100  0.02339800  1
  H  1590  1  0.27004000  0.76546200  0.95752400  1
  H  1591  1  0.27993400  0.76238600  0.00278200  1
  H  1592  1  0.26274400  0.72572300  0.97785700  1
  H  1594  1  0.00382923  0.72871600  0.99340200  1
  H  1595  1  0.99682900  0.77400300  0.99844900  1
  H  1596  1  0.01111523  0.75554700  0.95768600  1
  H  1606  1  0.90953200  0.54806000  0.97296100  1
  H  1608  1  0.98811400  0.43356300  0.96645900  1
  H  1610  1  0.06831320  0.49350700  0.02043200  1
  H  1611  1  0.07891220  0.46243900  0.98825900  1
  H  1612  1  0.03915020  0.45210700  0.02514000  1
  H  1614  1  0.83889800  0.49163000  0.91063100  1
  H  1615  1  0.86393400  0.53380500  0.91408500  1
  H  1616  1  0.81933800  0.51723300  0.94620500  1
  H  1626  1  0.14649720  0.04848600  0.75429500  1
  H  1628  1  0.07946420  0.93090700  0.75366500  1
  H  1630  1  0.99629300  0.99046800  0.70081300  1
  H  1631  1  0.98692100  0.95732100  0.73103800  1
  H  1632  1  0.02985020  0.95057100  0.69472000  1
  H  1634  1  0.19826020  0.00142400  0.82402100  1
  H  1635  1  0.21078200  0.03778400  0.79810000  1
  H  1636  1  0.24362900  0.99861700  0.78833300  1
  H  1646  1  0.58042100  0.96294300  0.26724500  1
  H  1648  1  0.69117700  0.04329000  0.20306100  1
  H  1650  1  0.76793100  0.99784900  0.26927600  1
  H  1651  1  0.77774200  0.00093500  0.22401800  1
  H  1652  1  0.76067300  0.03760700  0.24896700  1
  H  1654  1  0.50197300  0.03526200  0.23319900  1
  H  1655  1  0.49454300  0.98997100  0.22840200  1
  H  1656  1  0.50896400  0.00860500  0.26906200  1
  H  1666  1  0.36759900  0.53595900  0.52467700  1
  H  1668  1  0.47774400  0.45456800  0.46139900  1
  H  1670  1  0.55616700  0.52810800  0.49289400  1
  H  1671  1  0.54849300  0.50068300  0.45765900  1
  H  1672  1  0.56422600  0.48296800  0.49854400  1
  H  1674  1  0.29013600  0.48919200  0.46001400  1
  H  1675  1  0.29646300  0.52873400  0.48082100  1
  H  1676  1  0.28098600  0.49155500  0.50539700  1
  N  23  1  0.05488000  0.05298900  0.05534700  1
  N  25  1  0.12720700  0.04459100  0.17092000  1
  N  27  1  0.17654900  0.22420300  0.07085000  1
  N  29  1  0.07401300  0.23293300  0.17588800  1
  N  53  1  0.55664400  0.71065900  0.17116700  1
  N  55  1  0.62919600  0.71874900  0.05558000  1
  N  57  1  0.67372300  0.53790300  0.15531300  1
  N  59  1  0.57055600  0.53092200  0.05023000  1
  N  83  1  0.70439400  0.20782800  0.55351500  1
  N  85  1  0.60801700  0.21748500  0.66118100  1
  N  87  1  0.58869300  0.03719600  0.56428500  1
  N  89  1  0.67638100  0.03035700  0.67463600  1
  N  113  1  0.18216800  0.54780000  0.67094200  1
  N  115  1  0.11033900  0.53901700  0.55530900  1
  N  117  1  0.06365100  0.71985900  0.65648300  1
  N  119  1  0.16746500  0.72805000  0.55189100  1
  N  143  1  0.43164300  0.82929100  0.27276400  1
  N  145  1  0.32473200  0.93471400  0.26653700  1
  N  147  1  0.31190000  0.83135200  0.44632800  1
  N  149  1  0.42200000  0.93530700  0.45442100  1
  N  173  1  0.93450900  0.93400900  0.95331300  1
  N  175  1  0.82756100  0.82871100  0.96055100  1
  N  177  1  0.81097700  0.92964600  0.78087900  1
  N  179  1  0.91563300  0.82366100  0.77195200  1
  N  203  1  0.79452200  0.32554700  0.45285800  1
  N  205  1  0.91173000  0.42613900  0.46311400  1
  N  207  1  0.92498900  0.33133800  0.28234700  1
  N  209  1  0.82192500  0.43798000  0.27379600  1
  N  233  1  0.30570400  0.42822600  0.77041500  1
  N  235  1  0.40876600  0.32145900  0.76211300  1
  N  237  1  0.43264600  0.42946500  0.94073800  1
  N  239  1  0.32953400  0.32326100  0.95297800  1
  N  1143  1  0.46568200  0.05298900  0.05534700  1
  N  1145  1  0.53800900  0.04459100  0.17092000  1
  N  1147  1  0.58735100  0.22420300  0.07085000  1
  N  1149  1  0.48481500  0.23293300  0.17588800  1
  N  1173  1  0.96744600  0.71065900  0.17116700  1
  N  1175  1  0.03999820  0.71874900  0.05558000  1
  N  1177  1  0.08452520  0.53790300  0.15531300  1
  N  1179  1  0.98135800  0.53092200  0.05023000  1
  N  1203  1  0.11519620  0.20782800  0.55351500  1
  N  1205  1  0.01881923  0.21748500  0.66118100  1
  N  1207  1  0.99949500  0.03719600  0.56428500  1
  N  1209  1  0.08718320  0.03035700  0.67463600  1
  N  1233  1  0.59297000  0.54780000  0.67094200  1
  N  1235  1  0.52114100  0.53901700  0.55530900  1
  N  1237  1  0.47445300  0.71985900  0.65648300  1
  N  1239  1  0.57826700  0.72805000  0.55189100  1
  N  1263  1  0.84244500  0.82929100  0.27276400  1
  N  1265  1  0.73553400  0.93471400  0.26653700  1
  N  1267  1  0.72270200  0.83135200  0.44632800  1
  N  1269  1  0.83280200  0.93530700  0.45442100  1
  N  1293  1  0.34531100  0.93400900  0.95331300  1
  N  1295  1  0.23836300  0.82871100  0.96055100  1
  N  1297  1  0.22177900  0.92964600  0.78087900  1
  N  1299  1  0.32643500  0.82366100  0.77195200  1
  N  1323  1  0.20532400  0.32554700  0.45285800  1
  N  1325  1  0.32253200  0.42613900  0.46311400  1
  N  1327  1  0.33579100  0.33133800  0.28234700  1
  N  1329  1  0.23272700  0.43798000  0.27379600  1
  N  1353  1  0.71650600  0.42822600  0.77041500  1
  N  1355  1  0.81956800  0.32145900  0.76211300  1
  N  1357  1  0.84344800  0.42946500  0.94073800  1
  N  1359  1  0.74033600  0.32326100  0.95297800  1
  O  8  1  0.14153200  0.26201900  0.12661000  1
  O  15  1  0.08799900  0.01416500  0.11205700  1
  O  17  1  0.15328400  0.15336300  0.06810700  1
  O  18  1  0.11629700  0.11582700  0.17915800  1
  O  38  1  0.63649000  0.50060400  0.09974000  1
  O  45  1  0.59076400  0.74929100  0.11455600  1
  O  47  1  0.65337400  0.60900600  0.15812500  1
  O  48  1  0.61727900  0.64752800  0.04729800  1
  O  68  1  0.61770000  0.00003700  0.62194100  1
  O  75  1  0.65125200  0.24719600  0.60241900  1
  O  77  1  0.61500700  0.10716600  0.56048800  1
  O  78  1  0.62279800  0.14629800  0.67191000  1
  O  98  1  0.10068500  0.75765000  0.60124000  1
  O  105  1  0.14957900  0.50883600  0.61428500  1
  O  107  1  0.08324700  0.64849600  0.65824400  1
  O  108  1  0.12021500  0.61048600  0.54720300  1
  O  128  1  0.36629800  0.88000900  0.48564800  1
  O  135  1  0.38033500  0.88106200  0.23436200  1
  O  137  1  0.32341400  0.83148900  0.37559600  1
  O  138  1  0.33349400  0.94140200  0.33849400  1
  O  158  1  0.86018900  0.87933700  0.74126000  1
  O  165  1  0.88336400  0.88254400  0.99219800  1
  O  167  1  0.82771300  0.93124700  0.85101900  1
  O  168  1  0.83600300  0.82130000  0.88875600  1
  O  188  1  0.87899500  0.38283100  0.24320500  1
  O  195  1  0.85267300  0.37258600  0.49328800  1
  O  197  1  0.90571000  0.32837500  0.35220200  1
  O  198  1  0.90280400  0.43593100  0.39135200  1
  O  218  1  0.38360500  0.38033500  0.98186000  1
  O  225  1  0.35199100  0.37538200  0.73111500  1
  O  227  1  0.41884300  0.42743100  0.87023500  1
  O  228  1  0.40534400  0.31562800  0.83433600  1
  O  259  1  0.99590300  0.09417300  0.02997200  1
  O  260  1  0.00901800  0.94269900  0.91559600  1
  O  279  1  0.49774400  0.66946700  0.19658200  1
  O  280  1  0.50632500  0.82119200  0.31049300  1
  O  299  1  0.64832500  0.17380300  0.51666600  1
  O  300  1  0.71360600  0.32834700  0.41938700  1
  O  319  1  0.24275700  0.58872700  0.69507500  1
  O  320  1  0.23394600  0.43766100  0.81003900  1
  O  339  1  0.49217100  0.32355700  0.79104400  1
  O  340  1  0.52893800  0.18402800  0.66449400  1
  O  359  1  0.22857500  0.84658400  0.41951800  1
  O  360  1  0.13792500  0.69076800  0.50680000  1
  O  379  1  0.76796400  0.47007200  0.31379800  1
  O  380  1  0.75177200  0.57326900  0.15667800  1
  O  399  1  0.51316100  0.07449500  0.56099000  1
  O  400  1  0.49072500  0.95362200  0.41594500  1
  O  419  1  0.98579800  0.68444900  0.65949800  1
  O  420  1  0.98134900  0.79993200  0.80976800  1
  O  439  1  0.25280400  0.18743600  0.06811700  1
  O  440  1  0.26177700  0.30042500  0.91612100  1
  O  459  1  0.00609700  0.34570500  0.31226900  1
  O  460  1  0.10195100  0.19394800  0.21987100  1
  O  479  1  0.74570000  0.83136500  0.92979500  1
  O  480  1  0.70999500  0.68709200  0.05079500  1
  O  499  1  0.60023300  0.56976300  0.00651300  1
  O  500  1  0.51606500  0.41588600  0.91310500  1
  O  519  1  0.63808000  0.06838600  0.71639100  1
  O  520  1  0.72895400  0.91535200  0.80996900  1
  O  539  1  0.24300300  0.93259900  0.29754200  1
  O  540  1  0.20857400  0.07570900  0.17510900  1
  O  559  1  0.02880000  0.56986300  0.55054200  1
  O  560  1  0.99300600  0.42374000  0.43178900  1
  O  1128  1  0.55233400  0.26201900  0.12661000  1
  O  1135  1  0.49880100  0.01416500  0.11205700  1
  O  1137  1  0.56408600  0.15336300  0.06810700  1
  O  1138  1  0.52709900  0.11582700  0.17915800  1
  O  1158  1  0.04729220  0.50060400  0.09974000  1
  O  1165  1  0.00156623  0.74929100  0.11455600  1
  O  1167  1  0.06417620  0.60900600  0.15812500  1
  O  1168  1  0.02808120  0.64752800  0.04729800  1
  O  1188  1  0.02850220  0.00003700  0.62194100  1
  O  1195  1  0.06205420  0.24719600  0.60241900  1
  O  1197  1  0.02580920  0.10716600  0.56048800  1
  O  1198  1  0.03360020  0.14629800  0.67191000  1
  O  1218  1  0.51148700  0.75765000  0.60124000  1
  O  1225  1  0.56038100  0.50883600  0.61428500  1
  O  1227  1  0.49404900  0.64849600  0.65824400  1
  O  1228  1  0.53101700  0.61048600  0.54720300  1
  O  1248  1  0.77710000  0.88000900  0.48564800  1
  O  1255  1  0.79113700  0.88106200  0.23436200  1
  O  1257  1  0.73421600  0.83148900  0.37559600  1
  O  1258  1  0.74429600  0.94140200  0.33849400  1
  O  1278  1  0.27099100  0.87933700  0.74126000  1
  O  1285  1  0.29416600  0.88254400  0.99219800  1
  O  1287  1  0.23851500  0.93124700  0.85101900  1
  O  1288  1  0.24680500  0.82130000  0.88875600  1
  O  1308  1  0.28979700  0.38283100  0.24320500  1
  O  1315  1  0.26347500  0.37258600  0.49328800  1
  O  1317  1  0.31651200  0.32837500  0.35220200  1
  O  1318  1  0.31360600  0.43593100  0.39135200  1
  O  1338  1  0.79440700  0.38033500  0.98186000  1
  O  1345  1  0.76279300  0.37538200  0.73111500  1
  O  1347  1  0.82964500  0.42743100  0.87023500  1
  O  1348  1  0.81614600  0.31562800  0.83433600  1
  O  1379  1  0.40670500  0.09417300  0.02997200  1
  O  1380  1  0.41982000  0.94269900  0.91559600  1
  O  1399  1  0.90854600  0.66946700  0.19658200  1
  O  1400  1  0.91712700  0.82119200  0.31049300  1
  O  1419  1  0.05912720  0.17380300  0.51666600  1
  O  1420  1  0.12440820  0.32834700  0.41938700  1
  O  1439  1  0.65355900  0.58872700  0.69507500  1
  O  1440  1  0.64474800  0.43766100  0.81003900  1
  O  1459  1  0.90297300  0.32355700  0.79104400  1
  O  1460  1  0.93974000  0.18402800  0.66449400  1
  O  1479  1  0.63937700  0.84658400  0.41951800  1
  O  1480  1  0.54872700  0.69076800  0.50680000  1
  O  1499  1  0.17876620  0.47007200  0.31379800  1
  O  1500  1  0.16257420  0.57326900  0.15667800  1
  O  1519  1  0.92396300  0.07449500  0.56099000  1
  O  1520  1  0.90152700  0.95362200  0.41594500  1
  O  1539  1  0.39660000  0.68444900  0.65949800  1
  O  1540  1  0.39215100  0.79993200  0.80976800  1
  O  1559  1  0.66360600  0.18743600  0.06811700  1
  O  1560  1  0.67257900  0.30042500  0.91612100  1
  O  1579  1  0.41689900  0.34570500  0.31226900  1
  O  1580  1  0.51275300  0.19394800  0.21987100  1
  O  1599  1  0.15650220  0.83136500  0.92979500  1
  O  1600  1  0.12079720  0.68709200  0.05079500  1
  O  1619  1  0.01103523  0.56976300  0.00651300  1
  O  1620  1  0.92686700  0.41588600  0.91310500  1
  O  1639  1  0.04888220  0.06838600  0.71639100  1
  O  1640  1  0.13975620  0.91535200  0.80996900  1
  O  1659  1  0.65380500  0.93259900  0.29754200  1
  O  1660  1  0.61937600  0.07570900  0.17510900  1
  O  1679  1  0.43960200  0.56986300  0.55054200  1
  O  1680  1  0.40380800  0.42374000  0.43178900  1
