# generated using pymatgen
data_H23(C8N)4
_symmetry_space_group_name_H-M   'P 1'
_cell_length_a   35.20940000
_cell_length_b   50.26120000
_cell_length_c   92.33370000
_cell_angle_alpha   90.00000000
_cell_angle_beta   90.00000000
_cell_angle_gamma   90.08080000
_symmetry_Int_Tables_number   1
_chemical_formula_structural   H23(C8N)4
_chemical_formula_sum   'H736 C1024 N128'
_cell_volume   163399.71126228
_cell_formula_units_Z   32
loop_
 _symmetry_equiv_pos_site_id
 _symmetry_equiv_pos_as_xyz
  1  'x, y, z'
loop_
 _atom_site_type_symbol
 _atom_site_label
 _atom_site_symmetry_multiplicity
 _atom_site_fract_x
 _atom_site_fract_y
 _atom_site_fract_z
 _atom_site_occupancy
  H  49  1  0.60859300  0.76366200  0.81356300  1
  H  50  1  0.65222100  0.75995700  0.83324500  1
  H  51  1  0.69702400  0.74631400  0.78407200  1
  H  52  1  0.74077600  0.74274800  0.80391400  1
  H  53  1  0.70860600  0.69691000  0.82324800  1
  H  54  1  0.73618900  0.66010500  0.83880300  1
  H  55  1  0.76898100  0.73135400  0.85603100  1
  H  56  1  0.79176300  0.76340300  0.87263000  1
  H  57  1  0.71851100  0.80395900  0.82278200  1
  H  58  1  0.74714900  0.83856900  0.83967600  1
  H  59  1  0.72841000  0.85086600  0.87593700  1
  H  60  1  0.73161400  0.89827300  0.87730200  1
  H  61  1  0.83676800  0.84908200  0.85645300  1
  H  62  1  0.84015200  0.89657300  0.85768000  1
  H  63  1  0.80470700  0.83442000  0.89358300  1
  H  64  1  0.81979000  0.79753100  0.91135100  1
  H  65  1  0.81082600  0.65620600  0.88957500  1
  H  66  1  0.82784300  0.69083000  0.90854900  1
  H  67  1  0.87751800  0.75108500  0.91573900  1
  H  68  1  0.88465900  0.74796200  0.94159700  1
  H  69  1  0.76017900  0.73539200  0.91994300  1
  H  70  1  0.76708300  0.73211000  0.94554900  1
  H  71  1  0.72547100  0.64258600  0.87220700  1
  H  72  1  0.73074800  0.59523100  0.87367300  1
  H  73  1  0.84111900  0.59971500  0.85575800  1
  H  74  1  0.83546900  0.64698700  0.85424500  1
  H  79  1  0.81035200  0.72561500  0.96601600  1
  H  80  1  0.76320500  0.93946800  0.87124400  1
  H  81  1  0.60106100  0.77124900  0.78725200  1
  H  82  1  0.77228900  0.55604100  0.87358800  1
  H  131  1  0.60688000  0.73337400  0.18275000  1
  H  132  1  0.65030100  0.73694300  0.16298600  1
  H  133  1  0.69618000  0.74933400  0.21212000  1
  H  134  1  0.73971100  0.75274900  0.19219800  1
  H  135  1  0.70815700  0.79919100  0.17299400  1
  H  136  1  0.73595200  0.83587400  0.15738600  1
  H  137  1  0.76712100  0.76451500  0.13995400  1
  H  138  1  0.78878000  0.73250200  0.12344200  1
  H  139  1  0.71426100  0.69198500  0.17292700  1
  H  140  1  0.74312800  0.65729100  0.15618300  1
  H  141  1  0.72955000  0.64499800  0.11941300  1
  H  142  1  0.73280000  0.59759100  0.11808600  1
  H  143  1  0.83464500  0.64675500  0.14135100  1
  H  144  1  0.83807400  0.59925300  0.14014200  1
  H  145  1  0.81295000  0.66123600  0.10431800  1
  H  146  1  0.83185700  0.69797100  0.08694800  1
  H  147  1  0.81047800  0.83965100  0.10660300  1
  H  148  1  0.83074300  0.80498300  0.08818300  1
  H  149  1  0.88966900  0.75584600  0.08663200  1
  H  150  1  0.90879700  0.75986600  0.06175500  1
  H  151  1  0.77523400  0.74864800  0.07351900  1
  H  152  1  0.79404800  0.75262200  0.04877600  1
  H  153  1  0.72488100  0.85324100  0.12371700  1
  H  154  1  0.73024400  0.90062000  0.12233000  1
  H  155  1  0.84022100  0.89621600  0.14058400  1
  H  156  1  0.83449000  0.84893500  0.14201700  1
  H  161  1  0.88350400  0.77400900  0.03624600  1
  H  162  1  0.76274800  0.55636400  0.12541400  1
  H  163  1  0.59959800  0.72537500  0.20903300  1
  H  164  1  0.77177900  0.93990200  0.12264300  1
  H  213  1  0.05728000  0.26349500  0.18301800  1
  H  214  1  0.01352700  0.26006000  0.16335800  1
  H  215  1  0.96844200  0.24751100  0.21258700  1
  H  216  1  0.92456000  0.24422500  0.19276600  1
  H  217  1  0.95509700  0.19782200  0.17375200  1
  H  218  1  0.92674900  0.16107300  0.15836200  1
  H  219  1  0.89639700  0.23232300  0.14058700  1
  H  220  1  0.87540700  0.26420200  0.12375800  1
  H  221  1  0.94859600  0.30498500  0.17354400  1
  H  222  1  0.92067600  0.33959500  0.15649000  1
  H  223  1  0.93626300  0.35278500  0.11958800  1
  H  224  1  0.92992300  0.40000300  0.11742400  1
  H  225  1  0.83001500  0.34878300  0.14061000  1
  H  226  1  0.82343700  0.39594200  0.13850900  1
  H  227  1  0.86081000  0.33513900  0.10292700  1
  H  228  1  0.84505100  0.29817800  0.08528500  1
  H  229  1  0.85398400  0.15694100  0.10719900  1
  H  230  1  0.83777300  0.19145600  0.08807100  1
  H  231  1  0.78786300  0.25132400  0.08091800  1
  H  232  1  0.78055800  0.24800800  0.05507000  1
  H  233  1  0.90530600  0.23635500  0.07661400  1
  H  234  1  0.89823700  0.23288000  0.05101900  1
  H  235  1  0.93994200  0.14370700  0.12594700  1
  H  236  1  0.93636000  0.09624200  0.12562700  1
  H  237  1  0.82383400  0.10006200  0.14153300  1
  H  238  1  0.82773600  0.14756200  0.14183700  1
  H  243  1  0.85467300  0.22574600  0.03064500  1
  H  244  1  0.88831600  0.43913900  0.11830700  1
  H  245  1  0.06498800  0.27139300  0.20931000  1
  H  246  1  0.90258600  0.05562200  0.13151300  1
  H  295  1  0.05891900  0.23423000  0.81376500  1
  H  296  1  0.01542200  0.23752300  0.83351200  1
  H  297  1  0.96922800  0.24832800  0.78431500  1
  H  298  1  0.92561000  0.25146400  0.80422300  1
  H  299  1  0.95545200  0.29868500  0.82306200  1
  H  300  1  0.92682600  0.33523000  0.83847400  1
  H  301  1  0.89824900  0.26379900  0.85652000  1
  H  302  1  0.87892400  0.23186800  0.87344400  1
  H  303  1  0.95271900  0.19141900  0.82385600  1
  H  304  1  0.92460900  0.15663500  0.84078500  1
  H  305  1  0.93492600  0.14360300  0.87830900  1
  H  306  1  0.92844900  0.09639700  0.88043500  1
  H  307  1  0.83253800  0.14696600  0.85464700  1
  H  308  1  0.82578100  0.09980300  0.85672900  1
  H  309  1  0.85253000  0.16063400  0.89222700  1
  H  310  1  0.83319300  0.19736900  0.90949200  1
  H  311  1  0.85446200  0.33899600  0.88971200  1
  H  312  1  0.83527900  0.30437800  0.90835200  1
  H  313  1  0.77638000  0.25581900  0.90990900  1
  H  314  1  0.75721100  0.25990500  0.93477200  1
  H  315  1  0.89054900  0.24744600  0.92310300  1
  H  316  1  0.87169500  0.25148100  0.94783400  1
  H  317  1  0.94065700  0.35247100  0.87108500  1
  H  318  1  0.93706900  0.39993400  0.87138000  1
  H  319  1  0.82466400  0.39586600  0.85535000  1
  H  320  1  0.82857000  0.34838200  0.85507200  1
  H  325  1  0.78222900  0.27350700  0.96027400  1
  H  326  1  0.88819200  0.05692300  0.87834700  1
  H  327  1  0.06626000  0.22567700  0.78752200  1
  H  328  1  0.90329500  0.44047900  0.86551500  1
  H  377  1  0.11180800  0.26570800  0.31112300  1
  H  378  1  0.15278600  0.26183700  0.33167600  1
  H  379  1  0.20252800  0.24378400  0.28363600  1
  H  380  1  0.24358800  0.24021400  0.30427200  1
  H  381  1  0.20852600  0.19647700  0.32319600  1
  H  382  1  0.23601100  0.15968700  0.33876900  1
  H  383  1  0.26878600  0.23092500  0.35600600  1
  H  384  1  0.29176800  0.26296100  0.37260400  1
  H  385  1  0.21985300  0.30354100  0.32247900  1
  H  386  1  0.24826000  0.33810100  0.33945200  1
  H  387  1  0.22814300  0.35055400  0.37571600  1
  H  388  1  0.23154600  0.39795000  0.37709400  1
  H  389  1  0.33703200  0.34850300  0.35668100  1
  H  390  1  0.34061900  0.39598800  0.35792200  1
  H  391  1  0.30392100  0.33393000  0.39367400  1
  H  392  1  0.31893700  0.29701200  0.41143600  1
  H  393  1  0.31087100  0.15574400  0.38949500  1
  H  394  1  0.32781300  0.19034600  0.40849200  1
  H  395  1  0.37710700  0.25079900  0.41576000  1
  H  396  1  0.38423800  0.24767800  0.44161700  1
  H  397  1  0.25989300  0.23462500  0.41993500  1
  H  398  1  0.26678700  0.23135100  0.44554000  1
  H  399  1  0.22543700  0.14199100  0.37210400  1
  H  400  1  0.23090400  0.09464300  0.37352200  1
  H  401  1  0.34130900  0.09940800  0.35566200  1
  H  402  1  0.33546700  0.14667600  0.35419600  1
  H  407  1  0.30992600  0.22519000  0.46604300  1
  H  408  1  0.26355200  0.43906100  0.37125900  1
  H  409  1  0.11088500  0.27367300  0.28381400  1
  H  410  1  0.27262300  0.05554900  0.37343500  1
  H  459  1  0.11009000  0.23060700  0.68525600  1
  H  460  1  0.15080600  0.23416700  0.66460000  1
  H  461  1  0.20180700  0.25150900  0.71253800  1
  H  462  1  0.24258600  0.25474500  0.69180700  1
  H  463  1  0.20796700  0.29886600  0.67296500  1
  H  464  1  0.23571000  0.33548400  0.65732000  1
  H  465  1  0.26701100  0.26408000  0.63998200  1
  H  466  1  0.28894300  0.23204100  0.62352400  1
  H  467  1  0.21561800  0.19162600  0.67330800  1
  H  468  1  0.24425800  0.15693100  0.65651900  1
  H  469  1  0.22914300  0.14441600  0.61974200  1
  H  470  1  0.23256600  0.09701900  0.61841100  1
  H  471  1  0.33495000  0.14642800  0.64116600  1
  H  472  1  0.33855100  0.09893000  0.63995400  1
  H  473  1  0.31208400  0.16073500  0.60425500  1
  H  474  1  0.33099400  0.19744600  0.58687100  1
  H  475  1  0.31072600  0.33915900  0.60664300  1
  H  476  1  0.33095100  0.30446100  0.58823200  1
  H  477  1  0.38948700  0.25513900  0.58664700  1
  H  478  1  0.40866300  0.25915500  0.56177400  1
  H  479  1  0.27501700  0.24834000  0.57351600  1
  H  480  1  0.29387900  0.25230600  0.54877800  1
  H  481  1  0.22495700  0.35295000  0.62371400  1
  H  482  1  0.23051800  0.40032000  0.62237300  1
  H  483  1  0.34044600  0.39564200  0.64064500  1
  H  484  1  0.33451600  0.34836500  0.64203300  1
  H  489  1  0.38345700  0.27344100  0.53626600  1
  H  490  1  0.26298100  0.05586600  0.62551800  1
  H  491  1  0.10955000  0.22245700  0.71257400  1
  H  492  1  0.27221700  0.43951300  0.62272000  1
  H  541  1  0.55455100  0.76548500  0.68549400  1
  H  542  1  0.51356700  0.76192300  0.66491900  1
  H  543  1  0.46306700  0.74494100  0.71297000  1
  H  544  1  0.42200600  0.74169500  0.69231400  1
  H  545  1  0.45581300  0.69737400  0.67371200  1
  H  546  1  0.42760200  0.66063400  0.65830000  1
  H  547  1  0.39712100  0.73188000  0.64054800  1
  H  548  1  0.37598700  0.76376400  0.62372700  1
  H  549  1  0.44775200  0.80456400  0.67380300  1
  H  550  1  0.42010400  0.83913400  0.65667200  1
  H  551  1  0.43713900  0.85246300  0.61970200  1
  H  552  1  0.43068600  0.89967200  0.61754400  1
  H  553  1  0.33042300  0.84824000  0.64036300  1
  H  554  1  0.32373700  0.89539800  0.63826900  1
  H  555  1  0.36223000  0.83465700  0.60276200  1
  H  556  1  0.34654600  0.79766800  0.58512900  1
  H  557  1  0.35449900  0.65647900  0.60720200  1
  H  558  1  0.33836100  0.69098900  0.58806000  1
  H  559  1  0.28880600  0.75102000  0.58089700  1
  H  560  1  0.28135100  0.74766200  0.55505700  1
  H  561  1  0.40611600  0.73560700  0.57652200  1
  H  562  1  0.39889900  0.73209300  0.55093300  1
  H  563  1  0.44064900  0.64314100  0.62596300  1
  H  564  1  0.43696800  0.59567900  0.62570400  1
  H  565  1  0.32440200  0.59968000  0.64155000  1
  H  566  1  0.32840600  0.64718000  0.64179600  1
  H  571  1  0.35518300  0.72512400  0.53058300  1
  H  572  1  0.38885100  0.93872500  0.61828000  1
  H  573  1  0.55535200  0.77379800  0.71283100  1
  H  574  1  0.40310800  0.55512100  0.63162300  1
  H  623  1  0.55617200  0.73133300  0.31124200  1
  H  624  1  0.51551000  0.73468900  0.33192200  1
  H  625  1  0.46372300  0.75027600  0.28393700  1
  H  626  1  0.42299500  0.75329200  0.30469200  1
  H  627  1  0.45619600  0.79829600  0.32312800  1
  H  628  1  0.42769000  0.83481100  0.33856800  1
  H  629  1  0.39899300  0.76336300  0.35656800  1
  H  630  1  0.37929600  0.73141700  0.37341800  1
  H  631  1  0.45190500  0.69097000  0.32356000  1
  H  632  1  0.42407400  0.65620800  0.34055600  1
  H  633  1  0.43591200  0.64304400  0.37816300  1
  H  634  1  0.42934800  0.59584600  0.38029300  1
  H  635  1  0.33293400  0.64659000  0.35488700  1
  H  636  1  0.32609500  0.59942900  0.35697200  1
  H  637  1  0.35397600  0.66017400  0.39240400  1
  H  638  1  0.33456700  0.69691600  0.40964900  1
  H  639  1  0.35487100  0.83855600  0.38971400  1
  H  640  1  0.33563500  0.80392200  0.40833900  1
  H  641  1  0.27703900  0.75514500  0.40991500  1
  H  642  1  0.25779500  0.75925100  0.43476900  1
  H  643  1  0.39125900  0.74728200  0.42314500  1
  H  644  1  0.37232900  0.75133400  0.44786700  1
  H  645  1  0.44132500  0.85216000  0.37110500  1
  H  646  1  0.43763300  0.89961900  0.37133300  1
  H  647  1  0.32521700  0.89536300  0.35533500  1
  H  648  1  0.32923000  0.84787900  0.35511900  1
  H  653  1  0.28281300  0.77310500  0.46027500  1
  H  654  1  0.38882200  0.55645000  0.37837900  1
  H  655  1  0.55644500  0.72245700  0.28392500  1
  H  656  1  0.40378100  0.94010000  0.36543300  1
  H  662  1  0.79670500  0.76690400  0.98533200  1
  H  664  1  0.90760700  0.73694000  0.98526200  1
  H  666  1  0.76126200  0.77452900  0.00646700  1
  H  667  1  0.78979000  0.78392400  0.02132400  1
  H  668  1  0.77184600  0.75095200  0.02002700  1
  H  670  1  0.91533000  0.72802700  0.02503500  1
  H  671  1  0.94271900  0.74328200  0.01134400  1
  H  672  1  0.92442500  0.71067600  0.00889300  1
  H  680  1  0.86862300  0.26739400  0.01129800  1
  H  682  1  0.75796900  0.23676600  0.01133100  1
  H  684  1  0.90415400  0.27503800  0.99017400  1
  H  685  1  0.87567700  0.28409000  0.97525100  1
  H  686  1  0.89387200  0.25124200  0.97668300  1
  H  688  1  0.75061800  0.22744800  0.97157300  1
  H  689  1  0.72300100  0.24265300  0.98519500  1
  H  690  1  0.74154900  0.21017900  0.98775000  1
  H  698  1  0.29650600  0.26642500  0.48535100  1
  H  700  1  0.40734000  0.23634100  0.48525800  1
  H  702  1  0.26112300  0.27411600  0.50649100  1
  H  703  1  0.28969200  0.28349900  0.52133800  1
  H  704  1  0.27168900  0.25054200  0.52005500  1
  H  706  1  0.41514700  0.22750000  0.52503500  1
  H  707  1  0.44253500  0.24268400  0.51132000  1
  H  708  1  0.42414800  0.21009400  0.50890200  1
  H  716  1  0.36925100  0.76695900  0.51127800  1
  H  718  1  0.25860700  0.73631500  0.51133700  1
  H  720  1  0.40475300  0.77460800  0.49014900  1
  H  721  1  0.37625200  0.78366300  0.47523100  1
  H  722  1  0.39445100  0.75081400  0.47665900  1
  H  724  1  0.25118000  0.72702800  0.47157500  1
  H  725  1  0.22357900  0.74219600  0.48521500  1
  H  726  1  0.24216800  0.70972800  0.48774700  1
  H  734  1  0.87376600  0.96567200  0.85376200  1
  H  736  1  0.77612400  0.98323300  0.87788500  1
  H  738  1  0.91544400  0.99854500  0.84489000  1
  H  739  1  0.92024800  0.02506100  0.85725800  1
  H  740  1  0.89269300  0.02909100  0.84129200  1
  H  742  1  0.78935200  0.05620500  0.87844400  1
  H  743  1  0.77907000  0.03035800  0.89072500  1
  H  744  1  0.75308400  0.03323100  0.87433200  1
  H  752  1  0.87339400  0.53034600  0.14278600  1
  H  754  1  0.77578400  0.51270700  0.11862400  1
  H  756  1  0.91501200  0.49751600  0.15164800  1
  H  757  1  0.91989400  0.47108300  0.13923900  1
  H  758  1  0.89226900  0.46689800  0.15518000  1
  H  760  1  0.78900900  0.43976700  0.11795500  1
  H  761  1  0.77870400  0.46566700  0.10572500  1
  H  762  1  0.75273500  0.46263700  0.12211500  1
  H  770  1  0.79057200  0.03054600  0.14672800  1
  H  772  1  0.88707800  0.01318500  0.12193300  1
  H  774  1  0.74913700  0.99768000  0.15571800  1
  H  775  1  0.74309400  0.97174300  0.14307800  1
  H  776  1  0.77143900  0.96678100  0.15876500  1
  H  778  1  0.87279800  0.94029100  0.12067900  1
  H  779  1  0.88306400  0.96655000  0.10866400  1
  H  780  1  0.90959300  0.96280800  0.12487700  1
  H  788  1  0.79150600  0.46518100  0.84986700  1
  H  790  1  0.88771600  0.48304900  0.87476200  1
  H  792  1  0.75014000  0.49784700  0.84070500  1
  H  793  1  0.74391800  0.52389100  0.85325900  1
  H  794  1  0.77243000  0.52877700  0.83760400  1
  H  796  1  0.87335000  0.55591400  0.87576900  1
  H  797  1  0.88351200  0.52980200  0.88787800  1
  H  798  1  0.91021100  0.53344400  0.87169700  1
  H  806  1  0.37418700  0.46519000  0.35382500  1
  H  808  1  0.27655700  0.48278700  0.37794300  1
  H  810  1  0.41590900  0.49804400  0.34496600  1
  H  811  1  0.42074800  0.52454200  0.35734400  1
  H  812  1  0.39320400  0.52861000  0.34137800  1
  H  814  1  0.28988300  0.55574700  0.37853300  1
  H  815  1  0.27954700  0.52988800  0.39079900  1
  H  816  1  0.25358500  0.53280500  0.37440400  1
  H  824  1  0.37374900  0.02990500  0.64276500  1
  H  826  1  0.27613100  0.01227300  0.61860900  1
  H  828  1  0.41540900  0.99707900  0.65159800  1
  H  829  1  0.42031700  0.97068300  0.63916800  1
  H  830  1  0.39271000  0.96643800  0.65511000  1
  H  832  1  0.28944500  0.93934200  0.61787900  1
  H  833  1  0.27908400  0.96527300  0.60567500  1
  H  834  1  0.25314800  0.96217800  0.62207000  1
  H  842  1  0.29106700  0.53009900  0.64683400  1
  H  844  1  0.38758700  0.51267300  0.62206300  1
  H  846  1  0.24959500  0.49725700  0.65582600  1
  H  847  1  0.24353700  0.47132000  0.64318600  1
  H  848  1  0.27185600  0.46634700  0.65887800  1
  H  850  1  0.37325000  0.43978400  0.62082700  1
  H  851  1  0.38354500  0.46602900  0.60880600  1
  H  852  1  0.41005500  0.46229300  0.62502300  1
  H  860  1  0.29199000  0.96472700  0.34973700  1
  H  862  1  0.38818000  0.98270100  0.37461800  1
  H  864  1  0.25059800  0.99735200  0.34055100  1
  H  865  1  0.24432700  0.02340500  0.35309600  1
  H  866  1  0.27283600  0.02829600  0.33744200  1
  H  868  1  0.37373200  0.05555700  0.37558200  1
  H  869  1  0.38392000  0.02947600  0.38770800  1
  H  870  1  0.41061500  0.03309700  0.37152400  1
  H  878  1  0.64497000  0.72974900  0.74869000  1
  H  880  1  0.55207400  0.76142900  0.77117300  1
  H  882  1  0.64200200  0.71680000  0.72420600  1
  H  883  1  0.61440100  0.73929500  0.71404000  1
  H  884  1  0.59605700  0.70740500  0.71854100  1
  H  886  1  0.48565700  0.76232300  0.74020200  1
  H  887  1  0.50107100  0.78415200  0.75392700  1
  H  888  1  0.48636700  0.75134100  0.75831700  1
  H  896  1  0.64489600  0.76638000  0.24762300  1
  H  898  1  0.55144400  0.73453100  0.22547300  1
  H  900  1  0.64249600  0.77940100  0.27210000  1
  H  901  1  0.61521600  0.75683000  0.28237400  1
  H  902  1  0.59668100  0.78865900  0.27793700  1
  H  904  1  0.48578200  0.73352100  0.25666900  1
  H  905  1  0.50085800  0.71173400  0.24288300  1
  H  906  1  0.48606000  0.74452400  0.23855500  1
  H  914  1  0.02049400  0.23014300  0.24792300  1
  H  916  1  0.11367100  0.26166700  0.22546900  1
  H  918  1  0.02336800  0.21706000  0.27238800  1
  H  919  1  0.05129600  0.23936700  0.28258300  1
  H  920  1  0.06921700  0.20743200  0.27800700  1
  H  922  1  0.18016500  0.26214000  0.25641700  1
  H  923  1  0.16494700  0.28410800  0.24274100  1
  H  924  1  0.17930400  0.25128400  0.23828100  1
  H  932  1  0.02066500  0.26616900  0.74880900  1
  H  934  1  0.11416800  0.23465200  0.77099400  1
  H  936  1  0.02306200  0.27912900  0.72432000  1
  H  937  1  0.05048100  0.25666000  0.71406700  1
  H  938  1  0.06885400  0.28857400  0.71850100  1
  H  940  1  0.17987500  0.23381000  0.73981400  1
  H  941  1  0.16482500  0.21199900  0.75360600  1
  H  942  1  0.17955100  0.24483600  0.75792400  1
  H  993  1  0.32457800  0.76366200  0.81356300  1
  H  994  1  0.36820600  0.75995700  0.83324500  1
  H  995  1  0.41300900  0.74631400  0.78407200  1
  H  996  1  0.45676100  0.74274800  0.80391400  1
  H  997  1  0.42459100  0.69691000  0.82324800  1
  H  998  1  0.45217400  0.66010500  0.83880300  1
  H  999  1  0.48496600  0.73135400  0.85603100  1
  H  1000  1  0.50774800  0.76340300  0.87263000  1
  H  1001  1  0.43449600  0.80395900  0.82278200  1
  H  1002  1  0.46313400  0.83856900  0.83967600  1
  H  1003  1  0.44439500  0.85086600  0.87593700  1
  H  1004  1  0.44759900  0.89827300  0.87730200  1
  H  1005  1  0.55275300  0.84908200  0.85645300  1
  H  1006  1  0.55613700  0.89657300  0.85768000  1
  H  1007  1  0.52069200  0.83442000  0.89358300  1
  H  1008  1  0.53577500  0.79753100  0.91135100  1
  H  1009  1  0.52681100  0.65620600  0.88957500  1
  H  1010  1  0.54382800  0.69083000  0.90854900  1
  H  1011  1  0.59350300  0.75108500  0.91573900  1
  H  1012  1  0.60064400  0.74796200  0.94159700  1
  H  1013  1  0.47616400  0.73539200  0.91994300  1
  H  1014  1  0.48306800  0.73211000  0.94554900  1
  H  1015  1  0.44145600  0.64258600  0.87220700  1
  H  1016  1  0.44673300  0.59523100  0.87367300  1
  H  1017  1  0.55710400  0.59971500  0.85575800  1
  H  1018  1  0.55145400  0.64698700  0.85424500  1
  H  1023  1  0.52633700  0.72561500  0.96601600  1
  H  1024  1  0.47919000  0.93946800  0.87124400  1
  H  1025  1  0.31704600  0.77124900  0.78725200  1
  H  1026  1  0.48827400  0.55604100  0.87358800  1
  H  1075  1  0.32286500  0.73337400  0.18275000  1
  H  1076  1  0.36628600  0.73694300  0.16298600  1
  H  1077  1  0.41216500  0.74933400  0.21212000  1
  H  1078  1  0.45569600  0.75274900  0.19219800  1
  H  1079  1  0.42414200  0.79919100  0.17299400  1
  H  1080  1  0.45193700  0.83587400  0.15738600  1
  H  1081  1  0.48310600  0.76451500  0.13995400  1
  H  1082  1  0.50476500  0.73250200  0.12344200  1
  H  1083  1  0.43024600  0.69198500  0.17292700  1
  H  1084  1  0.45911300  0.65729100  0.15618300  1
  H  1085  1  0.44553500  0.64499800  0.11941300  1
  H  1086  1  0.44878500  0.59759100  0.11808600  1
  H  1087  1  0.55063000  0.64675500  0.14135100  1
  H  1088  1  0.55405900  0.59925300  0.14014200  1
  H  1089  1  0.52893500  0.66123600  0.10431800  1
  H  1090  1  0.54784200  0.69797100  0.08694800  1
  H  1091  1  0.52646300  0.83965100  0.10660300  1
  H  1092  1  0.54672800  0.80498300  0.08818300  1
  H  1093  1  0.60565400  0.75584600  0.08663200  1
  H  1094  1  0.62478200  0.75986600  0.06175500  1
  H  1095  1  0.49121900  0.74864800  0.07351900  1
  H  1096  1  0.51003300  0.75262200  0.04877600  1
  H  1097  1  0.44086600  0.85324100  0.12371700  1
  H  1098  1  0.44622900  0.90062000  0.12233000  1
  H  1099  1  0.55620600  0.89621600  0.14058400  1
  H  1100  1  0.55047500  0.84893500  0.14201700  1
  H  1105  1  0.59948900  0.77400900  0.03624600  1
  H  1106  1  0.47873300  0.55636400  0.12541400  1
  H  1107  1  0.31558300  0.72537500  0.20903300  1
  H  1108  1  0.48776400  0.93990200  0.12264300  1
  H  1157  1  0.77326500  0.26349500  0.18301800  1
  H  1158  1  0.72951200  0.26006000  0.16335800  1
  H  1159  1  0.68442700  0.24751100  0.21258700  1
  H  1160  1  0.64054500  0.24422500  0.19276600  1
  H  1161  1  0.67108200  0.19782200  0.17375200  1
  H  1162  1  0.64273400  0.16107300  0.15836200  1
  H  1163  1  0.61238200  0.23232300  0.14058700  1
  H  1164  1  0.59139200  0.26420200  0.12375800  1
  H  1165  1  0.66458100  0.30498500  0.17354400  1
  H  1166  1  0.63666100  0.33959500  0.15649000  1
  H  1167  1  0.65224800  0.35278500  0.11958800  1
  H  1168  1  0.64590800  0.40000300  0.11742400  1
  H  1169  1  0.54600000  0.34878300  0.14061000  1
  H  1170  1  0.53942200  0.39594200  0.13850900  1
  H  1171  1  0.57679500  0.33513900  0.10292700  1
  H  1172  1  0.56103600  0.29817800  0.08528500  1
  H  1173  1  0.56996900  0.15694100  0.10719900  1
  H  1174  1  0.55375800  0.19145600  0.08807100  1
  H  1175  1  0.50384800  0.25132400  0.08091800  1
  H  1176  1  0.49654300  0.24800800  0.05507000  1
  H  1177  1  0.62129100  0.23635500  0.07661400  1
  H  1178  1  0.61422200  0.23288000  0.05101900  1
  H  1179  1  0.65592700  0.14370700  0.12594700  1
  H  1180  1  0.65234500  0.09624200  0.12562700  1
  H  1181  1  0.53981900  0.10006200  0.14153300  1
  H  1182  1  0.54372100  0.14756200  0.14183700  1
  H  1187  1  0.57065800  0.22574600  0.03064500  1
  H  1188  1  0.60430100  0.43913900  0.11830700  1
  H  1189  1  0.78097300  0.27139300  0.20931000  1
  H  1190  1  0.61857100  0.05562200  0.13151300  1
  H  1239  1  0.77490400  0.23423000  0.81376500  1
  H  1240  1  0.73140700  0.23752300  0.83351200  1
  H  1241  1  0.68521300  0.24832800  0.78431500  1
  H  1242  1  0.64159500  0.25146400  0.80422300  1
  H  1243  1  0.67143700  0.29868500  0.82306200  1
  H  1244  1  0.64281100  0.33523000  0.83847400  1
  H  1245  1  0.61423400  0.26379900  0.85652000  1
  H  1246  1  0.59490900  0.23186800  0.87344400  1
  H  1247  1  0.66870400  0.19141900  0.82385600  1
  H  1248  1  0.64059400  0.15663500  0.84078500  1
  H  1249  1  0.65091100  0.14360300  0.87830900  1
  H  1250  1  0.64443400  0.09639700  0.88043500  1
  H  1251  1  0.54852300  0.14696600  0.85464700  1
  H  1252  1  0.54176600  0.09980300  0.85672900  1
  H  1253  1  0.56851500  0.16063400  0.89222700  1
  H  1254  1  0.54917800  0.19736900  0.90949200  1
  H  1255  1  0.57044700  0.33899600  0.88971200  1
  H  1256  1  0.55126400  0.30437800  0.90835200  1
  H  1257  1  0.49236500  0.25581900  0.90990900  1
  H  1258  1  0.47319600  0.25990500  0.93477200  1
  H  1259  1  0.60653400  0.24744600  0.92310300  1
  H  1260  1  0.58768000  0.25148100  0.94783400  1
  H  1261  1  0.65664200  0.35247100  0.87108500  1
  H  1262  1  0.65305400  0.39993400  0.87138000  1
  H  1263  1  0.54064900  0.39586600  0.85535000  1
  H  1264  1  0.54455500  0.34838200  0.85507200  1
  H  1269  1  0.49821400  0.27350700  0.96027400  1
  H  1270  1  0.60417700  0.05692300  0.87834700  1
  H  1271  1  0.78224500  0.22567700  0.78752200  1
  H  1272  1  0.61928000  0.44047900  0.86551500  1
  H  1321  1  0.82779300  0.26570800  0.31112300  1
  H  1322  1  0.86877100  0.26183700  0.33167600  1
  H  1323  1  0.91851290  0.24378400  0.28363600  1
  H  1324  1  0.95957290  0.24021400  0.30427200  1
  H  1325  1  0.92451090  0.19647700  0.32319600  1
  H  1326  1  0.95199590  0.15968700  0.33876900  1
  H  1327  1  0.98477090  0.23092500  0.35600600  1
  H  1328  1  0.00775300  0.26296100  0.37260400  1
  H  1329  1  0.93583790  0.30354100  0.32247900  1
  H  1330  1  0.96424490  0.33810100  0.33945200  1
  H  1331  1  0.94412790  0.35055400  0.37571600  1
  H  1332  1  0.94753090  0.39795000  0.37709400  1
  H  1333  1  0.05301700  0.34850300  0.35668100  1
  H  1334  1  0.05660400  0.39598800  0.35792200  1
  H  1335  1  0.01990600  0.33393000  0.39367400  1
  H  1336  1  0.03492200  0.29701200  0.41143600  1
  H  1337  1  0.02685600  0.15574400  0.38949500  1
  H  1338  1  0.04379800  0.19034600  0.40849200  1
  H  1339  1  0.09309200  0.25079900  0.41576000  1
  H  1340  1  0.10022300  0.24767800  0.44161700  1
  H  1341  1  0.97587790  0.23462500  0.41993500  1
  H  1342  1  0.98277190  0.23135100  0.44554000  1
  H  1343  1  0.94142190  0.14199100  0.37210400  1
  H  1344  1  0.94688890  0.09464300  0.37352200  1
  H  1345  1  0.05729400  0.09940800  0.35566200  1
  H  1346  1  0.05145200  0.14667600  0.35419600  1
  H  1351  1  0.02591100  0.22519000  0.46604300  1
  H  1352  1  0.97953690  0.43906100  0.37125900  1
  H  1353  1  0.82687000  0.27367300  0.28381400  1
  H  1354  1  0.98860790  0.05554900  0.37343500  1
  H  1403  1  0.82607500  0.23060700  0.68525600  1
  H  1404  1  0.86679100  0.23416700  0.66460000  1
  H  1405  1  0.91779190  0.25150900  0.71253800  1
  H  1406  1  0.95857090  0.25474500  0.69180700  1
  H  1407  1  0.92395190  0.29886600  0.67296500  1
  H  1408  1  0.95169490  0.33548400  0.65732000  1
  H  1409  1  0.98299590  0.26408000  0.63998200  1
  H  1410  1  0.00492800  0.23204100  0.62352400  1
  H  1411  1  0.93160290  0.19162600  0.67330800  1
  H  1412  1  0.96024290  0.15693100  0.65651900  1
  H  1413  1  0.94512790  0.14441600  0.61974200  1
  H  1414  1  0.94855090  0.09701900  0.61841100  1
  H  1415  1  0.05093500  0.14642800  0.64116600  1
  H  1416  1  0.05453600  0.09893000  0.63995400  1
  H  1417  1  0.02806900  0.16073500  0.60425500  1
  H  1418  1  0.04697900  0.19744600  0.58687100  1
  H  1419  1  0.02671100  0.33915900  0.60664300  1
  H  1420  1  0.04693600  0.30446100  0.58823200  1
  H  1421  1  0.10547200  0.25513900  0.58664700  1
  H  1422  1  0.12464800  0.25915500  0.56177400  1
  H  1423  1  0.99100194  0.24834000  0.57351600  1
  H  1424  1  0.00986400  0.25230600  0.54877800  1
  H  1425  1  0.94094190  0.35295000  0.62371400  1
  H  1426  1  0.94650290  0.40032000  0.62237300  1
  H  1427  1  0.05643100  0.39564200  0.64064500  1
  H  1428  1  0.05050100  0.34836500  0.64203300  1
  H  1433  1  0.09944200  0.27344100  0.53626600  1
  H  1434  1  0.97896590  0.05586600  0.62551800  1
  H  1435  1  0.82553500  0.22245700  0.71257400  1
  H  1436  1  0.98820190  0.43951300  0.62272000  1
  H  1485  1  0.27053600  0.76548500  0.68549400  1
  H  1486  1  0.22955200  0.76192300  0.66491900  1
  H  1487  1  0.17905200  0.74494100  0.71297000  1
  H  1488  1  0.13799100  0.74169500  0.69231400  1
  H  1489  1  0.17179800  0.69737400  0.67371200  1
  H  1490  1  0.14358700  0.66063400  0.65830000  1
  H  1491  1  0.11310600  0.73188000  0.64054800  1
  H  1492  1  0.09197200  0.76376400  0.62372700  1
  H  1493  1  0.16373700  0.80456400  0.67380300  1
  H  1494  1  0.13608900  0.83913400  0.65667200  1
  H  1495  1  0.15312400  0.85246300  0.61970200  1
  H  1496  1  0.14667100  0.89967200  0.61754400  1
  H  1497  1  0.04640800  0.84824000  0.64036300  1
  H  1498  1  0.03972200  0.89539800  0.63826900  1
  H  1499  1  0.07821500  0.83465700  0.60276200  1
  H  1500  1  0.06253100  0.79766800  0.58512900  1
  H  1501  1  0.07048400  0.65647900  0.60720200  1
  H  1502  1  0.05434600  0.69098900  0.58806000  1
  H  1503  1  0.00479100  0.75102000  0.58089700  1
  H  1504  1  0.99733594  0.74766200  0.55505700  1
  H  1505  1  0.12210100  0.73560700  0.57652200  1
  H  1506  1  0.11488400  0.73209300  0.55093300  1
  H  1507  1  0.15663400  0.64314100  0.62596300  1
  H  1508  1  0.15295300  0.59567900  0.62570400  1
  H  1509  1  0.04038700  0.59968000  0.64155000  1
  H  1510  1  0.04439100  0.64718000  0.64179600  1
  H  1515  1  0.07116800  0.72512400  0.53058300  1
  H  1516  1  0.10483600  0.93872500  0.61828000  1
  H  1517  1  0.27133700  0.77379800  0.71283100  1
  H  1518  1  0.11909300  0.55512100  0.63162300  1
  H  1567  1  0.27215700  0.73133300  0.31124200  1
  H  1568  1  0.23149500  0.73468900  0.33192200  1
  H  1569  1  0.17970800  0.75027600  0.28393700  1
  H  1570  1  0.13898000  0.75329200  0.30469200  1
  H  1571  1  0.17218100  0.79829600  0.32312800  1
  H  1572  1  0.14367500  0.83481100  0.33856800  1
  H  1573  1  0.11497800  0.76336300  0.35656800  1
  H  1574  1  0.09528100  0.73141700  0.37341800  1
  H  1575  1  0.16789000  0.69097000  0.32356000  1
  H  1576  1  0.14005900  0.65620800  0.34055600  1
  H  1577  1  0.15189700  0.64304400  0.37816300  1
  H  1578  1  0.14533300  0.59584600  0.38029300  1
  H  1579  1  0.04891900  0.64659000  0.35488700  1
  H  1580  1  0.04208000  0.59942900  0.35697200  1
  H  1581  1  0.06996100  0.66017400  0.39240400  1
  H  1582  1  0.05055200  0.69691600  0.40964900  1
  H  1583  1  0.07085600  0.83855600  0.38971400  1
  H  1584  1  0.05162000  0.80392200  0.40833900  1
  H  1585  1  0.99302394  0.75514500  0.40991500  1
  H  1586  1  0.97377990  0.75925100  0.43476900  1
  H  1587  1  0.10724400  0.74728200  0.42314500  1
  H  1588  1  0.08831400  0.75133400  0.44786700  1
  H  1589  1  0.15731000  0.85216000  0.37110500  1
  H  1590  1  0.15361800  0.89961900  0.37133300  1
  H  1591  1  0.04120200  0.89536300  0.35533500  1
  H  1592  1  0.04521500  0.84787900  0.35511900  1
  H  1597  1  0.99879794  0.77310500  0.46027500  1
  H  1598  1  0.10480700  0.55645000  0.37837900  1
  H  1599  1  0.27243000  0.72245700  0.28392500  1
  H  1600  1  0.11976600  0.94010000  0.36543300  1
  H  1606  1  0.51269000  0.76690400  0.98533200  1
  H  1608  1  0.62359200  0.73694000  0.98526200  1
  H  1610  1  0.47724700  0.77452900  0.00646700  1
  H  1611  1  0.50577500  0.78392400  0.02132400  1
  H  1612  1  0.48783100  0.75095200  0.02002700  1
  H  1614  1  0.63131500  0.72802700  0.02503500  1
  H  1615  1  0.65870400  0.74328200  0.01134400  1
  H  1616  1  0.64041000  0.71067600  0.00889300  1
  H  1624  1  0.58460800  0.26739400  0.01129800  1
  H  1626  1  0.47395400  0.23676600  0.01133100  1
  H  1628  1  0.62013900  0.27503800  0.99017400  1
  H  1629  1  0.59166200  0.28409000  0.97525100  1
  H  1630  1  0.60985700  0.25124200  0.97668300  1
  H  1632  1  0.46660300  0.22744800  0.97157300  1
  H  1633  1  0.43898600  0.24265300  0.98519500  1
  H  1634  1  0.45753400  0.21017900  0.98775000  1
  H  1642  1  0.01249100  0.26642500  0.48535100  1
  H  1644  1  0.12332500  0.23634100  0.48525800  1
  H  1646  1  0.97710790  0.27411600  0.50649100  1
  H  1647  1  0.00567700  0.28349900  0.52133800  1
  H  1648  1  0.98767390  0.25054200  0.52005500  1
  H  1650  1  0.13113200  0.22750000  0.52503500  1
  H  1651  1  0.15852000  0.24268400  0.51132000  1
  H  1652  1  0.14013300  0.21009400  0.50890200  1
  H  1660  1  0.08523600  0.76695900  0.51127800  1
  H  1662  1  0.97459190  0.73631500  0.51133700  1
  H  1664  1  0.12073800  0.77460800  0.49014900  1
  H  1665  1  0.09223700  0.78366300  0.47523100  1
  H  1666  1  0.11043600  0.75081400  0.47665900  1
  H  1668  1  0.96716490  0.72702800  0.47157500  1
  H  1669  1  0.93956390  0.74219600  0.48521500  1
  H  1670  1  0.95815290  0.70972800  0.48774700  1
  H  1678  1  0.58975100  0.96567200  0.85376200  1
  H  1680  1  0.49210900  0.98323300  0.87788500  1
  H  1682  1  0.63142900  0.99854500  0.84489000  1
  H  1683  1  0.63623300  0.02506100  0.85725800  1
  H  1684  1  0.60867800  0.02909100  0.84129200  1
  H  1686  1  0.50533700  0.05620500  0.87844400  1
  H  1687  1  0.49505500  0.03035800  0.89072500  1
  H  1688  1  0.46906900  0.03323100  0.87433200  1
  H  1696  1  0.58937900  0.53034600  0.14278600  1
  H  1698  1  0.49176900  0.51270700  0.11862400  1
  H  1700  1  0.63099700  0.49751600  0.15164800  1
  H  1701  1  0.63587900  0.47108300  0.13923900  1
  H  1702  1  0.60825400  0.46689800  0.15518000  1
  H  1704  1  0.50499400  0.43976700  0.11795500  1
  H  1705  1  0.49468900  0.46566700  0.10572500  1
  H  1706  1  0.46872000  0.46263700  0.12211500  1
  H  1714  1  0.50655700  0.03054600  0.14672800  1
  H  1716  1  0.60306300  0.01318500  0.12193300  1
  H  1718  1  0.46512200  0.99768000  0.15571800  1
  H  1719  1  0.45907900  0.97174300  0.14307800  1
  H  1720  1  0.48742400  0.96678100  0.15876500  1
  H  1722  1  0.58878300  0.94029100  0.12067900  1
  H  1723  1  0.59904900  0.96655000  0.10866400  1
  H  1724  1  0.62557800  0.96280800  0.12487700  1
  H  1732  1  0.50749100  0.46518100  0.84986700  1
  H  1734  1  0.60370100  0.48304900  0.87476200  1
  H  1736  1  0.46612500  0.49784700  0.84070500  1
  H  1737  1  0.45990300  0.52389100  0.85325900  1
  H  1738  1  0.48841500  0.52877700  0.83760400  1
  H  1740  1  0.58933500  0.55591400  0.87576900  1
  H  1741  1  0.59949700  0.52980200  0.88787800  1
  H  1742  1  0.62619600  0.53344400  0.87169700  1
  H  1750  1  0.09017200  0.46519000  0.35382500  1
  H  1752  1  0.99254194  0.48278700  0.37794300  1
  H  1754  1  0.13189400  0.49804400  0.34496600  1
  H  1755  1  0.13673300  0.52454200  0.35734400  1
  H  1756  1  0.10918900  0.52861000  0.34137800  1
  H  1758  1  0.00586800  0.55574700  0.37853300  1
  H  1759  1  0.99553194  0.52988800  0.39079900  1
  H  1760  1  0.96956990  0.53280500  0.37440400  1
  H  1768  1  0.08973400  0.02990500  0.64276500  1
  H  1770  1  0.99211594  0.01227300  0.61860900  1
  H  1772  1  0.13139400  0.99707900  0.65159800  1
  H  1773  1  0.13630200  0.97068300  0.63916800  1
  H  1774  1  0.10869500  0.96643800  0.65511000  1
  H  1776  1  0.00543000  0.93934200  0.61787900  1
  H  1777  1  0.99506894  0.96527300  0.60567500  1
  H  1778  1  0.96913290  0.96217800  0.62207000  1
  H  1786  1  0.00705200  0.53009900  0.64683400  1
  H  1788  1  0.10357200  0.51267300  0.62206300  1
  H  1790  1  0.96557990  0.49725700  0.65582600  1
  H  1791  1  0.95952190  0.47132000  0.64318600  1
  H  1792  1  0.98784090  0.46634700  0.65887800  1
  H  1794  1  0.08923500  0.43978400  0.62082700  1
  H  1795  1  0.09953000  0.46602900  0.60880600  1
  H  1796  1  0.12604000  0.46229300  0.62502300  1
  H  1804  1  0.00797500  0.96472700  0.34973700  1
  H  1806  1  0.10416500  0.98270100  0.37461800  1
  H  1808  1  0.96658290  0.99735200  0.34055100  1
  H  1809  1  0.96031190  0.02340500  0.35309600  1
  H  1810  1  0.98882090  0.02829600  0.33744200  1
  H  1812  1  0.08971700  0.05555700  0.37558200  1
  H  1813  1  0.09990500  0.02947600  0.38770800  1
  H  1814  1  0.12660000  0.03309700  0.37152400  1
  H  1822  1  0.36095500  0.72974900  0.74869000  1
  H  1824  1  0.26805900  0.76142900  0.77117300  1
  H  1826  1  0.35798700  0.71680000  0.72420600  1
  H  1827  1  0.33038600  0.73929500  0.71404000  1
  H  1828  1  0.31204200  0.70740500  0.71854100  1
  H  1830  1  0.20164200  0.76232300  0.74020200  1
  H  1831  1  0.21705600  0.78415200  0.75392700  1
  H  1832  1  0.20235200  0.75134100  0.75831700  1
  H  1840  1  0.36088100  0.76638000  0.24762300  1
  H  1842  1  0.26742900  0.73453100  0.22547300  1
  H  1844  1  0.35848100  0.77940100  0.27210000  1
  H  1845  1  0.33120100  0.75683000  0.28237400  1
  H  1846  1  0.31266600  0.78865900  0.27793700  1
  H  1848  1  0.20176700  0.73352100  0.25666900  1
  H  1849  1  0.21684300  0.71173400  0.24288300  1
  H  1850  1  0.20204500  0.74452400  0.23855500  1
  H  1858  1  0.73647900  0.23014300  0.24792300  1
  H  1860  1  0.82965600  0.26166700  0.22546900  1
  H  1862  1  0.73935300  0.21706000  0.27238800  1
  H  1863  1  0.76728100  0.23936700  0.28258300  1
  H  1864  1  0.78520200  0.20743200  0.27800700  1
  H  1866  1  0.89615000  0.26214000  0.25641700  1
  H  1867  1  0.88093200  0.28410800  0.24274100  1
  H  1868  1  0.89528900  0.25128400  0.23828100  1
  H  1876  1  0.73665000  0.26616900  0.74880900  1
  H  1878  1  0.83015300  0.23465200  0.77099400  1
  H  1880  1  0.73904700  0.27912900  0.72432000  1
  H  1881  1  0.76646600  0.25666000  0.71406700  1
  H  1882  1  0.78483900  0.28857400  0.71850100  1
  H  1884  1  0.89586000  0.23381000  0.73981400  1
  H  1885  1  0.88081000  0.21199900  0.75360600  1
  H  1886  1  0.89553600  0.24483600  0.75792400  1
  C  1  1  0.72486800  0.70003200  0.83225600  1
  C  2  1  0.74019500  0.67996200  0.84064400  1
  C  3  1  0.76004200  0.69166400  0.85209400  1
  C  5  1  0.73587200  0.72447900  0.83814600  1
  C  6  1  0.72625400  0.74988700  0.83239400  1
  C  7  1  0.73823400  0.77460700  0.83835000  1
  C  9  1  0.76351800  0.80514900  0.85324200  1
  C  10  1  0.74800800  0.81848600  0.84137300  1
  C  11  1  0.73200700  0.79971000  0.83230300  1
  C  12  1  0.78057600  0.81721500  0.86555000  1
  C  13  1  0.79310300  0.80299400  0.87798900  1
  C  15  1  0.80699400  0.77014500  0.89376800  1
  C  16  1  0.81170900  0.79449400  0.90085100  1
  C  17  1  0.80394300  0.81460800  0.89111100  1
  C  18  1  0.81278300  0.74474700  0.90018900  1
  C  19  1  0.80850100  0.72009200  0.89286200  1
  C  21  1  0.79351800  0.68960200  0.87612000  1
  C  22  1  0.80835900  0.67628900  0.88813700  1
  C  23  1  0.81697200  0.69504700  0.89854600  1
  C  24  1  0.77831600  0.67750200  0.86347300  1
  C  25  1  0.77959100  0.64914400  0.86275100  1
  C  26  1  0.81285400  0.63615300  0.85797900  1
  C  27  1  0.81609900  0.60828200  0.85891000  1
  C  28  1  0.78629000  0.59254600  0.86470000  1
  C  29  1  0.75282200  0.60575000  0.86925700  1
  C  30  1  0.74951600  0.63362100  0.86834500  1
  C  31  1  0.81821800  0.74359300  0.91547800  1
  C  32  1  0.85416200  0.74723200  0.92199600  1
  C  33  1  0.85826300  0.74541900  0.93716300  1
  C  34  1  0.82659500  0.73972700  0.94610700  1
  C  35  1  0.79073400  0.73613700  0.93946100  1
  C  36  1  0.78655300  0.73814000  0.92438300  1
  C  37  1  0.78220000  0.84558400  0.86600100  1
  C  38  1  0.75200200  0.86036400  0.87201200  1
  C  39  1  0.75406800  0.88829200  0.87282100  1
  C  40  1  0.78626100  0.90237100  0.86765700  1
  C  41  1  0.81638400  0.88732100  0.86160800  1
  C  42  1  0.81443900  0.85934900  0.86081700  1
  C  43  1  0.70055700  0.75088000  0.82042700  1
  C  44  1  0.66190800  0.75680300  0.82293000  1
  C  45  1  0.71285200  0.74683100  0.80602600  1
  C  46  1  0.68704900  0.74885100  0.79439000  1
  C  47  1  0.64835800  0.75513800  0.79683600  1
  C  48  1  0.63628500  0.75900000  0.81131000  1
  C  75  1  0.82909100  0.73742600  0.96104800  1
  C  76  1  0.78700500  0.93011100  0.86851200  1
  C  77  1  0.62243600  0.75869000  0.78562700  1
  C  78  1  0.78978200  0.56514300  0.86669100  1
  C  83  1  0.72430800  0.79600000  0.16396700  1
  C  84  1  0.73985000  0.81600700  0.15557100  1
  C  85  1  0.75928000  0.80423800  0.14404800  1
  C  87  1  0.73482200  0.77150800  0.15803000  1
  C  88  1  0.72466200  0.74614500  0.16373900  1
  C  89  1  0.73617300  0.72134400  0.15776600  1
  C  91  1  0.76167700  0.69070700  0.14300400  1
  C  92  1  0.74463700  0.67738200  0.15457900  1
  C  93  1  0.72864300  0.69622300  0.16359200  1
  C  94  1  0.78001600  0.67863000  0.13097900  1
  C  95  1  0.79493800  0.69280100  0.11889700  1
  C  97  1  0.81187500  0.72550500  0.10343400  1
  C  98  1  0.82015200  0.70108700  0.09693400  1
  C  99  1  0.81023700  0.68108700  0.10646800  1
  C  100  1  0.81852300  0.75082900  0.09703300  1
  C  101  1  0.81151100  0.77563700  0.10388600  1
  C  103  1  0.79345300  0.80624200  0.12012700  1
  C  104  1  0.80849800  0.81956200  0.10814000  1
  C  105  1  0.81914800  0.80072900  0.09806200  1
  C  106  1  0.77749800  0.81836300  0.13262500  1
  C  107  1  0.77879700  0.84672900  0.13332400  1
  C  108  1  0.81197400  0.85974700  0.13821600  1
  C  109  1  0.81526900  0.88762600  0.13733400  1
  C  110  1  0.78559400  0.90334600  0.13147800  1
  C  111  1  0.75222600  0.89010600  0.12678800  1
  C  112  1  0.74884200  0.86222700  0.12767000  1
  C  113  1  0.83079100  0.75152600  0.08233000  1
  C  114  1  0.86949400  0.75469400  0.07867600  1
  C  115  1  0.88062600  0.75710600  0.06407500  1
  C  116  1  0.85341000  0.75612800  0.05281100  1
  C  117  1  0.81470200  0.75274000  0.05657700  1
  C  118  1  0.80352100  0.75049600  0.07113700  1
  C  119  1  0.78166500  0.65026000  0.13059000  1
  C  120  1  0.75245400  0.63549600  0.12386100  1
  C  121  1  0.75453900  0.60757000  0.12308000  1
  C  122  1  0.78583400  0.59349700  0.12894500  1
  C  123  1  0.81501300  0.60852300  0.13568200  1
  C  124  1  0.81300700  0.63649100  0.13647800  1
  C  125  1  0.69904100  0.74532300  0.17573600  1
  C  126  1  0.66021000  0.73985500  0.17329200  1
  C  127  1  0.71165400  0.74900300  0.19013000  1
  C  128  1  0.68598100  0.74707100  0.20181400  1
  C  129  1  0.64710300  0.74122500  0.19942700  1
  C  130  1  0.63471400  0.73772900  0.18496000  1
  C  157  1  0.86417500  0.76015200  0.03852800  1
  C  158  1  0.78657400  0.56576600  0.12811500  1
  C  159  1  0.62128300  0.73770000  0.21068000  1
  C  160  1  0.78914400  0.93077100  0.12956000  1
  C  165  1  0.93901700  0.20096700  0.16470200  1
  C  166  1  0.92313000  0.18092600  0.15642800  1
  C  167  1  0.90398200  0.19261200  0.14480800  1
  C  169  1  0.92886000  0.22542100  0.15863300  1
  C  170  1  0.93922900  0.25080900  0.16425200  1
  C  171  1  0.92798300  0.27556700  0.15816200  1
  C  173  1  0.90331300  0.30609700  0.14314500  1
  C  174  1  0.91930300  0.31949100  0.15491100  1
  C  175  1  0.93491300  0.30071200  0.16406200  1
  C  176  1  0.88631500  0.31808900  0.13081900  1
  C  177  1  0.87326600  0.30379500  0.11846700  1
  C  179  1  0.85876800  0.27086600  0.10278500  1
  C  180  1  0.85363600  0.29518800  0.09573000  1
  C  181  1  0.86168300  0.31534100  0.10542300  1
  C  182  1  0.85275400  0.24544100  0.09641300  1
  C  183  1  0.85691900  0.22080800  0.10376800  1
  C  185  1  0.87120700  0.19041500  0.12063700  1
  C  186  1  0.85680500  0.17702300  0.10856000  1
  C  187  1  0.84845900  0.19572900  0.09809800  1
  C  188  1  0.88573100  0.17840600  0.13341400  1
  C  189  1  0.88443000  0.15004300  0.13417400  1
  C  190  1  0.85092300  0.13684900  0.13858200  1
  C  191  1  0.84864900  0.10886300  0.13830000  1
  C  192  1  0.87972800  0.09320700  0.13355900  1
  C  193  1  0.91324700  0.10668400  0.12921900  1
  C  194  1  0.91555200  0.13464200  0.12944300  1
  C  195  1  0.84723400  0.24422600  0.08112800  1
  C  196  1  0.81121100  0.24760300  0.07464200  1
  C  197  1  0.80701500  0.24569500  0.05948100  1
  C  198  1  0.83866300  0.24013500  0.05051400  1
  C  199  1  0.87460400  0.23681400  0.05712600  1
  C  200  1  0.87888300  0.23893900  0.07219600  1
  C  201  1  0.88394500  0.34643700  0.13045300  1
  C  202  1  0.91270200  0.36180700  0.12382400  1
  C  203  1  0.90879300  0.38958800  0.12253100  1
  C  204  1  0.87620000  0.40288400  0.12786900  1
  C  205  1  0.84776300  0.38730100  0.13469500  1
  C  206  1  0.85151000  0.35949800  0.13593400  1
  C  207  1  0.96496000  0.25170400  0.17621500  1
  C  208  1  0.00376600  0.25714900  0.17368600  1
  C  209  1  0.95258700  0.24796700  0.19063400  1
  C  210  1  0.97845700  0.24983900  0.20225800  1
  C  211  1  0.01731900  0.25562200  0.19978400  1
  C  212  1  0.02946600  0.25919000  0.18529300  1
  C  239  1  0.83605100  0.23764500  0.03558600  1
  C  240  1  0.87225400  0.43022900  0.12576300  1
  C  241  1  0.04335500  0.25902900  0.21097400  1
  C  242  1  0.87842200  0.06545700  0.13305000  1
  C  247  1  0.93959100  0.29542600  0.83216100  1
  C  248  1  0.92365100  0.31535400  0.84047600  1
  C  249  1  0.90481700  0.30354500  0.85214700  1
  C  251  1  0.92994800  0.27090700  0.83829400  1
  C  252  1  0.94084400  0.24560600  0.83272500  1
  C  253  1  0.93002300  0.22074900  0.83883800  1
  C  255  1  0.90519300  0.19004700  0.85374900  1
  C  256  1  0.92256000  0.17673600  0.84225500  1
  C  257  1  0.93817500  0.19562800  0.83315400  1
  C  258  1  0.88695900  0.17797800  0.86580400  1
  C  259  1  0.87173300  0.19217000  0.87782000  1
  C  261  1  0.85435400  0.22488200  0.89319500  1
  C  262  1  0.84557200  0.20047300  0.89962200  1
  C  263  1  0.85575800  0.18047800  0.89014100  1
  C  264  1  0.84746800  0.25020100  0.89955000  1
  C  265  1  0.85408700  0.27499800  0.89261400  1
  C  267  1  0.87117100  0.30556000  0.87617700  1
  C  268  1  0.85656700  0.31890500  0.88822400  1
  C  269  1  0.84649100  0.30010000  0.89841500  1
  C  270  1  0.88649400  0.31765200  0.86354900  1
  C  271  1  0.88519300  0.34601800  0.86281600  1
  C  272  1  0.85172800  0.35914400  0.85835500  1
  C  273  1  0.84945000  0.38712200  0.85862000  1
  C  274  1  0.88049400  0.40284900  0.86338700  1
  C  275  1  0.91397800  0.38944000  0.86777300  1
  C  276  1  0.91629000  0.36148400  0.86756500  1
  C  277  1  0.83512600  0.25090500  0.91424700  1
  C  278  1  0.79647600  0.25439700  0.91787900  1
  C  279  1  0.78532200  0.25685700  0.93247500  1
  C  280  1  0.81244200  0.25558200  0.94376400  1
  C  281  1  0.85108600  0.25184200  0.94001900  1
  C  282  1  0.86229200  0.24953100  0.92546500  1
  C  283  1  0.88462500  0.14962100  0.86610300  1
  C  284  1  0.91221500  0.13444000  0.87349500  1
  C  285  1  0.90820400  0.10665700  0.87476900  1
  C  286  1  0.87662800  0.09316800  0.86868800  1
  C  287  1  0.84936600  0.10857300  0.86111900  1
  C  288  1  0.85325600  0.13637400  0.85985700  1
  C  289  1  0.96646300  0.24494900  0.82072400  1
  C  290  1  0.00543900  0.24012000  0.82319300  1
  C  291  1  0.95376500  0.24818900  0.80631100  1
  C  292  1  0.97948200  0.24642800  0.79463400  1
  C  293  1  0.01850600  0.24119700  0.79704900  1
  C  294  1  0.03098000  0.23814300  0.81153400  1
  C  321  1  0.80169100  0.25975400  0.95804100  1
  C  322  1  0.87247800  0.06581700  0.87078900  1
  C  323  1  0.04439700  0.23777500  0.78581500  1
  C  324  1  0.87918100  0.43059800  0.86387100  1
  C  329  1  0.22473800  0.19961500  0.33221400  1
  C  330  1  0.23998700  0.17954300  0.34062000  1
  C  331  1  0.25980500  0.19124000  0.35207700  1
  C  333  1  0.23576900  0.22406800  0.33809300  1
  C  334  1  0.22640200  0.24948400  0.33227400  1
  C  335  1  0.23838800  0.27418900  0.33826100  1
  C  337  1  0.26354900  0.30469900  0.35321100  1
  C  338  1  0.24866300  0.31803200  0.34122700  1
  C  339  1  0.23280100  0.29928200  0.33210700  1
  C  340  1  0.28041900  0.31676200  0.36555600  1
  C  341  1  0.29270000  0.30252900  0.37802600  1
  C  343  1  0.30653200  0.26965800  0.39379700  1
  C  344  1  0.31099100  0.29399400  0.40091800  1
  C  345  1  0.30326500  0.31412300  0.39118500  1
  C  346  1  0.31243900  0.24425300  0.40019500  1
  C  347  1  0.30827800  0.21961400  0.39284200  1
  C  349  1  0.29336500  0.18914800  0.37608000  1
  C  350  1  0.30831500  0.17582600  0.38807600  1
  C  351  1  0.31689000  0.19456900  0.39849800  1
  C  352  1  0.27815300  0.17705800  0.36343300  1
  C  353  1  0.27955300  0.14869900  0.36267800  1
  C  354  1  0.31288500  0.13578600  0.35790900  1
  C  355  1  0.31624200  0.10791500  0.35881000  1
  C  356  1  0.28648300  0.09209600  0.36457100  1
  C  357  1  0.25294900  0.10522200  0.36912600  1
  C  358  1  0.24953000  0.13309100  0.36824200  1
  C  359  1  0.31787200  0.24305700  0.41548400  1
  C  360  1  0.35377500  0.24683300  0.42201000  1
  C  361  1  0.35787000  0.24502200  0.43717800  1
  C  362  1  0.32623700  0.23919900  0.44611600  1
  C  363  1  0.29041900  0.23546700  0.43946000  1
  C  364  1  0.28624200  0.23746400  0.42438100  1
  C  365  1  0.28217400  0.34513400  0.36599800  1
  C  366  1  0.25188700  0.35999400  0.37188500  1
  C  367  1  0.25407400  0.38791700  0.37270300  1
  C  368  1  0.28647700  0.40192400  0.36767200  1
  C  369  1  0.31669100  0.38679700  0.36174700  1
  C  370  1  0.31462900  0.35882500  0.36095000  1
  C  371  1  0.20198000  0.25048700  0.31991300  1
  C  372  1  0.16345900  0.25772500  0.32160800  1
  C  373  1  0.21571200  0.24520800  0.30582300  1
  C  374  1  0.19148800  0.24722500  0.29371700  1
  C  375  1  0.15299600  0.25479400  0.29536600  1
  C  376  1  0.13940000  0.26001100  0.30950100  1
  C  403  1  0.32871300  0.23694300  0.46106200  1
  C  404  1  0.28732900  0.42966700  0.36853700  1
  C  405  1  0.12917000  0.25855800  0.28356000  1
  C  406  1  0.29008100  0.06469100  0.36654100  1
  C  411  1  0.22408800  0.29562900  0.66393600  1
  C  412  1  0.23956600  0.31561200  0.65551000  1
  C  413  1  0.25903600  0.30381300  0.64400700  1
  C  415  1  0.23467000  0.27110900  0.65804500  1
  C  416  1  0.22477800  0.24575800  0.66385200  1
  C  417  1  0.23629500  0.22095300  0.65787700  1
  C  419  1  0.26168600  0.19029800  0.64308500  1
  C  420  1  0.24528900  0.17700800  0.65480300  1
  C  421  1  0.22943600  0.19585300  0.66384800  1
  C  422  1  0.27984800  0.17818600  0.63103100  1
  C  423  1  0.29453500  0.19233000  0.61889700  1
  C  425  1  0.31147600  0.22501200  0.60342200  1
  C  426  1  0.31944000  0.20058000  0.59687900  1
  C  427  1  0.30951400  0.18059300  0.60641900  1
  C  428  1  0.31830100  0.25032900  0.59703800  1
  C  429  1  0.31141900  0.27514700  0.60389900  1
  C  431  1  0.29340200  0.30577900  0.62013000  1
  C  432  1  0.30862800  0.31907400  0.60816900  1
  C  433  1  0.31925500  0.30022500  0.59809700  1
  C  434  1  0.27739400  0.31792300  0.63261200  1
  C  435  1  0.27883200  0.34629300  0.63332400  1
  C  436  1  0.31205300  0.35923400  0.63823500  1
  C  437  1  0.31546400  0.38711200  0.63738000  1
  C  438  1  0.28586400  0.40291200  0.63153500  1
  C  439  1  0.25245200  0.38974900  0.62682400  1
  C  440  1  0.24895300  0.36187300  0.62767900  1
  C  441  1  0.33058500  0.25102000  0.58233500  1
  C  442  1  0.36931000  0.25406800  0.57868900  1
  C  443  1  0.38047200  0.25648100  0.56409000  1
  C  444  1  0.35326100  0.25561200  0.55282300  1
  C  445  1  0.31452700  0.25234100  0.55658100  1
  C  446  1  0.30331700  0.25010300  0.57113800  1
  C  447  1  0.28158900  0.14981200  0.63067000  1
  C  448  1  0.25222800  0.13497000  0.62408800  1
  C  449  1  0.25441800  0.10704800  0.62330100  1
  C  450  1  0.28596900  0.09304300  0.62901600  1
  C  451  1  0.31529600  0.10814500  0.63561000  1
  C  452  1  0.31318900  0.13611300  0.63640700  1
  C  453  1  0.20046900  0.24496400  0.67625300  1
  C  454  1  0.16174400  0.23813300  0.67464600  1
  C  455  1  0.21456700  0.25003600  0.69031800  1
  C  456  1  0.19050600  0.24821700  0.70248200  1
  C  457  1  0.15180600  0.24104600  0.70092200  1
  C  458  1  0.13784600  0.23602700  0.68681400  1
  C  485  1  0.36405300  0.25963400  0.53854200  1
  C  486  1  0.28681000  0.06530600  0.62817900  1
  C  487  1  0.12811600  0.23743900  0.71278700  1
  C  488  1  0.28952200  0.43034000  0.62964300  1
  C  493  1  0.43977400  0.70053400  0.66465300  1
  C  494  1  0.42399700  0.68048700  0.65635600  1
  C  495  1  0.40484300  0.69216700  0.64473800  1
  C  497  1  0.42954700  0.72499400  0.65860400  1
  C  498  1  0.43962400  0.75039500  0.66429800  1
  C  499  1  0.42837100  0.77514100  0.65818600  1
  C  501  1  0.40386100  0.80565300  0.64311400  1
  C  502  1  0.41918900  0.81904200  0.65500600  1
  C  503  1  0.43463400  0.80027800  0.66420700  1
  C  504  1  0.38707500  0.81765000  0.63074700  1
  C  505  1  0.37427800  0.80334000  0.61836300  1
  C  507  1  0.35983600  0.77038800  0.60269300  1
  C  508  1  0.35496800  0.79469400  0.59559400  1
  C  509  1  0.36298200  0.81486700  0.60527800  1
  C  510  1  0.35372600  0.74495400  0.59634200  1
  C  511  1  0.35773100  0.72033300  0.60372200  1
  C  513  1  0.37195400  0.68994800  0.62060000  1
  C  514  1  0.35741600  0.67655900  0.60854700  1
  C  515  1  0.34910500  0.69526100  0.59807900  1
  C  516  1  0.38651300  0.67794100  0.63337100  1
  C  517  1  0.38512700  0.64957600  0.63415400  1
  C  518  1  0.35157600  0.63642900  0.63856200  1
  C  519  1  0.34924500  0.60844300  0.63831700  1
  C  520  1  0.38030500  0.59273000  0.63361400  1
  C  521  1  0.41386400  0.60615900  0.62927100  1
  C  522  1  0.41622700  0.63411800  0.62945700  1
  C  523  1  0.34812300  0.74370300  0.58106600  1
  C  524  1  0.31209300  0.74719100  0.57460600  1
  C  525  1  0.30780700  0.74525500  0.55945100  1
  C  526  1  0.33937500  0.73956000  0.55046800  1
  C  527  1  0.37532300  0.73612000  0.55705500  1
  C  528  1  0.37969100  0.73827100  0.57211900  1
  C  529  1  0.38459300  0.84599800  0.63038700  1
  C  530  1  0.41344600  0.86143400  0.62386500  1
  C  531  1  0.40947000  0.88921400  0.62257400  1
  C  532  1  0.37671700  0.90244900  0.62781200  1
  C  533  1  0.34817700  0.88680400  0.63453200  1
  C  534  1  0.35198800  0.85900000  0.63576400  1
  C  535  1  0.46398700  0.75131500  0.67667700  1
  C  536  1  0.50272100  0.75805800  0.67499100  1
  C  537  1  0.45002700  0.74634500  0.69077300  1
  C  538  1  0.47424000  0.74818500  0.70289100  1
  C  539  1  0.51296500  0.75522500  0.70124500  1
  C  540  1  0.52678000  0.76016500  0.68711000  1
  C  567  1  0.33668300  0.73708900  0.53554400  1
  C  568  1  0.37273600  0.92979700  0.62571200  1
  C  569  1  0.53682500  0.75879000  0.71305800  1
  C  570  1  0.37895500  0.56497400  0.63314200  1
  C  575  1  0.44036800  0.79501100  0.33223000  1
  C  576  1  0.42452900  0.81493500  0.34057300  1
  C  577  1  0.40567600  0.80311900  0.35223400  1
  C  579  1  0.43065200  0.77047400  0.33833300  1
  C  580  1  0.44125100  0.74516400  0.33267900  1
  C  581  1  0.43044500  0.72030900  0.33880600  1
  C  583  1  0.40577200  0.68960500  0.35376400  1
  C  584  1  0.42250300  0.67630300  0.34213200  1
  C  585  1  0.43793400  0.69518800  0.33298300  1
  C  586  1  0.38773700  0.67751900  0.36585900  1
  C  587  1  0.37270700  0.69171100  0.37790900  1
  C  589  1  0.35526000  0.72443500  0.39326500  1
  C  590  1  0.34679600  0.70002200  0.39975200  1
  C  591  1  0.35703200  0.68001700  0.39028500  1
  C  592  1  0.34818800  0.74976000  0.39958400  1
  C  593  1  0.35471500  0.77455900  0.39263900  1
  C  595  1  0.37184400  0.80513400  0.37621900  1
  C  596  1  0.35706400  0.81846600  0.38823700  1
  C  597  1  0.34695000  0.79965400  0.39841800  1
  C  598  1  0.38725400  0.81723500  0.36361100  1
  C  599  1  0.38586300  0.84560500  0.36285700  1
  C  600  1  0.35236600  0.85867900  0.35838700  1
  C  601  1  0.35002600  0.88666000  0.35861300  1
  C  602  1  0.38104300  0.90244300  0.36334800  1
  C  603  1  0.41455700  0.88908600  0.36774700  1
  C  604  1  0.41692800  0.86112900  0.36757900  1
  C  605  1  0.33581900  0.75048000  0.41427500  1
  C  606  1  0.29713400  0.75383400  0.41789200  1
  C  607  1  0.28593500  0.75630800  0.43248100  1
  C  608  1  0.31305000  0.75517500  0.44377500  1
  C  609  1  0.35173300  0.75158600  0.44004600  1
  C  610  1  0.36298200  0.74926500  0.42549800  1
  C  611  1  0.38532300  0.64916000  0.36614600  1
  C  612  1  0.41305400  0.63392300  0.37342700  1
  C  613  1  0.40899000  0.60614400  0.37470700  1
  C  614  1  0.37722300  0.59270500  0.36873700  1
  C  615  1  0.34981800  0.60816100  0.36127600  1
  C  616  1  0.35375500  0.63596200  0.36001500  1
  C  617  1  0.46548300  0.74448600  0.32025700  1
  C  618  1  0.50440500  0.73830100  0.32186600  1
  C  619  1  0.45115200  0.74906000  0.30617800  1
  C  620  1  0.47517400  0.74737600  0.29400200  1
  C  621  1  0.51407000  0.74083500  0.29556700  1
  C  622  1  0.52826500  0.73630100  0.30968500  1
  C  649  1  0.30226000  0.75934000  0.45804400  1
  C  650  1  0.37305100  0.56535200  0.37084200  1
  C  651  1  0.53773700  0.73731700  0.28369700  1
  C  652  1  0.37968300  0.93020000  0.36379200  1
  C  657  1  0.85222200  0.75201100  0.98322800  1
  C  658  1  0.81995300  0.76044100  0.99098800  1
  C  659  1  0.81866700  0.75927700  0.00625100  1
  C  660  1  0.85098700  0.74987100  0.01394700  1
  C  661  1  0.88407500  0.74162500  0.00626700  1
  C  663  1  0.88433600  0.74329600  0.99094900  1
  C  665  1  0.78334900  0.76766600  0.01387600  1
  C  669  1  0.91837800  0.73032800  0.01336800  1
  C  675  1  0.81319800  0.25221900  0.01338000  1
  C  676  1  0.84545100  0.26077600  0.00563300  1
  C  677  1  0.84687200  0.25945000  0.99037500  1
  C  678  1  0.81469400  0.24976700  0.98267000  1
  C  679  1  0.78162000  0.24139400  0.99033900  1
  C  681  1  0.78122100  0.24322200  0.00565100  1
  C  683  1  0.88218500  0.26795900  0.98276300  1
  C  687  1  0.74746400  0.22982800  0.98323000  1
  C  693  1  0.35198800  0.25146900  0.48323600  1
  C  694  1  0.31976700  0.25996600  0.49100300  1
  C  695  1  0.31850300  0.25881300  0.50626600  1
  C  696  1  0.35082700  0.24939400  0.51395600  1
  C  697  1  0.38387200  0.24108800  0.50627000  1
  C  699  1  0.38409300  0.24272200  0.49095100  1
  C  701  1  0.28321100  0.26724000  0.51389700  1
  C  705  1  0.41816700  0.22976600  0.51336500  1
  C  711  1  0.31383600  0.75176900  0.51336900  1
  C  712  1  0.34607500  0.76033500  0.50561700  1
  C  713  1  0.34747000  0.75901900  0.49036000  1
  C  714  1  0.31527900  0.74933300  0.48266400  1
  C  715  1  0.28221100  0.74095800  0.49033600  1
  C  717  1  0.28185100  0.74276100  0.50564900  1
  C  719  1  0.38277300  0.76752900  0.48274100  1
  C  723  1  0.24805000  0.72938900  0.48323500  1
  C  729  1  0.82352200  0.97035500  0.86578700  1
  C  730  1  0.85652700  0.97936700  0.85868200  1
  C  731  1  0.86592600  0.00672900  0.85792300  1
  C  732  1  0.84173900  0.02563500  0.86473900  1
  C  733  1  0.80831500  0.01694900  0.87201100  1
  C  735  1  0.79995500  0.98942400  0.87251700  1
  C  737  1  0.90051400  0.01521900  0.84988100  1
  C  741  1  0.78113700  0.03534000  0.87924100  1
  C  747  1  0.82316500  0.52562200  0.13074900  1
  C  748  1  0.85617300  0.51664200  0.13783800  1
  C  749  1  0.86555800  0.48929000  0.13856900  1
  C  750  1  0.84137800  0.47036700  0.13172300  1
  C  751  1  0.80796300  0.47902700  0.12445900  1
  C  753  1  0.79960700  0.50653700  0.12398900  1
  C  755  1  0.90011700  0.48083700  0.14661900  1
  C  759  1  0.78078400  0.46062000  0.11719800  1
  C  765  1  0.84039000  0.02586600  0.13446100  1
  C  766  1  0.80743700  0.01688200  0.14160000  1
  C  767  1  0.79775700  0.98955300  0.14218900  1
  C  768  1  0.82147800  0.97070600  0.13507900  1
  C  769  1  0.85472000  0.97942200  0.12769200  1
  C  771  1  0.86343700  0.00690200  0.12740400  1
  C  773  1  0.76344400  0.98107300  0.15040600  1
  C  777  1  0.88133200  0.96111800  0.12009600  1
  C  783  1  0.84117300  0.47011200  0.86220600  1
  C  784  1  0.80830200  0.47894300  0.85497800  1
  C  785  1  0.79859700  0.50623900  0.85428900  1
  C  786  1  0.82221600  0.52522200  0.86137900  1
  C  787  1  0.85538500  0.51666500  0.86884500  1
  C  789  1  0.86412500  0.48921100  0.86923600  1
  C  791  1  0.76436400  0.51454600  0.84599200  1
  C  795  1  0.88189700  0.53511300  0.87642900  1
  C  801  1  0.32393900  0.46988400  0.36584400  1
  C  802  1  0.35696100  0.47888900  0.35875000  1
  C  803  1  0.36639900  0.50624800  0.35800000  1
  C  804  1  0.34223500  0.52516700  0.36481900  1
  C  805  1  0.30879800  0.51648700  0.37208400  1
  C  807  1  0.30040000  0.48896700  0.37258000  1
  C  809  1  0.40100100  0.51472200  0.34996300  1
  C  813  1  0.28163800  0.53488600  0.37931800  1
  C  819  1  0.32350400  0.02519000  0.63073700  1
  C  820  1  0.35653500  0.01620400  0.63780900  1
  C  821  1  0.36595600  0.98885500  0.63851900  1
  C  822  1  0.34178900  0.96992800  0.63166500  1
  C  823  1  0.30835800  0.97859400  0.62441400  1
  C  825  1  0.29996800  0.00610300  0.62396700  1
  C  827  1  0.40053200  0.98040300  0.64655800  1
  C  831  1  0.28119200  0.96019200  0.61714300  1
  C  837  1  0.34089700  0.52539300  0.63457700  1
  C  838  1  0.30793200  0.51642300  0.64171500  1
  C  839  1  0.29822400  0.48909800  0.64230700  1
  C  840  1  0.32192500  0.47023000  0.63520300  1
  C  841  1  0.35519200  0.47893000  0.62782500  1
  C  843  1  0.36393700  0.50640700  0.62753300  1
  C  845  1  0.26389000  0.48064000  0.65051700  1
  C  849  1  0.38179800  0.46060800  0.62023700  1
  C  855  1  0.34165300  0.96970400  0.36207100  1
  C  856  1  0.30877500  0.97850700  0.35483800  1
  C  857  1  0.29903600  0.00579900  0.35413400  1
  C  858  1  0.32262100  0.02481300  0.36121600  1
  C  859  1  0.35580800  0.01628500  0.36868200  1
  C  861  1  0.36458400  0.98883600  0.36908700  1
  C  863  1  0.26479000  0.01406800  0.34583300  1
  C  867  1  0.38230100  0.03476300  0.37625500  1
  C  873  1  0.60227100  0.74643400  0.76172800  1
  C  874  1  0.61748000  0.73640300  0.74872200  1
  C  875  1  0.59581800  0.73528100  0.73581200  1
  C  876  1  0.55764400  0.74461900  0.73594800  1
  C  877  1  0.54140400  0.75412100  0.74907100  1
  C  879  1  0.56402500  0.75491300  0.76172300  1
  C  881  1  0.61315400  0.72405900  0.72244200  1
  C  885  1  0.50140900  0.76345200  0.75034300  1
  C  891  1  0.60188200  0.74962100  0.23473200  1
  C  892  1  0.61740300  0.75967300  0.24768700  1
  C  893  1  0.59605400  0.76076900  0.26067300  1
  C  894  1  0.55787100  0.75136000  0.26067500  1
  C  895  1  0.54131600  0.74183300  0.24760800  1
  C  897  1  0.56363100  0.74107900  0.23487600  1
  C  899  1  0.61371400  0.77205300  0.27397300  1
  C  903  1  0.50128900  0.73243200  0.24647200  1
  C  909  1  0.06333500  0.24676400  0.23489700  1
  C  910  1  0.04805500  0.23670800  0.24789300  1
  C  911  1  0.06973700  0.23542600  0.26079200  1
  C  912  1  0.10801900  0.24462000  0.26065900  1
  C  913  1  0.12431900  0.25417000  0.24755100  1
  C  915  1  0.10167400  0.25511700  0.23490700  1
  C  917  1  0.05231200  0.22418500  0.27414900  1
  C  921  1  0.16440500  0.26338600  0.24628400  1
  C  927  1  0.06371000  0.24960200  0.76172600  1
  C  928  1  0.04817700  0.25956100  0.74875800  1
  C  929  1  0.06954900  0.26070800  0.73577700  1
  C  930  1  0.10776400  0.25143800  0.73578800  1
  C  931  1  0.12431300  0.24197200  0.74886200  1
  C  933  1  0.10197800  0.24116600  0.76158900  1
  C  935  1  0.05188400  0.27190200  0.72246300  1
  C  939  1  0.16435600  0.23268800  0.75000900  1
  C  945  1  0.44085300  0.70003200  0.83225600  1
  C  946  1  0.45618000  0.67996200  0.84064400  1
  C  947  1  0.47602700  0.69166400  0.85209400  1
  C  949  1  0.45185700  0.72447900  0.83814600  1
  C  950  1  0.44223900  0.74988700  0.83239400  1
  C  951  1  0.45421900  0.77460700  0.83835000  1
  C  953  1  0.47950300  0.80514900  0.85324200  1
  C  954  1  0.46399300  0.81848600  0.84137300  1
  C  955  1  0.44799200  0.79971000  0.83230300  1
  C  956  1  0.49656100  0.81721500  0.86555000  1
  C  957  1  0.50908800  0.80299400  0.87798900  1
  C  959  1  0.52297900  0.77014500  0.89376800  1
  C  960  1  0.52769400  0.79449400  0.90085100  1
  C  961  1  0.51992800  0.81460800  0.89111100  1
  C  962  1  0.52876800  0.74474700  0.90018900  1
  C  963  1  0.52448600  0.72009200  0.89286200  1
  C  965  1  0.50950300  0.68960200  0.87612000  1
  C  966  1  0.52434400  0.67628900  0.88813700  1
  C  967  1  0.53295700  0.69504700  0.89854600  1
  C  968  1  0.49430100  0.67750200  0.86347300  1
  C  969  1  0.49557600  0.64914400  0.86275100  1
  C  970  1  0.52883900  0.63615300  0.85797900  1
  C  971  1  0.53208400  0.60828200  0.85891000  1
  C  972  1  0.50227500  0.59254600  0.86470000  1
  C  973  1  0.46880700  0.60575000  0.86925700  1
  C  974  1  0.46550100  0.63362100  0.86834500  1
  C  975  1  0.53420300  0.74359300  0.91547800  1
  C  976  1  0.57014700  0.74723200  0.92199600  1
  C  977  1  0.57424800  0.74541900  0.93716300  1
  C  978  1  0.54258000  0.73972700  0.94610700  1
  C  979  1  0.50671900  0.73613700  0.93946100  1
  C  980  1  0.50253800  0.73814000  0.92438300  1
  C  981  1  0.49818500  0.84558400  0.86600100  1
  C  982  1  0.46798700  0.86036400  0.87201200  1
  C  983  1  0.47005300  0.88829200  0.87282100  1
  C  984  1  0.50224600  0.90237100  0.86765700  1
  C  985  1  0.53236900  0.88732100  0.86160800  1
  C  986  1  0.53042400  0.85934900  0.86081700  1
  C  987  1  0.41654200  0.75088000  0.82042700  1
  C  988  1  0.37789300  0.75680300  0.82293000  1
  C  989  1  0.42883700  0.74683100  0.80602600  1
  C  990  1  0.40303400  0.74885100  0.79439000  1
  C  991  1  0.36434300  0.75513800  0.79683600  1
  C  992  1  0.35227000  0.75900000  0.81131000  1
  C  1019  1  0.54507600  0.73742600  0.96104800  1
  C  1020  1  0.50299000  0.93011100  0.86851200  1
  C  1021  1  0.33842100  0.75869000  0.78562700  1
  C  1022  1  0.50576700  0.56514300  0.86669100  1
  C  1027  1  0.44029300  0.79600000  0.16396700  1
  C  1028  1  0.45583500  0.81600700  0.15557100  1
  C  1029  1  0.47526500  0.80423800  0.14404800  1
  C  1031  1  0.45080700  0.77150800  0.15803000  1
  C  1032  1  0.44064700  0.74614500  0.16373900  1
  C  1033  1  0.45215800  0.72134400  0.15776600  1
  C  1035  1  0.47766200  0.69070700  0.14300400  1
  C  1036  1  0.46062200  0.67738200  0.15457900  1
  C  1037  1  0.44462800  0.69622300  0.16359200  1
  C  1038  1  0.49600100  0.67863000  0.13097900  1
  C  1039  1  0.51092300  0.69280100  0.11889700  1
  C  1041  1  0.52786000  0.72550500  0.10343400  1
  C  1042  1  0.53613700  0.70108700  0.09693400  1
  C  1043  1  0.52622200  0.68108700  0.10646800  1
  C  1044  1  0.53450800  0.75082900  0.09703300  1
  C  1045  1  0.52749600  0.77563700  0.10388600  1
  C  1047  1  0.50943800  0.80624200  0.12012700  1
  C  1048  1  0.52448300  0.81956200  0.10814000  1
  C  1049  1  0.53513300  0.80072900  0.09806200  1
  C  1050  1  0.49348300  0.81836300  0.13262500  1
  C  1051  1  0.49478200  0.84672900  0.13332400  1
  C  1052  1  0.52795900  0.85974700  0.13821600  1
  C  1053  1  0.53125400  0.88762600  0.13733400  1
  C  1054  1  0.50157900  0.90334600  0.13147800  1
  C  1055  1  0.46821100  0.89010600  0.12678800  1
  C  1056  1  0.46482700  0.86222700  0.12767000  1
  C  1057  1  0.54677600  0.75152600  0.08233000  1
  C  1058  1  0.58547900  0.75469400  0.07867600  1
  C  1059  1  0.59661100  0.75710600  0.06407500  1
  C  1060  1  0.56939500  0.75612800  0.05281100  1
  C  1061  1  0.53068700  0.75274000  0.05657700  1
  C  1062  1  0.51950600  0.75049600  0.07113700  1
  C  1063  1  0.49765000  0.65026000  0.13059000  1
  C  1064  1  0.46843900  0.63549600  0.12386100  1
  C  1065  1  0.47052400  0.60757000  0.12308000  1
  C  1066  1  0.50181900  0.59349700  0.12894500  1
  C  1067  1  0.53099800  0.60852300  0.13568200  1
  C  1068  1  0.52899200  0.63649100  0.13647800  1
  C  1069  1  0.41502600  0.74532300  0.17573600  1
  C  1070  1  0.37619500  0.73985500  0.17329200  1
  C  1071  1  0.42763900  0.74900300  0.19013000  1
  C  1072  1  0.40196600  0.74707100  0.20181400  1
  C  1073  1  0.36308800  0.74122500  0.19942700  1
  C  1074  1  0.35069900  0.73772900  0.18496000  1
  C  1101  1  0.58016000  0.76015200  0.03852800  1
  C  1102  1  0.50255900  0.56576600  0.12811500  1
  C  1103  1  0.33726800  0.73770000  0.21068000  1
  C  1104  1  0.50512900  0.93077100  0.12956000  1
  C  1109  1  0.65500200  0.20096700  0.16470200  1
  C  1110  1  0.63911500  0.18092600  0.15642800  1
  C  1111  1  0.61996700  0.19261200  0.14480800  1
  C  1113  1  0.64484500  0.22542100  0.15863300  1
  C  1114  1  0.65521400  0.25080900  0.16425200  1
  C  1115  1  0.64396800  0.27556700  0.15816200  1
  C  1117  1  0.61929800  0.30609700  0.14314500  1
  C  1118  1  0.63528800  0.31949100  0.15491100  1
  C  1119  1  0.65089800  0.30071200  0.16406200  1
  C  1120  1  0.60230000  0.31808900  0.13081900  1
  C  1121  1  0.58925100  0.30379500  0.11846700  1
  C  1123  1  0.57475300  0.27086600  0.10278500  1
  C  1124  1  0.56962100  0.29518800  0.09573000  1
  C  1125  1  0.57766800  0.31534100  0.10542300  1
  C  1126  1  0.56873900  0.24544100  0.09641300  1
  C  1127  1  0.57290400  0.22080800  0.10376800  1
  C  1129  1  0.58719200  0.19041500  0.12063700  1
  C  1130  1  0.57279000  0.17702300  0.10856000  1
  C  1131  1  0.56444400  0.19572900  0.09809800  1
  C  1132  1  0.60171600  0.17840600  0.13341400  1
  C  1133  1  0.60041500  0.15004300  0.13417400  1
  C  1134  1  0.56690800  0.13684900  0.13858200  1
  C  1135  1  0.56463400  0.10886300  0.13830000  1
  C  1136  1  0.59571300  0.09320700  0.13355900  1
  C  1137  1  0.62923200  0.10668400  0.12921900  1
  C  1138  1  0.63153700  0.13464200  0.12944300  1
  C  1139  1  0.56321900  0.24422600  0.08112800  1
  C  1140  1  0.52719600  0.24760300  0.07464200  1
  C  1141  1  0.52300000  0.24569500  0.05948100  1
  C  1142  1  0.55464800  0.24013500  0.05051400  1
  C  1143  1  0.59058900  0.23681400  0.05712600  1
  C  1144  1  0.59486800  0.23893900  0.07219600  1
  C  1145  1  0.59993000  0.34643700  0.13045300  1
  C  1146  1  0.62868700  0.36180700  0.12382400  1
  C  1147  1  0.62477800  0.38958800  0.12253100  1
  C  1148  1  0.59218500  0.40288400  0.12786900  1
  C  1149  1  0.56374800  0.38730100  0.13469500  1
  C  1150  1  0.56749500  0.35949800  0.13593400  1
  C  1151  1  0.68094500  0.25170400  0.17621500  1
  C  1152  1  0.71975100  0.25714900  0.17368600  1
  C  1153  1  0.66857200  0.24796700  0.19063400  1
  C  1154  1  0.69444200  0.24983900  0.20225800  1
  C  1155  1  0.73330400  0.25562200  0.19978400  1
  C  1156  1  0.74545100  0.25919000  0.18529300  1
  C  1183  1  0.55203600  0.23764500  0.03558600  1
  C  1184  1  0.58823900  0.43022900  0.12576300  1
  C  1185  1  0.75934000  0.25902900  0.21097400  1
  C  1186  1  0.59440700  0.06545700  0.13305000  1
  C  1191  1  0.65557600  0.29542600  0.83216100  1
  C  1192  1  0.63963600  0.31535400  0.84047600  1
  C  1193  1  0.62080200  0.30354500  0.85214700  1
  C  1195  1  0.64593300  0.27090700  0.83829400  1
  C  1196  1  0.65682900  0.24560600  0.83272500  1
  C  1197  1  0.64600800  0.22074900  0.83883800  1
  C  1199  1  0.62117800  0.19004700  0.85374900  1
  C  1200  1  0.63854500  0.17673600  0.84225500  1
  C  1201  1  0.65416000  0.19562800  0.83315400  1
  C  1202  1  0.60294400  0.17797800  0.86580400  1
  C  1203  1  0.58771800  0.19217000  0.87782000  1
  C  1205  1  0.57033900  0.22488200  0.89319500  1
  C  1206  1  0.56155700  0.20047300  0.89962200  1
  C  1207  1  0.57174300  0.18047800  0.89014100  1
  C  1208  1  0.56345300  0.25020100  0.89955000  1
  C  1209  1  0.57007200  0.27499800  0.89261400  1
  C  1211  1  0.58715600  0.30556000  0.87617700  1
  C  1212  1  0.57255200  0.31890500  0.88822400  1
  C  1213  1  0.56247600  0.30010000  0.89841500  1
  C  1214  1  0.60247900  0.31765200  0.86354900  1
  C  1215  1  0.60117800  0.34601800  0.86281600  1
  C  1216  1  0.56771300  0.35914400  0.85835500  1
  C  1217  1  0.56543500  0.38712200  0.85862000  1
  C  1218  1  0.59647900  0.40284900  0.86338700  1
  C  1219  1  0.62996300  0.38944000  0.86777300  1
  C  1220  1  0.63227500  0.36148400  0.86756500  1
  C  1221  1  0.55111100  0.25090500  0.91424700  1
  C  1222  1  0.51246100  0.25439700  0.91787900  1
  C  1223  1  0.50130700  0.25685700  0.93247500  1
  C  1224  1  0.52842700  0.25558200  0.94376400  1
  C  1225  1  0.56707100  0.25184200  0.94001900  1
  C  1226  1  0.57827700  0.24953100  0.92546500  1
  C  1227  1  0.60061000  0.14962100  0.86610300  1
  C  1228  1  0.62820000  0.13444000  0.87349500  1
  C  1229  1  0.62418900  0.10665700  0.87476900  1
  C  1230  1  0.59261300  0.09316800  0.86868800  1
  C  1231  1  0.56535100  0.10857300  0.86111900  1
  C  1232  1  0.56924100  0.13637400  0.85985700  1
  C  1233  1  0.68244800  0.24494900  0.82072400  1
  C  1234  1  0.72142400  0.24012000  0.82319300  1
  C  1235  1  0.66975000  0.24818900  0.80631100  1
  C  1236  1  0.69546700  0.24642800  0.79463400  1
  C  1237  1  0.73449100  0.24119700  0.79704900  1
  C  1238  1  0.74696500  0.23814300  0.81153400  1
  C  1265  1  0.51767600  0.25975400  0.95804100  1
  C  1266  1  0.58846300  0.06581700  0.87078900  1
  C  1267  1  0.76038200  0.23777500  0.78581500  1
  C  1268  1  0.59516600  0.43059800  0.86387100  1
  C  1273  1  0.94072290  0.19961500  0.33221400  1
  C  1274  1  0.95597190  0.17954300  0.34062000  1
  C  1275  1  0.97578990  0.19124000  0.35207700  1
  C  1277  1  0.95175390  0.22406800  0.33809300  1
  C  1278  1  0.94238690  0.24948400  0.33227400  1
  C  1279  1  0.95437290  0.27418900  0.33826100  1
  C  1281  1  0.97953390  0.30469900  0.35321100  1
  C  1282  1  0.96464790  0.31803200  0.34122700  1
  C  1283  1  0.94878590  0.29928200  0.33210700  1
  C  1284  1  0.99640394  0.31676200  0.36555600  1
  C  1285  1  0.00868500  0.30252900  0.37802600  1
  C  1287  1  0.02251700  0.26965800  0.39379700  1
  C  1288  1  0.02697600  0.29399400  0.40091800  1
  C  1289  1  0.01925000  0.31412300  0.39118500  1
  C  1290  1  0.02842400  0.24425300  0.40019500  1
  C  1291  1  0.02426300  0.21961400  0.39284200  1
  C  1293  1  0.00935000  0.18914800  0.37608000  1
  C  1294  1  0.02430000  0.17582600  0.38807600  1
  C  1295  1  0.03287500  0.19456900  0.39849800  1
  C  1296  1  0.99413794  0.17705800  0.36343300  1
  C  1297  1  0.99553794  0.14869900  0.36267800  1
  C  1298  1  0.02887000  0.13578600  0.35790900  1
  C  1299  1  0.03222700  0.10791500  0.35881000  1
  C  1300  1  0.00246800  0.09209600  0.36457100  1
  C  1301  1  0.96893390  0.10522200  0.36912600  1
  C  1302  1  0.96551490  0.13309100  0.36824200  1
  C  1303  1  0.03385700  0.24305700  0.41548400  1
  C  1304  1  0.06976000  0.24683300  0.42201000  1
  C  1305  1  0.07385500  0.24502200  0.43717800  1
  C  1306  1  0.04222200  0.23919900  0.44611600  1
  C  1307  1  0.00640400  0.23546700  0.43946000  1
  C  1308  1  0.00222700  0.23746400  0.42438100  1
  C  1309  1  0.99815894  0.34513400  0.36599800  1
  C  1310  1  0.96787190  0.35999400  0.37188500  1
  C  1311  1  0.97005890  0.38791700  0.37270300  1
  C  1312  1  0.00246200  0.40192400  0.36767200  1
  C  1313  1  0.03267600  0.38679700  0.36174700  1
  C  1314  1  0.03061400  0.35882500  0.36095000  1
  C  1315  1  0.91796490  0.25048700  0.31991300  1
  C  1316  1  0.87944400  0.25772500  0.32160800  1
  C  1317  1  0.93169690  0.24520800  0.30582300  1
  C  1318  1  0.90747290  0.24722500  0.29371700  1
  C  1319  1  0.86898100  0.25479400  0.29536600  1
  C  1320  1  0.85538500  0.26001100  0.30950100  1
  C  1347  1  0.04469800  0.23694300  0.46106200  1
  C  1348  1  0.00331400  0.42966700  0.36853700  1
  C  1349  1  0.84515500  0.25855800  0.28356000  1
  C  1350  1  0.00606600  0.06469100  0.36654100  1
  C  1355  1  0.94007290  0.29562900  0.66393600  1
  C  1356  1  0.95555090  0.31561200  0.65551000  1
  C  1357  1  0.97502090  0.30381300  0.64400700  1
  C  1359  1  0.95065490  0.27110900  0.65804500  1
  C  1360  1  0.94076290  0.24575800  0.66385200  1
  C  1361  1  0.95227990  0.22095300  0.65787700  1
  C  1363  1  0.97767090  0.19029800  0.64308500  1
  C  1364  1  0.96127390  0.17700800  0.65480300  1
  C  1365  1  0.94542090  0.19585300  0.66384800  1
  C  1366  1  0.99583294  0.17818600  0.63103100  1
  C  1367  1  0.01052000  0.19233000  0.61889700  1
  C  1369  1  0.02746100  0.22501200  0.60342200  1
  C  1370  1  0.03542500  0.20058000  0.59687900  1
  C  1371  1  0.02549900  0.18059300  0.60641900  1
  C  1372  1  0.03428600  0.25032900  0.59703800  1
  C  1373  1  0.02740400  0.27514700  0.60389900  1
  C  1375  1  0.00938700  0.30577900  0.62013000  1
  C  1376  1  0.02461300  0.31907400  0.60816900  1
  C  1377  1  0.03524000  0.30022500  0.59809700  1
  C  1378  1  0.99337894  0.31792300  0.63261200  1
  C  1379  1  0.99481694  0.34629300  0.63332400  1
  C  1380  1  0.02803800  0.35923400  0.63823500  1
  C  1381  1  0.03144900  0.38711200  0.63738000  1
  C  1382  1  0.00184900  0.40291200  0.63153500  1
  C  1383  1  0.96843690  0.38974900  0.62682400  1
  C  1384  1  0.96493790  0.36187300  0.62767900  1
  C  1385  1  0.04657000  0.25102000  0.58233500  1
  C  1386  1  0.08529500  0.25406800  0.57868900  1
  C  1387  1  0.09645700  0.25648100  0.56409000  1
  C  1388  1  0.06924600  0.25561200  0.55282300  1
  C  1389  1  0.03051200  0.25234100  0.55658100  1
  C  1390  1  0.01930200  0.25010300  0.57113800  1
  C  1391  1  0.99757394  0.14981200  0.63067000  1
  C  1392  1  0.96821290  0.13497000  0.62408800  1
  C  1393  1  0.97040290  0.10704800  0.62330100  1
  C  1394  1  0.00195400  0.09304300  0.62901600  1
  C  1395  1  0.03128100  0.10814500  0.63561000  1
  C  1396  1  0.02917400  0.13611300  0.63640700  1
  C  1397  1  0.91645390  0.24496400  0.67625300  1
  C  1398  1  0.87772900  0.23813300  0.67464600  1
  C  1399  1  0.93055190  0.25003600  0.69031800  1
  C  1400  1  0.90649090  0.24821700  0.70248200  1
  C  1401  1  0.86779100  0.24104600  0.70092200  1
  C  1402  1  0.85383100  0.23602700  0.68681400  1
  C  1429  1  0.08003800  0.25963400  0.53854200  1
  C  1430  1  0.00279500  0.06530600  0.62817900  1
  C  1431  1  0.84410100  0.23743900  0.71278700  1
  C  1432  1  0.00550700  0.43034000  0.62964300  1
  C  1437  1  0.15575900  0.70053400  0.66465300  1
  C  1438  1  0.13998200  0.68048700  0.65635600  1
  C  1439  1  0.12082800  0.69216700  0.64473800  1
  C  1441  1  0.14553200  0.72499400  0.65860400  1
  C  1442  1  0.15560900  0.75039500  0.66429800  1
  C  1443  1  0.14435600  0.77514100  0.65818600  1
  C  1445  1  0.11984600  0.80565300  0.64311400  1
  C  1446  1  0.13517400  0.81904200  0.65500600  1
  C  1447  1  0.15061900  0.80027800  0.66420700  1
  C  1448  1  0.10306000  0.81765000  0.63074700  1
  C  1449  1  0.09026300  0.80334000  0.61836300  1
  C  1451  1  0.07582100  0.77038800  0.60269300  1
  C  1452  1  0.07095300  0.79469400  0.59559400  1
  C  1453  1  0.07896700  0.81486700  0.60527800  1
  C  1454  1  0.06971100  0.74495400  0.59634200  1
  C  1455  1  0.07371600  0.72033300  0.60372200  1
  C  1457  1  0.08793900  0.68994800  0.62060000  1
  C  1458  1  0.07340100  0.67655900  0.60854700  1
  C  1459  1  0.06509000  0.69526100  0.59807900  1
  C  1460  1  0.10249800  0.67794100  0.63337100  1
  C  1461  1  0.10111200  0.64957600  0.63415400  1
  C  1462  1  0.06756100  0.63642900  0.63856200  1
  C  1463  1  0.06523000  0.60844300  0.63831700  1
  C  1464  1  0.09629000  0.59273000  0.63361400  1
  C  1465  1  0.12984900  0.60615900  0.62927100  1
  C  1466  1  0.13221200  0.63411800  0.62945700  1
  C  1467  1  0.06410800  0.74370300  0.58106600  1
  C  1468  1  0.02807800  0.74719100  0.57460600  1
  C  1469  1  0.02379200  0.74525500  0.55945100  1
  C  1470  1  0.05536000  0.73956000  0.55046800  1
  C  1471  1  0.09130800  0.73612000  0.55705500  1
  C  1472  1  0.09567600  0.73827100  0.57211900  1
  C  1473  1  0.10057800  0.84599800  0.63038700  1
  C  1474  1  0.12943100  0.86143400  0.62386500  1
  C  1475  1  0.12545500  0.88921400  0.62257400  1
  C  1476  1  0.09270200  0.90244900  0.62781200  1
  C  1477  1  0.06416200  0.88680400  0.63453200  1
  C  1478  1  0.06797300  0.85900000  0.63576400  1
  C  1479  1  0.17997200  0.75131500  0.67667700  1
  C  1480  1  0.21870600  0.75805800  0.67499100  1
  C  1481  1  0.16601200  0.74634500  0.69077300  1
  C  1482  1  0.19022500  0.74818500  0.70289100  1
  C  1483  1  0.22895000  0.75522500  0.70124500  1
  C  1484  1  0.24276500  0.76016500  0.68711000  1
  C  1511  1  0.05266800  0.73708900  0.53554400  1
  C  1512  1  0.08872100  0.92979700  0.62571200  1
  C  1513  1  0.25281000  0.75879000  0.71305800  1
  C  1514  1  0.09494000  0.56497400  0.63314200  1
  C  1519  1  0.15635300  0.79501100  0.33223000  1
  C  1520  1  0.14051400  0.81493500  0.34057300  1
  C  1521  1  0.12166100  0.80311900  0.35223400  1
  C  1523  1  0.14663700  0.77047400  0.33833300  1
  C  1524  1  0.15723600  0.74516400  0.33267900  1
  C  1525  1  0.14643000  0.72030900  0.33880600  1
  C  1527  1  0.12175700  0.68960500  0.35376400  1
  C  1528  1  0.13848800  0.67630300  0.34213200  1
  C  1529  1  0.15391900  0.69518800  0.33298300  1
  C  1530  1  0.10372200  0.67751900  0.36585900  1
  C  1531  1  0.08869200  0.69171100  0.37790900  1
  C  1533  1  0.07124500  0.72443500  0.39326500  1
  C  1534  1  0.06278100  0.70002200  0.39975200  1
  C  1535  1  0.07301700  0.68001700  0.39028500  1
  C  1536  1  0.06417300  0.74976000  0.39958400  1
  C  1537  1  0.07070000  0.77455900  0.39263900  1
  C  1539  1  0.08782900  0.80513400  0.37621900  1
  C  1540  1  0.07304900  0.81846600  0.38823700  1
  C  1541  1  0.06293500  0.79965400  0.39841800  1
  C  1542  1  0.10323900  0.81723500  0.36361100  1
  C  1543  1  0.10184800  0.84560500  0.36285700  1
  C  1544  1  0.06835100  0.85867900  0.35838700  1
  C  1545  1  0.06601100  0.88666000  0.35861300  1
  C  1546  1  0.09702800  0.90244300  0.36334800  1
  C  1547  1  0.13054200  0.88908600  0.36774700  1
  C  1548  1  0.13291300  0.86112900  0.36757900  1
  C  1549  1  0.05180400  0.75048000  0.41427500  1
  C  1550  1  0.01311900  0.75383400  0.41789200  1
  C  1551  1  0.00192000  0.75630800  0.43248100  1
  C  1552  1  0.02903500  0.75517500  0.44377500  1
  C  1553  1  0.06771800  0.75158600  0.44004600  1
  C  1554  1  0.07896700  0.74926500  0.42549800  1
  C  1555  1  0.10130800  0.64916000  0.36614600  1
  C  1556  1  0.12903900  0.63392300  0.37342700  1
  C  1557  1  0.12497500  0.60614400  0.37470700  1
  C  1558  1  0.09320800  0.59270500  0.36873700  1
  C  1559  1  0.06580300  0.60816100  0.36127600  1
  C  1560  1  0.06974000  0.63596200  0.36001500  1
  C  1561  1  0.18146800  0.74448600  0.32025700  1
  C  1562  1  0.22039000  0.73830100  0.32186600  1
  C  1563  1  0.16713700  0.74906000  0.30617800  1
  C  1564  1  0.19115900  0.74737600  0.29400200  1
  C  1565  1  0.23005500  0.74083500  0.29556700  1
  C  1566  1  0.24425000  0.73630100  0.30968500  1
  C  1593  1  0.01824500  0.75934000  0.45804400  1
  C  1594  1  0.08903600  0.56535200  0.37084200  1
  C  1595  1  0.25372200  0.73731700  0.28369700  1
  C  1596  1  0.09566800  0.93020000  0.36379200  1
  C  1601  1  0.56820700  0.75201100  0.98322800  1
  C  1602  1  0.53593800  0.76044100  0.99098800  1
  C  1603  1  0.53465200  0.75927700  0.00625100  1
  C  1604  1  0.56697200  0.74987100  0.01394700  1
  C  1605  1  0.60006000  0.74162500  0.00626700  1
  C  1607  1  0.60032100  0.74329600  0.99094900  1
  C  1609  1  0.49933400  0.76766600  0.01387600  1
  C  1613  1  0.63436300  0.73032800  0.01336800  1
  C  1619  1  0.52918300  0.25221900  0.01338000  1
  C  1620  1  0.56143600  0.26077600  0.00563300  1
  C  1621  1  0.56285700  0.25945000  0.99037500  1
  C  1622  1  0.53067900  0.24976700  0.98267000  1
  C  1623  1  0.49760500  0.24139400  0.99033900  1
  C  1625  1  0.49720600  0.24322200  0.00565100  1
  C  1627  1  0.59817000  0.26795900  0.98276300  1
  C  1631  1  0.46344900  0.22982800  0.98323000  1
  C  1637  1  0.06797300  0.25146900  0.48323600  1
  C  1638  1  0.03575200  0.25996600  0.49100300  1
  C  1639  1  0.03448800  0.25881300  0.50626600  1
  C  1640  1  0.06681200  0.24939400  0.51395600  1
  C  1641  1  0.09985700  0.24108800  0.50627000  1
  C  1643  1  0.10007800  0.24272200  0.49095100  1
  C  1645  1  0.99919594  0.26724000  0.51389700  1
  C  1649  1  0.13415200  0.22976600  0.51336500  1
  C  1655  1  0.02982100  0.75176900  0.51336900  1
  C  1656  1  0.06206000  0.76033500  0.50561700  1
  C  1657  1  0.06345500  0.75901900  0.49036000  1
  C  1658  1  0.03126400  0.74933300  0.48266400  1
  C  1659  1  0.99819594  0.74095800  0.49033600  1
  C  1661  1  0.99783594  0.74276100  0.50564900  1
  C  1663  1  0.09875800  0.76752900  0.48274100  1
  C  1667  1  0.96403490  0.72938900  0.48323500  1
  C  1673  1  0.53950700  0.97035500  0.86578700  1
  C  1674  1  0.57251200  0.97936700  0.85868200  1
  C  1675  1  0.58191100  0.00672900  0.85792300  1
  C  1676  1  0.55772400  0.02563500  0.86473900  1
  C  1677  1  0.52430000  0.01694900  0.87201100  1
  C  1679  1  0.51594000  0.98942400  0.87251700  1
  C  1681  1  0.61649900  0.01521900  0.84988100  1
  C  1685  1  0.49712200  0.03534000  0.87924100  1
  C  1691  1  0.53915000  0.52562200  0.13074900  1
  C  1692  1  0.57215800  0.51664200  0.13783800  1
  C  1693  1  0.58154300  0.48929000  0.13856900  1
  C  1694  1  0.55736300  0.47036700  0.13172300  1
  C  1695  1  0.52394800  0.47902700  0.12445900  1
  C  1697  1  0.51559200  0.50653700  0.12398900  1
  C  1699  1  0.61610200  0.48083700  0.14661900  1
  C  1703  1  0.49676900  0.46062000  0.11719800  1
  C  1709  1  0.55637500  0.02586600  0.13446100  1
  C  1710  1  0.52342200  0.01688200  0.14160000  1
  C  1711  1  0.51374200  0.98955300  0.14218900  1
  C  1712  1  0.53746300  0.97070600  0.13507900  1
  C  1713  1  0.57070500  0.97942200  0.12769200  1
  C  1715  1  0.57942200  0.00690200  0.12740400  1
  C  1717  1  0.47942900  0.98107300  0.15040600  1
  C  1721  1  0.59731700  0.96111800  0.12009600  1
  C  1727  1  0.55715800  0.47011200  0.86220600  1
  C  1728  1  0.52428700  0.47894300  0.85497800  1
  C  1729  1  0.51458200  0.50623900  0.85428900  1
  C  1730  1  0.53820100  0.52522200  0.86137900  1
  C  1731  1  0.57137000  0.51666500  0.86884500  1
  C  1733  1  0.58011000  0.48921100  0.86923600  1
  C  1735  1  0.48034900  0.51454600  0.84599200  1
  C  1739  1  0.59788200  0.53511300  0.87642900  1
  C  1745  1  0.03992400  0.46988400  0.36584400  1
  C  1746  1  0.07294600  0.47888900  0.35875000  1
  C  1747  1  0.08238400  0.50624800  0.35800000  1
  C  1748  1  0.05822000  0.52516700  0.36481900  1
  C  1749  1  0.02478300  0.51648700  0.37208400  1
  C  1751  1  0.01638500  0.48896700  0.37258000  1
  C  1753  1  0.11698600  0.51472200  0.34996300  1
  C  1757  1  0.99762294  0.53488600  0.37931800  1
  C  1763  1  0.03948900  0.02519000  0.63073700  1
  C  1764  1  0.07252000  0.01620400  0.63780900  1
  C  1765  1  0.08194100  0.98885500  0.63851900  1
  C  1766  1  0.05777400  0.96992800  0.63166500  1
  C  1767  1  0.02434300  0.97859400  0.62441400  1
  C  1769  1  0.01595300  0.00610300  0.62396700  1
  C  1771  1  0.11651700  0.98040300  0.64655800  1
  C  1775  1  0.99717694  0.96019200  0.61714300  1
  C  1781  1  0.05688200  0.52539300  0.63457700  1
  C  1782  1  0.02391700  0.51642300  0.64171500  1
  C  1783  1  0.01420900  0.48909800  0.64230700  1
  C  1784  1  0.03791000  0.47023000  0.63520300  1
  C  1785  1  0.07117700  0.47893000  0.62782500  1
  C  1787  1  0.07992200  0.50640700  0.62753300  1
  C  1789  1  0.97987490  0.48064000  0.65051700  1
  C  1793  1  0.09778300  0.46060800  0.62023700  1
  C  1799  1  0.05763800  0.96970400  0.36207100  1
  C  1800  1  0.02476000  0.97850700  0.35483800  1
  C  1801  1  0.01502100  0.00579900  0.35413400  1
  C  1802  1  0.03860600  0.02481300  0.36121600  1
  C  1803  1  0.07179300  0.01628500  0.36868200  1
  C  1805  1  0.08056900  0.98883600  0.36908700  1
  C  1807  1  0.98077490  0.01406800  0.34583300  1
  C  1811  1  0.09828600  0.03476300  0.37625500  1
  C  1817  1  0.31825600  0.74643400  0.76172800  1
  C  1818  1  0.33346500  0.73640300  0.74872200  1
  C  1819  1  0.31180300  0.73528100  0.73581200  1
  C  1820  1  0.27362900  0.74461900  0.73594800  1
  C  1821  1  0.25738900  0.75412100  0.74907100  1
  C  1823  1  0.28001000  0.75491300  0.76172300  1
  C  1825  1  0.32913900  0.72405900  0.72244200  1
  C  1829  1  0.21739400  0.76345200  0.75034300  1
  C  1835  1  0.31786700  0.74962100  0.23473200  1
  C  1836  1  0.33333333  0.75967300  0.24768700  1
  C  1837  1  0.31203900  0.76076900  0.26067300  1
  C  1838  1  0.27385600  0.75136000  0.26067500  1
  C  1839  1  0.25730100  0.74183300  0.24760800  1
  C  1841  1  0.27961600  0.74107900  0.23487600  1
  C  1843  1  0.32969900  0.77205300  0.27397300  1
  C  1847  1  0.21727400  0.73243200  0.24647200  1
  C  1853  1  0.77932000  0.24676400  0.23489700  1
  C  1854  1  0.76404000  0.23670800  0.24789300  1
  C  1855  1  0.78572200  0.23542600  0.26079200  1
  C  1856  1  0.82400400  0.24462000  0.26065900  1
  C  1857  1  0.84030400  0.25417000  0.24755100  1
  C  1859  1  0.81765900  0.25511700  0.23490700  1
  C  1861  1  0.76829700  0.22418500  0.27414900  1
  C  1865  1  0.88039000  0.26338600  0.24628400  1
  C  1871  1  0.77969500  0.24960200  0.76172600  1
  C  1872  1  0.76416200  0.25956100  0.74875800  1
  C  1873  1  0.78553400  0.26070800  0.73577700  1
  C  1874  1  0.82374900  0.25143800  0.73578800  1
  C  1875  1  0.84029800  0.24197200  0.74886200  1
  C  1877  1  0.81796300  0.24116600  0.76158900  1
  C  1879  1  0.76786900  0.27190200  0.72246300  1
  C  1883  1  0.88034100  0.23268800  0.75000900  1
  N  4  1  0.75701500  0.71829000  0.84995300  1
  N  8  1  0.75718200  0.77895400  0.85087000  1
  N  14  1  0.79630700  0.77638600  0.88007500  1
  N  20  1  0.79454200  0.71578900  0.87943400  1
  N  86  1  0.75584600  0.77762300  0.14617100  1
  N  90  1  0.75605800  0.71694000  0.14547100  1
  N  96  1  0.79711200  0.71940200  0.11658300  1
  N  102  1  0.79606300  0.78000700  0.11707300  1
  N  168  1  0.90771800  0.21924300  0.14681300  1
  N  172  1  0.90905900  0.27988900  0.14564100  1
  N  178  1  0.87013000  0.27717100  0.11639400  1
  N  184  1  0.87035400  0.21658000  0.11727700  1
  N  250  1  0.90893800  0.27694500  0.85016700  1
  N  254  1  0.91021000  0.21630300  0.85114600  1
  N  260  1  0.86979900  0.21877200  0.88016500  1
  N  266  1  0.86889500  0.27933800  0.87931500  1
  N  332  1  0.25674900  0.21786900  0.34994300  1
  N  336  1  0.25688900  0.27852500  0.35088100  1
  N  342  1  0.29598900  0.27591900  0.38009000  1
  N  348  1  0.29427600  0.21532400  0.37942000  1
  N  414  1  0.25556200  0.27720000  0.64614400  1
  N  418  1  0.25572400  0.21652300  0.64547600  1
  N  424  1  0.29686700  0.21893000  0.61659900  1
  N  430  1  0.29587500  0.27953800  0.61706700  1
  N  496  1  0.40857500  0.71880200  0.64674200  1
  N  500  1  0.40992700  0.77946000  0.64556000  1
  N  506  1  0.37103100  0.77671600  0.61631800  1
  N  512  1  0.37122700  0.71610700  0.61722200  1
  N  578  1  0.40979900  0.77651500  0.35024800  1
  N  582  1  0.41111200  0.71585500  0.35122600  1
  N  588  1  0.37057100  0.71831800  0.38021300  1
  N  594  1  0.36965400  0.77891100  0.37936300  1
  N  673  1  0.85173000  0.75165600  0.96881200  1
  N  674  1  0.84739700  0.74758700  0.02822900  1
  N  691  1  0.81364600  0.25197000  0.02779900  1
  N  692  1  0.81841600  0.24734500  0.96839800  1
  N  709  1  0.35146600  0.25109800  0.46881900  1
  N  710  1  0.34723100  0.24711300  0.52823800  1
  N  727  1  0.31433600  0.75150300  0.52778200  1
  N  728  1  0.31898300  0.74691800  0.46839400  1
  N  745  1  0.81672800  0.94417600  0.86571400  1
  N  746  1  0.84870800  0.05162800  0.86352500  1
  N  763  1  0.81636900  0.55178900  0.13084700  1
  N  764  1  0.84826500  0.44437400  0.13292000  1
  N  781  1  0.84755600  0.05197300  0.13462600  1
  N  782  1  0.81452700  0.94468900  0.13615100  1
  N  799  1  0.84838200  0.44402600  0.86211600  1
  N  800  1  0.81528800  0.55121300  0.86021000  1
  N  817  1  0.31709700  0.44370400  0.36575900  1
  N  818  1  0.34921600  0.55116600  0.36360500  1
  N  835  1  0.31666800  0.05135900  0.63085700  1
  N  836  1  0.34869100  0.94392700  0.63285000  1
  N  853  1  0.34807400  0.55150500  0.63472300  1
  N  854  1  0.31491300  0.44421300  0.63625900  1
  N  871  1  0.34887800  0.94361200  0.36201200  1
  N  872  1  0.31562600  0.05080500  0.36005400  1
  N  889  1  0.62453200  0.74621100  0.77347300  1
  N  890  1  0.53611500  0.74312900  0.72407900  1
  N  907  1  0.62388700  0.74987900  0.22291400  1
  N  908  1  0.53660100  0.75281700  0.27261400  1
  N  925  1  0.04104300  0.24665900  0.22315800  1
  N  926  1  0.12956500  0.24294400  0.27251700  1
  N  943  1  0.04166500  0.24978500  0.77353800  1
  N  944  1  0.12906200  0.25298500  0.72385600  1
  N  948  1  0.47300000  0.71829000  0.84995300  1
  N  952  1  0.47316700  0.77895400  0.85087000  1
  N  958  1  0.51229200  0.77638600  0.88007500  1
  N  964  1  0.51052700  0.71578900  0.87943400  1
  N  1030  1  0.47183100  0.77762300  0.14617100  1
  N  1034  1  0.47204300  0.71694000  0.14547100  1
  N  1040  1  0.51309700  0.71940200  0.11658300  1
  N  1046  1  0.51204800  0.78000700  0.11707300  1
  N  1112  1  0.62370300  0.21924300  0.14681300  1
  N  1116  1  0.62504400  0.27988900  0.14564100  1
  N  1122  1  0.58611500  0.27717100  0.11639400  1
  N  1128  1  0.58633900  0.21658000  0.11727700  1
  N  1194  1  0.62492300  0.27694500  0.85016700  1
  N  1198  1  0.62619500  0.21630300  0.85114600  1
  N  1204  1  0.58578400  0.21877200  0.88016500  1
  N  1210  1  0.58488000  0.27933800  0.87931500  1
  N  1276  1  0.97273390  0.21786900  0.34994300  1
  N  1280  1  0.97287390  0.27852500  0.35088100  1
  N  1286  1  0.01197400  0.27591900  0.38009000  1
  N  1292  1  0.01026100  0.21532400  0.37942000  1
  N  1358  1  0.97154690  0.27720000  0.64614400  1
  N  1362  1  0.97170890  0.21652300  0.64547600  1
  N  1368  1  0.01285200  0.21893000  0.61659900  1
  N  1374  1  0.01186000  0.27953800  0.61706700  1
  N  1440  1  0.12456000  0.71880200  0.64674200  1
  N  1444  1  0.12591200  0.77946000  0.64556000  1
  N  1450  1  0.08701600  0.77671600  0.61631800  1
  N  1456  1  0.08721200  0.71610700  0.61722200  1
  N  1522  1  0.12578400  0.77651500  0.35024800  1
  N  1526  1  0.12709700  0.71585500  0.35122600  1
  N  1532  1  0.08655600  0.71831800  0.38021300  1
  N  1538  1  0.08563900  0.77891100  0.37936300  1
  N  1617  1  0.56771500  0.75165600  0.96881200  1
  N  1618  1  0.56338200  0.74758700  0.02822900  1
  N  1635  1  0.52963100  0.25197000  0.02779900  1
  N  1636  1  0.53440100  0.24734500  0.96839800  1
  N  1653  1  0.06745100  0.25109800  0.46881900  1
  N  1654  1  0.06321600  0.24711300  0.52823800  1
  N  1671  1  0.03032100  0.75150300  0.52778200  1
  N  1672  1  0.03496800  0.74691800  0.46839400  1
  N  1689  1  0.53271300  0.94417600  0.86571400  1
  N  1690  1  0.56469300  0.05162800  0.86352500  1
  N  1707  1  0.53235400  0.55178900  0.13084700  1
  N  1708  1  0.56425000  0.44437400  0.13292000  1
  N  1725  1  0.56354100  0.05197300  0.13462600  1
  N  1726  1  0.53051200  0.94468900  0.13615100  1
  N  1743  1  0.56436700  0.44402600  0.86211600  1
  N  1744  1  0.53127300  0.55121300  0.86021000  1
  N  1761  1  0.03308200  0.44370400  0.36575900  1
  N  1762  1  0.06520100  0.55116600  0.36360500  1
  N  1779  1  0.03265300  0.05135900  0.63085700  1
  N  1780  1  0.06467600  0.94392700  0.63285000  1
  N  1797  1  0.06405900  0.55150500  0.63472300  1
  N  1798  1  0.03089800  0.44421300  0.63625900  1
  N  1815  1  0.06486300  0.94361200  0.36201200  1
  N  1816  1  0.03161100  0.05080500  0.36005400  1
  N  1833  1  0.34051700  0.74621100  0.77347300  1
  N  1834  1  0.25210000  0.74312900  0.72407900  1
  N  1851  1  0.33987200  0.74987900  0.22291400  1
  N  1852  1  0.25258600  0.75281700  0.27261400  1
  N  1869  1  0.75702800  0.24665900  0.22315800  1
  N  1870  1  0.84555000  0.24294400  0.27251700  1
  N  1887  1  0.75765000  0.24978500  0.77353800  1
  N  1888  1  0.84504700  0.25298500  0.72385600  1
