# generated using pymatgen
data_H18(C4N)7
_symmetry_space_group_name_H-M   'P 1'
_cell_length_a   25.62400000
_cell_length_b   25.62400000
_cell_length_c   102.49600000
_cell_angle_alpha   90.00000000
_cell_angle_beta   90.00000000
_cell_angle_gamma   90.00000000
_symmetry_Int_Tables_number   1
_chemical_formula_structural   H18(C4N)7
_chemical_formula_sum   'H432 C672 N168'
_cell_volume   67297.78468250
_cell_formula_units_Z   24
loop_
 _symmetry_equiv_pos_site_id
 _symmetry_equiv_pos_as_xyz
  1  'x, y, z'
loop_
 _atom_site_type_symbol
 _atom_site_label
 _atom_site_symmetry_multiplicity
 _atom_site_fract_x
 _atom_site_fract_y
 _atom_site_fract_z
 _atom_site_occupancy
  H  49  1  0.91944600  0.04063900  0.21011200  1
  H  50  1  0.91908300  0.03846500  0.18669400  1
  H  51  1  0.07429300  0.98502100  0.21030400  1
  H  52  1  0.07440600  0.98373300  0.18688500  1
  H  53  1  0.98960200  0.90566200  0.17970900  1
  H  54  1  0.98978200  0.83585600  0.16225600  1
  H  55  1  0.00004600  0.97757800  0.14425500  1
  H  56  1  0.99800500  0.04220400  0.12799800  1
  H  57  1  0.00350300  0.11601000  0.18004000  1
  H  58  1  0.00358100  0.18577800  0.16251100  1
  H  59  1  0.92114700  0.21581200  0.13249300  1
  H  60  1  0.92549800  0.30943700  0.13275500  1
  H  61  1  0.08288900  0.20800500  0.13999300  1
  H  62  1  0.08707000  0.30144000  0.14041200  1
  H  63  1  0.99889000  0.18418700  0.10993600  1
  H  64  1  0.99759500  0.11434200  0.09247900  1
  H  65  1  0.99873800  0.83395500  0.10970400  1
  H  66  1  0.00024100  0.90387000  0.09215200  1
  H  67  1  0.08048600  0.02613400  0.08628900  1
  H  68  1  0.08385800  0.02751700  0.06298300  1
  H  69  1  0.91918400  0.99381300  0.08472800  1
  H  70  1  0.92274700  0.99436000  0.06130800  1
  H  71  1  0.91484800  0.80655900  0.13896200  1
  H  72  1  0.91641700  0.71281100  0.13885100  1
  H  73  1  0.07913200  0.71607400  0.13260300  1
  H  74  1  0.07770200  0.80930700  0.13295200  1
  H  127  1  0.98083700  0.91959800  0.71016100  1
  H  128  1  0.98296800  0.91913700  0.68674400  1
  H  129  1  0.03666900  0.07436900  0.71030900  1
  H  130  1  0.03789200  0.07439600  0.68688800  1
  H  131  1  0.11589400  0.98989100  0.67971800  1
  H  132  1  0.18562300  0.98975100  0.66224800  1
  H  133  1  0.04381000  0.99939400  0.64426800  1
  H  134  1  0.97910800  0.99634200  0.62803500  1
  H  135  1  0.90554100  0.00375700  0.68008500  1
  H  136  1  0.83569600  0.00351500  0.66257400  1
  H  137  1  0.80536900  0.92042100  0.63264700  1
  H  138  1  0.71175800  0.92496400  0.63290700  1
  H  139  1  0.81350600  0.08227200  0.63997700  1
  H  140  1  0.72007800  0.08664600  0.64039700  1
  H  141  1  0.83705400  0.99715400  0.61000600  1
  H  142  1  0.90680900  0.99468000  0.59253800  1
  H  143  1  0.18728200  0.99649800  0.60968000  1
  H  144  1  0.11727400  0.99683000  0.59214300  1
  H  145  1  0.99530000  0.07624400  0.58586800  1
  H  146  1  0.99374700  0.07751400  0.56254800  1
  H  147  1  0.02701600  0.91472700  0.58520100  1
  H  148  1  0.02629500  0.91616300  0.56177000  1
  H  149  1  0.21497300  0.91422000  0.63908000  1
  H  150  1  0.30871600  0.91599600  0.63896800  1
  H  151  1  0.30509200  0.07853000  0.63243900  1
  H  152  1  0.21185500  0.07689400  0.63278500  1
  H  205  1  0.10402100  0.02134600  0.81203300  1
  H  206  1  0.10307600  0.02252400  0.83543200  1
  H  207  1  0.94176800  0.99329000  0.81171700  1
  H  208  1  0.94078500  0.99475000  0.83509900  1
  H  209  1  0.02203100  0.90398000  0.84223700  1
  H  210  1  0.02225700  0.83422100  0.85972300  1
  H  211  1  0.02228100  0.97633400  0.87773100  1
  H  212  1  0.02037900  0.04106000  0.89393400  1
  H  213  1  0.02146600  0.11434900  0.84180700  1
  H  214  1  0.02149800  0.18443400  0.85930800  1
  H  215  1  0.09832200  0.21427200  0.89005500  1
  H  216  1  0.09446600  0.30793300  0.88976100  1
  H  217  1  0.93773700  0.20729500  0.88109000  1
  H  218  1  0.93407600  0.30072300  0.88064300  1
  H  219  1  0.01864500  0.18314800  0.91192900  1
  H  220  1  0.01880300  0.11340100  0.92941900  1
  H  221  1  0.02213000  0.83286700  0.91230600  1
  H  222  1  0.01965900  0.90282100  0.92981700  1
  H  223  1  0.93982100  0.02526900  0.93686700  1
  H  224  1  0.94158900  0.02416100  0.96029200  1
  H  225  1  0.10077900  0.99072200  0.93602200  1
  H  226  1  0.10236600  0.98899000  0.95939500  1
  H  227  1  0.10345400  0.80595800  0.88236900  1
  H  228  1  0.10269300  0.71219500  0.88247800  1
  H  229  1  0.94086700  0.71405600  0.89006100  1
  H  230  1  0.94146000  0.80732800  0.88972800  1
  H  283  1  0.02133000  0.91680700  0.31189400  1
  H  284  1  0.02283500  0.91727200  0.33529000  1
  H  285  1  0.99359900  0.07911900  0.31180700  1
  H  286  1  0.99539000  0.07962500  0.33519100  1
  H  287  1  0.90458400  0.99840700  0.34242400  1
  H  288  1  0.83538000  0.99754400  0.36004300  1
  H  289  1  0.97803500  0.99701300  0.37777600  1
  H  290  1  0.04325600  0.99584300  0.39382300  1
  H  291  1  0.11491700  0.99878900  0.34156500  1
  H  292  1  0.18557400  0.99803200  0.35892200  1
  H  293  1  0.21663300  0.92079600  0.38975600  1
  H  294  1  0.31024700  0.92517500  0.38952800  1
  H  295  1  0.20885000  0.08124200  0.38067500  1
  H  296  1  0.30227300  0.08542700  0.38029800  1
  H  297  1  0.18588900  0.00078300  0.41152700  1
  H  298  1  0.11680500  0.99951900  0.42914600  1
  H  299  1  0.83565300  0.99622100  0.41264400  1
  H  300  1  0.90624700  0.99750900  0.43002700  1
  H  301  1  0.02960400  0.08047400  0.43536300  1
  H  302  1  0.03178700  0.08482800  0.45871400  1
  H  303  1  0.99544100  0.91961300  0.43744300  1
  H  304  1  0.99700200  0.92415200  0.46084000  1
  H  305  1  0.80746100  0.91573000  0.38256400  1
  H  306  1  0.71371300  0.91701400  0.38260400  1
  H  307  1  0.71637400  0.07866800  0.39039200  1
  H  308  1  0.80965800  0.07755200  0.39013700  1
  H  320  1  0.94227600  0.89091000  0.27228300  1
  H  321  1  0.94596000  0.92853900  0.28534400  1
  H  322  1  0.97321500  0.91729100  0.25138600  1
  H  324  1  0.03035200  0.95015500  0.23126200  1
  H  326  1  0.98257800  0.06097800  0.28911200  1
  H  334  1  0.13087700  0.94279100  0.77237000  1
  H  335  1  0.09319400  0.94647500  0.78542000  1
  H  336  1  0.10442200  0.97334400  0.75143500  1
  H  338  1  0.07179300  0.02994100  0.73126800  1
  H  340  1  0.96043100  0.98225400  0.78906800  1
  H  348  1  0.14536800  0.02603700  0.99888300  1
  H  349  1  0.10822200  0.03355800  0.98590700  1
  H  350  1  0.11197600  0.01198900  0.01997800  1
  H  352  1  0.07522200  0.99523000  0.04145900  1
  H  354  1  0.96554300  0.03901400  0.98301900  1
  H  362  1  0.99535500  0.13241500  0.49794200  1
  H  363  1  0.98784600  0.09389400  0.48521500  1
  H  364  1  0.00900200  0.10127400  0.51926800  1
  H  366  1  0.02494400  0.06686500  0.54101300  1
  H  368  1  0.98139500  0.95108000  0.48332000  1
  H  376  1  0.13360100  0.45823400  0.13194600  1
  H  377  1  0.09521100  0.40733600  0.12990000  1
  H  378  1  0.10224500  0.54331400  0.13555700  1
  H  380  1  0.06734100  0.62988900  0.14003500  1
  H  382  1  0.95229400  0.39930900  0.12841800  1
  H  390  1  0.56320200  0.13334200  0.63201300  1
  H  391  1  0.61416600  0.09498700  0.63005500  1
  H  392  1  0.47801200  0.10196900  0.63547700  1
  H  394  1  0.39134700  0.06715700  0.63984800  1
  H  396  1  0.62201000  0.95190700  0.62850700  1
  H  404  1  0.88687800  0.45668900  0.89006200  1
  H  405  1  0.92545900  0.40591200  0.89210100  1
  H  406  1  0.91799400  0.54186600  0.88639600  1
  H  408  1  0.95268800  0.62851200  0.88189200  1
  H  410  1  0.06782200  0.39811500  0.89369900  1
  H  418  1  0.45840600  0.13321000  0.39000100  1
  H  419  1  0.40757800  0.09458300  0.39191400  1
  H  420  1  0.54375100  0.10214400  0.38650100  1
  H  422  1  0.63065000  0.06752700  0.38227900  1
  H  424  1  0.39996100  0.95233700  0.39360700  1
  H  473  1  0.19262700  0.31382000  0.23938100  1
  H  474  1  0.19226400  0.31164600  0.21596300  1
  H  475  1  0.34747400  0.25820200  0.23957300  1
  H  476  1  0.34758700  0.25691400  0.21615400  1
  H  477  1  0.26278300  0.17884300  0.20897800  1
  H  478  1  0.26296300  0.10903700  0.19152500  1
  H  479  1  0.27322700  0.25075900  0.17352400  1
  H  480  1  0.27118600  0.31538500  0.15726700  1
  H  481  1  0.27668400  0.38919100  0.20930900  1
  H  482  1  0.27676200  0.45895900  0.19178000  1
  H  483  1  0.19432800  0.48899300  0.16176200  1
  H  484  1  0.19867900  0.58261800  0.16202400  1
  H  485  1  0.35607000  0.48118600  0.16926200  1
  H  486  1  0.36025100  0.57462100  0.16968100  1
  H  487  1  0.27207100  0.45736800  0.13920500  1
  H  488  1  0.27077600  0.38752300  0.12174800  1
  H  489  1  0.27191900  0.10713600  0.13897300  1
  H  490  1  0.27342200  0.17705100  0.12142100  1
  H  491  1  0.35366700  0.29931500  0.11555800  1
  H  492  1  0.35703900  0.30069800  0.09225230  1
  H  493  1  0.19236500  0.26699400  0.11399700  1
  H  494  1  0.19592800  0.26754100  0.09057730  1
  H  495  1  0.18802900  0.07974040  0.16823100  1
  H  496  1  0.18959800  0.98599200  0.16812000  1
  H  497  1  0.35231300  0.98925500  0.16187200  1
  H  498  1  0.35088300  0.08248840  0.16222100  1
  H  551  1  0.25401800  0.19277900  0.73943000  1
  H  552  1  0.25614900  0.19231800  0.71601300  1
  H  553  1  0.30985000  0.34755000  0.73957800  1
  H  554  1  0.31107300  0.34757700  0.71615700  1
  H  555  1  0.38907500  0.26307200  0.70898700  1
  H  556  1  0.45880400  0.26293200  0.69151700  1
  H  557  1  0.31699100  0.27257500  0.67353700  1
  H  558  1  0.25228900  0.26952300  0.65730400  1
  H  559  1  0.17872200  0.27693800  0.70935400  1
  H  560  1  0.10887700  0.27669600  0.69184300  1
  H  561  1  0.07855040  0.19360200  0.66191600  1
  H  562  1  0.98493900  0.19814500  0.66217600  1
  H  563  1  0.08668740  0.35545300  0.66924600  1
  H  564  1  0.99325900  0.35982700  0.66966600  1
  H  565  1  0.11023500  0.27033500  0.63927500  1
  H  566  1  0.17999000  0.26786100  0.62180700  1
  H  567  1  0.46046300  0.26967900  0.63894900  1
  H  568  1  0.39045500  0.27001100  0.62141200  1
  H  569  1  0.26848100  0.34942500  0.61513700  1
  H  570  1  0.26692800  0.35069500  0.59181700  1
  H  571  1  0.30019700  0.18790800  0.61447000  1
  H  572  1  0.29947600  0.18934400  0.59103900  1
  H  573  1  0.48815400  0.18740100  0.66834900  1
  H  574  1  0.58189700  0.18917700  0.66823700  1
  H  575  1  0.57827300  0.35171100  0.66170800  1
  H  576  1  0.48503600  0.35007500  0.66205400  1
  H  629  1  0.37720200  0.29452700  0.84130200  1
  H  630  1  0.37625700  0.29570500  0.86470100  1
  H  631  1  0.21494900  0.26647100  0.84098600  1
  H  632  1  0.21396600  0.26793100  0.86436800  1
  H  633  1  0.29521200  0.17716100  0.87150600  1
  H  634  1  0.29543800  0.10740200  0.88899200  1
  H  635  1  0.29546200  0.24951500  0.90700000  1
  H  636  1  0.29356000  0.31424100  0.92320300  1
  H  637  1  0.29464700  0.38753000  0.87107600  1
  H  638  1  0.29467900  0.45761500  0.88857700  1
  H  639  1  0.37150300  0.48745300  0.91932400  1
  H  640  1  0.36764700  0.58111400  0.91903000  1
  H  641  1  0.21091800  0.48047600  0.91035900  1
  H  642  1  0.20725700  0.57390400  0.90991200  1
  H  643  1  0.29182600  0.45632900  0.94119800  1
  H  644  1  0.29198400  0.38658200  0.95868800  1
  H  645  1  0.29531100  0.10604800  0.94157500  1
  H  646  1  0.29284000  0.17600200  0.95908600  1
  H  647  1  0.21300200  0.29845000  0.96613600  1
  H  648  1  0.21477000  0.29734200  0.98956100  1
  H  649  1  0.37396000  0.26390300  0.96529100  1
  H  650  1  0.37554700  0.26217100  0.98866400  1
  H  651  1  0.37663500  0.07913940  0.91163800  1
  H  652  1  0.37587400  0.98537600  0.91174700  1
  H  653  1  0.21404800  0.98723700  0.91933000  1
  H  654  1  0.21464100  0.08050940  0.91899700  1
  H  707  1  0.29451100  0.18998800  0.34116300  1
  H  708  1  0.29601600  0.19045300  0.36455900  1
  H  709  1  0.26678000  0.35230000  0.34107600  1
  H  710  1  0.26857100  0.35280600  0.36446000  1
  H  711  1  0.17776500  0.27158800  0.37169300  1
  H  712  1  0.10856100  0.27072500  0.38931200  1
  H  713  1  0.25121600  0.27019400  0.40704500  1
  H  714  1  0.31643700  0.26902400  0.42309200  1
  H  715  1  0.38809800  0.27197000  0.37083400  1
  H  716  1  0.45875500  0.27121300  0.38819100  1
  H  717  1  0.48981400  0.19397700  0.41902500  1
  H  718  1  0.58342800  0.19835600  0.41879700  1
  H  719  1  0.48203100  0.35442300  0.40994400  1
  H  720  1  0.57545400  0.35860800  0.40956700  1
  H  721  1  0.45907000  0.27396400  0.44079600  1
  H  722  1  0.38998600  0.27270000  0.45841500  1
  H  723  1  0.10883400  0.26940200  0.44191300  1
  H  724  1  0.17942800  0.27069000  0.45929600  1
  H  725  1  0.30278500  0.35365500  0.46463200  1
  H  726  1  0.30496800  0.35800900  0.48798300  1
  H  727  1  0.26862200  0.19279400  0.46671200  1
  H  728  1  0.27018300  0.19733300  0.49010900  1
  H  729  1  0.08064240  0.18891100  0.41183300  1
  H  730  1  0.98689400  0.19019500  0.41187300  1
  H  731  1  0.98955500  0.35184900  0.41966100  1
  H  732  1  0.08283940  0.35073300  0.41940600  1
  H  744  1  0.21545700  0.16409100  0.30155200  1
  H  745  1  0.21914100  0.20172000  0.31461300  1
  H  746  1  0.24639600  0.19047200  0.28065500  1
  H  748  1  0.30353300  0.22333600  0.26053100  1
  H  750  1  0.25575900  0.33415900  0.31838100  1
  H  758  1  0.40405800  0.21597200  0.80163900  1
  H  759  1  0.36637500  0.21965600  0.81468900  1
  H  760  1  0.37760300  0.24652500  0.78070400  1
  H  762  1  0.34497400  0.30312200  0.76053700  1
  H  764  1  0.23361200  0.25543500  0.81833700  1
  H  772  1  0.41854900  0.29921800  0.02815230  1
  H  773  1  0.38140300  0.30673900  0.01517630  1
  H  774  1  0.38515700  0.28517000  0.04924730  1
  H  776  1  0.34840300  0.26841100  0.07072830  1
  H  778  1  0.23872400  0.31219500  0.01228830  1
  H  786  1  0.26853600  0.40559600  0.52721100  1
  H  787  1  0.26102700  0.36707500  0.51448400  1
  H  788  1  0.28218300  0.37445500  0.54853700  1
  H  790  1  0.29812500  0.34004600  0.57028200  1
  H  792  1  0.25457600  0.22426100  0.51258900  1
  H  800  1  0.40678200  0.73141500  0.16121500  1
  H  801  1  0.36839200  0.68051700  0.15916900  1
  H  802  1  0.37542600  0.81649500  0.16482600  1
  H  804  1  0.34052200  0.90307000  0.16930400  1
  H  806  1  0.22547500  0.67249000  0.15768700  1
  H  814  1  0.83638300  0.40652300  0.66128200  1
  H  815  1  0.88734700  0.36816800  0.65932400  1
  H  816  1  0.75119300  0.37515000  0.66474600  1
  H  818  1  0.66452800  0.34033800  0.66911700  1
  H  820  1  0.89519100  0.22508800  0.65777600  1
  H  828  1  0.16005900  0.72987000  0.91933100  1
  H  829  1  0.19864000  0.67909300  0.92137000  1
  H  830  1  0.19117500  0.81504700  0.91566500  1
  H  832  1  0.22586900  0.90169300  0.91116100  1
  H  834  1  0.34100300  0.67129600  0.92296800  1
  H  842  1  0.73158700  0.40639100  0.41927000  1
  H  843  1  0.68075900  0.36776400  0.42118300  1
  H  844  1  0.81693200  0.37532500  0.41577000  1
  H  846  1  0.90383100  0.34070800  0.41154800  1
  H  848  1  0.67314200  0.22551800  0.42287600  1
  H  897  1  0.46580900  0.58700200  0.26865100  1
  H  898  1  0.46544600  0.58482800  0.24523300  1
  H  899  1  0.62065600  0.53138400  0.26884300  1
  H  900  1  0.62076900  0.53009600  0.24542400  1
  H  901  1  0.53596500  0.45202500  0.23824800  1
  H  902  1  0.53614500  0.38221900  0.22079500  1
  H  903  1  0.54640900  0.52394100  0.20279400  1
  H  904  1  0.54436800  0.58856700  0.18653700  1
  H  905  1  0.54986600  0.66237300  0.23857900  1
  H  906  1  0.54994400  0.73214100  0.22105000  1
  H  907  1  0.46751000  0.76217500  0.19103200  1
  H  908  1  0.47186100  0.85580000  0.19129400  1
  H  909  1  0.62925200  0.75436800  0.19853200  1
  H  910  1  0.63343300  0.84780300  0.19895100  1
  H  911  1  0.54525300  0.73055000  0.16847500  1
  H  912  1  0.54395800  0.66070500  0.15101800  1
  H  913  1  0.54510100  0.38031800  0.16824300  1
  H  914  1  0.54660400  0.45023300  0.15069100  1
  H  915  1  0.62684900  0.57249700  0.14482800  1
  H  916  1  0.63022100  0.57388000  0.12152200  1
  H  917  1  0.46554700  0.54017600  0.14326700  1
  H  918  1  0.46911000  0.54072300  0.11984700  1
  H  919  1  0.46121100  0.35292200  0.19750100  1
  H  920  1  0.46278000  0.25917400  0.19739000  1
  H  921  1  0.62549500  0.26243700  0.19114200  1
  H  922  1  0.62406500  0.35567000  0.19149100  1
  H  975  1  0.52720000  0.46596100  0.76870000  1
  H  976  1  0.52933100  0.46550000  0.74528300  1
  H  977  1  0.58303200  0.62073200  0.76884800  1
  H  978  1  0.58425500  0.62075900  0.74542700  1
  H  979  1  0.66225700  0.53625400  0.73825700  1
  H  980  1  0.73198600  0.53611400  0.72078700  1
  H  981  1  0.59017300  0.54575700  0.70280700  1
  H  982  1  0.52547100  0.54270500  0.68657400  1
  H  983  1  0.45190400  0.55012000  0.73862400  1
  H  984  1  0.38205900  0.54987800  0.72111300  1
  H  985  1  0.35173200  0.46678400  0.69118600  1
  H  986  1  0.25812100  0.47132700  0.69144600  1
  H  987  1  0.35986900  0.62863500  0.69851600  1
  H  988  1  0.26644100  0.63300900  0.69893600  1
  H  989  1  0.38341700  0.54351700  0.66854500  1
  H  990  1  0.45317200  0.54104300  0.65107700  1
  H  991  1  0.73364500  0.54286100  0.66821900  1
  H  992  1  0.66363700  0.54319300  0.65068200  1
  H  993  1  0.54166300  0.62260700  0.64440700  1
  H  994  1  0.54011000  0.62387700  0.62108700  1
  H  995  1  0.57337900  0.46109000  0.64374000  1
  H  996  1  0.57265800  0.46252600  0.62030900  1
  H  997  1  0.76133600  0.46058300  0.69761900  1
  H  998  1  0.85507900  0.46235900  0.69750700  1
  H  999  1  0.85145500  0.62489300  0.69097800  1
  H  1000  1  0.75821800  0.62325700  0.69132400  1
  H  1053  1  0.65038400  0.56770900  0.87057200  1
  H  1054  1  0.64943900  0.56888700  0.89397100  1
  H  1055  1  0.48813100  0.53965300  0.87025600  1
  H  1056  1  0.48714800  0.54111300  0.89363800  1
  H  1057  1  0.56839400  0.45034300  0.90077600  1
  H  1058  1  0.56862000  0.38058400  0.91826200  1
  H  1059  1  0.56864400  0.52269700  0.93627000  1
  H  1060  1  0.56674200  0.58742300  0.95247300  1
  H  1061  1  0.56782900  0.66071200  0.90034600  1
  H  1062  1  0.56786100  0.73079700  0.91784700  1
  H  1063  1  0.64468500  0.76063500  0.94859400  1
  H  1064  1  0.64082900  0.85429600  0.94830000  1
  H  1065  1  0.48410000  0.75365800  0.93962900  1
  H  1066  1  0.48043900  0.84708600  0.93918200  1
  H  1067  1  0.56500800  0.72951100  0.97046800  1
  H  1068  1  0.56516600  0.65976400  0.98795800  1
  H  1069  1  0.56849300  0.37923000  0.97084500  1
  H  1070  1  0.56602200  0.44918400  0.98835600  1
  H  1071  1  0.48618400  0.57163200  0.99540600  1
  H  1072  1  0.48795200  0.57052400  0.01883060  1
  H  1073  1  0.64714200  0.53708500  0.99456100  1
  H  1074  1  0.64872900  0.53535300  0.01793360  1
  H  1075  1  0.64981700  0.35232100  0.94090800  1
  H  1076  1  0.64905600  0.25855800  0.94101700  1
  H  1077  1  0.48723000  0.26041900  0.94860000  1
  H  1078  1  0.48782300  0.35369100  0.94826700  1
  H  1131  1  0.56769300  0.46317000  0.37043300  1
  H  1132  1  0.56919800  0.46363500  0.39382900  1
  H  1133  1  0.53996200  0.62548200  0.37034600  1
  H  1134  1  0.54175300  0.62598800  0.39373000  1
  H  1135  1  0.45094700  0.54477000  0.40096300  1
  H  1136  1  0.38174300  0.54390700  0.41858200  1
  H  1137  1  0.52439800  0.54337600  0.43631500  1
  H  1138  1  0.58961900  0.54220600  0.45236200  1
  H  1139  1  0.66128000  0.54515200  0.40010400  1
  H  1140  1  0.73193700  0.54439500  0.41746100  1
  H  1141  1  0.76299600  0.46715900  0.44829500  1
  H  1142  1  0.85661000  0.47153800  0.44806700  1
  H  1143  1  0.75521300  0.62760500  0.43921400  1
  H  1144  1  0.84863600  0.63179000  0.43883700  1
  H  1145  1  0.73225200  0.54714600  0.47006600  1
  H  1146  1  0.66316800  0.54588200  0.48768500  1
  H  1147  1  0.38201600  0.54258400  0.47118300  1
  H  1148  1  0.45261000  0.54387200  0.48856600  1
  H  1149  1  0.57596700  0.62683700  0.49390200  1
  H  1150  1  0.57815000  0.63119100  0.51725300  1
  H  1151  1  0.54180400  0.46597600  0.49598200  1
  H  1152  1  0.54336500  0.47051500  0.51937900  1
  H  1153  1  0.35382400  0.46209300  0.44110300  1
  H  1154  1  0.26007600  0.46337700  0.44114300  1
  H  1155  1  0.26273700  0.62503100  0.44893100  1
  H  1156  1  0.35602100  0.62391500  0.44867600  1
  H  1168  1  0.48863900  0.43727300  0.33082200  1
  H  1169  1  0.49232300  0.47490200  0.34388300  1
  H  1170  1  0.51957800  0.46365400  0.30992500  1
  H  1172  1  0.57671500  0.49651800  0.28980100  1
  H  1174  1  0.52894100  0.60734100  0.34765100  1
  H  1182  1  0.67724000  0.48915400  0.83090900  1
  H  1183  1  0.63955700  0.49283800  0.84395900  1
  H  1184  1  0.65078500  0.51970700  0.80997400  1
  H  1186  1  0.61815600  0.57630400  0.78980700  1
  H  1188  1  0.50679400  0.52861700  0.84760700  1
  H  1196  1  0.69173100  0.57240000  0.05742160  1
  H  1197  1  0.65458500  0.57992100  0.04444560  1
  H  1198  1  0.65833900  0.55835200  0.07851660  1
  H  1200  1  0.62158500  0.54159300  0.09999760  1
  H  1202  1  0.51190600  0.58537700  0.04155760  1
  H  1210  1  0.54171800  0.67877800  0.55648100  1
  H  1211  1  0.53420900  0.64025700  0.54375400  1
  H  1212  1  0.55536500  0.64763700  0.57780700  1
  H  1214  1  0.57130700  0.61322800  0.59955200  1
  H  1216  1  0.52775800  0.49744300  0.54185900  1
  H  1224  1  0.67996400  0.00459678  0.19048500  1
  H  1225  1  0.64157400  0.95369900  0.18843900  1
  H  1226  1  0.64860800  0.08967680  0.19409600  1
  H  1228  1  0.61370400  0.17625200  0.19857400  1
  H  1230  1  0.49865700  0.94567200  0.18695700  1
  H  1238  1  0.10956500  0.67970500  0.69055200  1
  H  1239  1  0.16052900  0.64135000  0.68859400  1
  H  1240  1  0.02437480  0.64833200  0.69401600  1
  H  1242  1  0.93771000  0.61352000  0.69838700  1
  H  1244  1  0.16837300  0.49827000  0.68704600  1
  H  1252  1  0.43324100  0.00305178  0.94860100  1
  H  1253  1  0.47182200  0.95227500  0.95064000  1
  H  1254  1  0.46435700  0.08822880  0.94493500  1
  H  1256  1  0.49905100  0.17487500  0.94043100  1
  H  1258  1  0.61418500  0.94447800  0.95223800  1
  H  1266  1  0.00476878  0.67957300  0.44854000  1
  H  1267  1  0.95394100  0.64094600  0.45045300  1
  H  1268  1  0.09011380  0.64850700  0.44504000  1
  H  1270  1  0.17701300  0.61389000  0.44081800  1
  H  1272  1  0.94632400  0.49870000  0.45214600  1
  C  1  1  0.99176000  0.91310800  0.16992900  1
  C  2  1  0.99177600  0.87499100  0.16040100  1
  C  3  1  0.99459000  0.89932800  0.14821900  1
  C  5  1  0.99529200  0.96182000  0.16385600  1
  C  6  1  0.99690800  0.01067200  0.17052400  1
  C  7  1  0.99859800  0.05998100  0.16413700  1
  C  9  1  0.99961600  0.12184500  0.14858000  1
  C  10  1  0.00180200  0.14659200  0.16071200  1
  C  11  1  0.00166100  0.10860200  0.17025700  1
  C  12  1  0.99928900  0.14715900  0.13622200  1
  C  13  1  0.99805500  0.12062300  0.12399700  1
  C  15  1  0.99755200  0.05811200  0.10837400  1
  C  16  1  0.99750500  0.10689400  0.10227400  1
  C  17  1  0.99815300  0.14501600  0.11180200  1
  C  18  1  0.99780600  0.00921300  0.10172600  1
  C  19  1  0.99758700  0.95984900  0.10808500  1
  C  21  1  0.99690000  0.89795800  0.12363300  1
  C  22  1  0.99825400  0.87318400  0.11149600  1
  C  23  1  0.99896500  0.91119900  0.10194800  1
  C  24  1  0.99562000  0.87273200  0.13600000  1
  C  25  1  0.99621700  0.81682300  0.13611300  1
  C  26  1  0.04350800  0.78938000  0.13432300  1
  C  27  1  0.04430900  0.73441200  0.13420600  1
  C  28  1  0.99797700  0.70507600  0.13602500  1
  C  29  1  0.95072900  0.73272200  0.13766800  1
  C  30  1  0.94976100  0.78776800  0.13774700  1
  C  31  1  0.99957300  0.00956000  0.08774400  1
  C  32  1  0.04701400  0.01908700  0.08112800  1
  C  33  1  0.04899200  0.01950300  0.06738800  1
  C  34  1  0.00376500  0.00979000  0.05980300  1
  C  35  1  0.95631700  0.00093200  0.06646600  1
  C  36  1  0.95418600  0.00058000  0.08022200  1
  C  37  1  0.00165400  0.20303000  0.13613900  1
  C  38  1  0.95637200  0.23352700  0.13408900  1
  C  39  1  0.95894800  0.28853200  0.13423400  1
  C  40  1  0.00680900  0.31447600  0.13656500  1
  C  41  1  0.05182400  0.28387100  0.13871600  1
  C  42  1  0.04946500  0.22897300  0.13842400  1
  C  43  1  0.99656800  0.01045400  0.18453100  1
  C  44  1  0.95195400  0.02681500  0.19156500  1
  C  45  1  0.04128000  0.99519500  0.19167400  1
  C  46  1  0.04117100  0.99578800  0.20543000  1
  C  47  1  0.99649400  0.01211100  0.21245000  1
  C  48  1  0.95221600  0.02824200  0.20531400  1
  C  79  1  0.10840000  0.99184200  0.66993800  1
  C  80  1  0.14648200  0.99172900  0.66040000  1
  C  81  1  0.12208500  0.99417200  0.64822100  1
  C  83  1  0.05965800  0.99515200  0.66387300  1
  C  84  1  0.01082500  0.99683000  0.67055000  1
  C  85  1  0.96149200  0.99842200  0.66417400  1
  C  87  1  0.89956200  0.99914400  0.64863200  1
  C  88  1  0.87487000  0.00165400  0.66076700  1
  C  89  1  0.91290100  0.00167300  0.67030100  1
  C  90  1  0.87418700  0.99849200  0.63628100  1
  C  91  1  0.90067000  0.99667800  0.62405400  1
  C  93  1  0.96311500  0.99517100  0.60841800  1
  C  94  1  0.91430600  0.99507400  0.60233100  1
  C  95  1  0.87622800  0.99635400  0.61186500  1
  C  96  1  0.01198500  0.99484000  0.60175800  1
  C  97  1  0.06137800  0.99505000  0.60810200  1
  C  99  1  0.12334000  0.99535900  0.62363200  1
  C  100  1  0.14805900  0.99608500  0.61148400  1
  C  101  1  0.10999600  0.99611200  0.60194500  1
  C  102  1  0.14862500  0.99476200  0.63599200  1
  C  103  1  0.20452900  0.99548400  0.63608800  1
  C  104  1  0.23186100  0.04278400  0.63421300  1
  C  105  1  0.28683000  0.04370300  0.63409200  1
  C  106  1  0.31627000  0.99749300  0.63599600  1
  C  107  1  0.28873000  0.95022500  0.63772100  1
  C  108  1  0.23368600  0.94913600  0.63780100  1
  C  109  1  0.01158600  0.99542500  0.58776900  1
  C  110  1  0.00219600  0.04229500  0.58089200  1
  C  111  1  0.00167300  0.04302700  0.56714400  1
  C  112  1  0.01111400  0.99707600  0.55981200  1
  C  113  1  0.01988900  0.95022100  0.56673900  1
  C  114  1  0.02034600  0.94933500  0.58050300  1
  C  115  1  0.81831800  0.00096300  0.63620900  1
  C  116  1  0.78772500  0.95570800  0.63420900  1
  C  117  1  0.73272600  0.95839700  0.63435000  1
  C  118  1  0.70687900  0.00634800  0.63663300  1
  C  119  1  0.73757700  0.05133600  0.63873800  1
  C  120  1  0.79247100  0.04886300  0.63844400  1
  C  121  1  0.01108700  0.99657200  0.68455700  1
  C  122  1  0.99469900  0.95200500  0.69160400  1
  C  123  1  0.02641500  0.04129900  0.69168700  1
  C  124  1  0.02586400  0.04124000  0.70544300  1
  C  125  1  0.00952500  0.99660400  0.71247500  1
  C  126  1  0.99330600  0.95232100  0.70535400  1
  C  157  1  0.02204200  0.91147600  0.85203000  1
  C  158  1  0.02228200  0.87341500  0.86157200  1
  C  159  1  0.02250300  0.89788800  0.87375800  1
  C  161  1  0.02173200  0.96028200  0.85811800  1
  C  162  1  0.02148700  0.00914600  0.85146500  1
  C  163  1  0.02140700  0.05855200  0.85779400  1
  C  165  1  0.02076300  0.12059500  0.87329800  1
  C  166  1  0.02127500  0.14523000  0.86113700  1
  C  167  1  0.02134300  0.10712400  0.85161300  1
  C  168  1  0.02025300  0.14598500  0.88565000  1
  C  169  1  0.01993700  0.11951200  0.89789200  1
  C  171  1  0.01937600  0.05706900  0.91355100  1
  C  172  1  0.01908000  0.10589100  0.91962700  1
  C  173  1  0.01905300  0.14396000  0.91008000  1
  C  174  1  0.01946200  0.00818600  0.92021000  1
  C  175  1  0.02031000  0.95879100  0.91385900  1
  C  177  1  0.02177100  0.89677900  0.89834400  1
  C  178  1  0.02161400  0.87208000  0.91049200  1
  C  179  1  0.02035200  0.91015000  0.92001800  1
  C  180  1  0.02262500  0.87142000  0.88599400  1
  C  181  1  0.02242600  0.81552000  0.88590700  1
  C  182  1  0.97561900  0.78769000  0.88807800  1
  C  183  1  0.97529900  0.73272200  0.88818100  1
  C  184  1  0.02160900  0.70379600  0.88596600  1
  C  185  1  0.06840000  0.73182100  0.88395000  1
  C  186  1  0.06888100  0.78687100  0.88387100  1
  C  187  1  0.02019000  0.00842500  0.93420300  1
  C  188  1  0.97435500  0.01786900  0.94153100  1
  C  189  1  0.97540900  0.01722500  0.95530000  1
  C  190  1  0.02224400  0.00656300  0.96212100  1
  C  191  1  0.06779800  0.99670500  0.95476700  1
  C  192  1  0.06696500  0.99791900  0.94102900  1
  C  193  1  0.01833400  0.20188400  0.88568200  1
  C  194  1  0.06345200  0.23216300  0.88812800  1
  C  195  1  0.06117200  0.28718900  0.88795900  1
  C  196  1  0.01380300  0.31337100  0.88519800  1
  C  197  1  0.96898900  0.28298600  0.88263500  1
  C  198  1  0.97104200  0.22808400  0.88294800  1
  C  199  1  0.02183800  0.00870200  0.83748600  1
  C  200  1  0.06880900  0.01648000  0.83052500  1
  C  201  1  0.97540500  0.00044400  0.83032400  1
  C  202  1  0.97604100  0.99954600  0.81656400  1
  C  203  1  0.02309900  0.00715600  0.80957400  1
  C  204  1  0.06928200  0.01586500  0.81677700  1
  C  235  1  0.91238600  0.99804400  0.35220300  1
  C  236  1  0.87462800  0.99748200  0.36181900  1
  C  237  1  0.89947200  0.99676700  0.37395900  1
  C  239  1  0.96137900  0.99812600  0.35819500  1
  C  240  1  0.01002100  0.99854700  0.35143900  1
  C  241  1  0.05963700  0.99835200  0.35766400  1
  C  243  1  0.12217800  0.99832500  0.37303700  1
  C  244  1  0.14642800  0.99823900  0.36082800  1
  C  245  1  0.10801000  0.99856300  0.35138500  1
  C  246  1  0.14795100  0.99844200  0.38533500  1
  C  247  1  0.12182200  0.99812600  0.39762100  1
  C  249  1  0.05990400  0.99777400  0.41340000  1
  C  250  1  0.10893000  0.99890200  0.41937400  1
  C  251  1  0.14666500  0.99946800  0.40975400  1
  C  252  1  0.01128000  0.99739600  0.42018100  1
  C  253  1  0.96164000  0.99666600  0.41395400  1
  C  255  1  0.89909700  0.99622500  0.39855400  1
  C  256  1  0.87481200  0.99626000  0.41075600  1
  C  257  1  0.91321300  0.99691600  0.42021100  1
  C  258  1  0.87336800  0.99614700  0.38624600  1
  C  259  1  0.81745500  0.99660000  0.38624800  1
  C  260  1  0.78984800  0.04351600  0.38845400  1
  C  261  1  0.73487300  0.04415700  0.38850300  1
  C  262  1  0.70571300  0.99806700  0.38619500  1
  C  263  1  0.73350700  0.95115800  0.38415400  1
  C  264  1  0.78855700  0.95036200  0.38412300  1
  C  265  1  0.01228000  0.99962000  0.43416400  1
  C  266  1  0.02278000  0.04721200  0.44062700  1
  C  267  1  0.02418300  0.04968700  0.45435300  1
  C  268  1  0.01447100  0.00502500  0.46205300  1
  C  269  1  0.00389000  0.95735900  0.45559200  1
  C  270  1  0.00303900  0.95466200  0.44183900  1
  C  271  1  0.20384200  0.00063500  0.38528400  1
  C  272  1  0.23434600  0.95572800  0.38779400  1
  C  273  1  0.28935300  0.95832300  0.38767100  1
  C  274  1  0.31530900  0.00581800  0.38491200  1
  C  275  1  0.28470400  0.05042200  0.38228300  1
  C  276  1  0.22980600  0.04805900  0.38254800  1
  C  277  1  0.00915400  0.99848500  0.33746200  1
  C  278  1  0.01674700  0.95164600  0.33043300  1
  C  279  1  0.00089300  0.04508500  0.33036600  1
  C  280  1  0.99982300  0.04473400  0.31660600  1
  C  281  1  0.00726200  0.99780600  0.30954900  1
  C  282  1  0.01596400  0.95145800  0.31668600  1
  C  313  1  0.00568900  0.99121400  0.24728100  1
  C  314  1  0.98496600  0.95195000  0.25542000  1
  C  315  1  0.97846800  0.96066900  0.26898600  1
  C  316  1  0.99588600  0.00930600  0.27415500  1
  C  323  1  0.01311000  0.98308100  0.23407700  1
  C  325  1  0.99341500  0.02459200  0.28714800  1
  C  327  1  0.03049800  0.00574000  0.74729700  1
  C  328  1  0.06974200  0.98509900  0.75545700  1
  C  329  1  0.06093000  0.97859300  0.76901800  1
  C  330  1  0.01222700  0.99592800  0.77416400  1
  C  337  1  0.03866400  0.01311100  0.73409100  1
  C  339  1  0.99678300  0.99331000  0.78714200  1
  C  341  1  0.03205200  0.00722600  0.02485000  1
  C  342  1  0.07488600  0.01140100  0.01623400  1
  C  343  1  0.06752200  0.01712400  0.00259000  1
  C  344  1  0.01526800  0.01642600  0.99776100  1
  C  351  1  0.03948700  0.00335500  0.03826500  1
  C  353  1  0.99956600  0.02178400  0.98479400  1
  C  355  1  0.01331700  0.02188900  0.52468700  1
  C  356  1  0.00943900  0.06378700  0.51577900  1
  C  357  1  0.00382300  0.05496500  0.50219300  1
  C  358  1  0.00434200  0.00220400  0.49772400  1
  C  365  1  0.01709200  0.03075400  0.53805000  1
  C  367  1  0.99894100  0.98511800  0.48487000  1
  C  369  1  0.02278900  0.56472000  0.13665000  1
  C  370  1  0.06479200  0.52925700  0.13561600  1
  C  371  1  0.05609700  0.47496400  0.13407800  1
  C  372  1  0.00336300  0.45700100  0.13415300  1
  C  379  1  0.03151500  0.61809600  0.13775200  1
  C  381  1  0.98641000  0.40559600  0.13276100  1
  C  383  1  0.45659500  0.02252900  0.63661100  1
  C  384  1  0.49207300  0.06452000  0.63558100  1
  C  385  1  0.54638600  0.05580500  0.63408800  1
  C  386  1  0.56434100  0.00307000  0.63420100  1
  C  393  1  0.40319600  0.03125300  0.63766400  1
  C  395  1  0.61574200  0.98607000  0.63283000  1
  C  397  1  0.99740400  0.56343200  0.88526400  1
  C  398  1  0.95547800  0.52789500  0.88632100  1
  C  399  1  0.96431000  0.47363000  0.88787000  1
  C  400  1  0.01707900  0.45579500  0.88778200  1
  C  407  1  0.98854500  0.61678000  0.88417200  1
  C  409  1  0.03404400  0.40442500  0.88919600  1
  C  411  1  0.56539100  0.02274500  0.38539500  1
  C  412  1  0.52980000  0.06465600  0.38639200  1
  C  413  1  0.47549100  0.05580200  0.38783700  1
  C  414  1  0.45768000  0.00302700  0.38770800  1
  C  421  1  0.61879400  0.03157800  0.38442000  1
  C  423  1  0.40630200  0.98602800  0.38906600  1
  C  425  1  0.26494100  0.18628900  0.19919800  1
  C  426  1  0.26495700  0.14817200  0.18967000  1
  C  427  1  0.26777100  0.17250900  0.17748800  1
  C  429  1  0.26847300  0.23500100  0.19312500  1
  C  430  1  0.27008900  0.28385300  0.19979300  1
  C  431  1  0.27177900  0.33316200  0.19340600  1
  C  433  1  0.27279700  0.39502600  0.17784900  1
  C  434  1  0.27498300  0.41977300  0.18998100  1
  C  435  1  0.27484200  0.38178300  0.19952600  1
  C  436  1  0.27247000  0.42034000  0.16549100  1
  C  437  1  0.27123600  0.39380400  0.15326600  1
  C  439  1  0.27073300  0.33129300  0.13764300  1
  C  440  1  0.27068600  0.38007500  0.13154300  1
  C  441  1  0.27133400  0.41819700  0.14107100  1
  C  442  1  0.27098700  0.28239400  0.13099500  1
  C  443  1  0.27076800  0.23303000  0.13735400  1
  C  445  1  0.27008100  0.17113900  0.15290200  1
  C  446  1  0.27143500  0.14636500  0.14076500  1
  C  447  1  0.27214600  0.18438000  0.13121700  1
  C  448  1  0.26880100  0.14591300  0.16526900  1
  C  449  1  0.26939800  0.09000440  0.16538200  1
  C  450  1  0.31668900  0.06256140  0.16359200  1
  C  451  1  0.31749000  0.00759339  0.16347500  1
  C  452  1  0.27115800  0.97825700  0.16529400  1
  C  453  1  0.22391000  0.00590339  0.16693700  1
  C  454  1  0.22294200  0.06094940  0.16701600  1
  C  455  1  0.27275400  0.28274100  0.11701300  1
  C  456  1  0.32019500  0.29226800  0.11039700  1
  C  457  1  0.32217300  0.29268400  0.09665730  1
  C  458  1  0.27694600  0.28297100  0.08907230  1
  C  459  1  0.22949800  0.27411300  0.09573530  1
  C  460  1  0.22736700  0.27376100  0.10949100  1
  C  461  1  0.27483500  0.47621100  0.16540800  1
  C  462  1  0.22955300  0.50670800  0.16335800  1
  C  463  1  0.23212900  0.56171300  0.16350300  1
  C  464  1  0.27999000  0.58765700  0.16583400  1
  C  465  1  0.32500500  0.55705200  0.16798500  1
  C  466  1  0.32264600  0.50215400  0.16769300  1
  C  467  1  0.26974900  0.28363500  0.21380000  1
  C  468  1  0.22513500  0.29999600  0.22083400  1
  C  469  1  0.31446100  0.26837600  0.22094300  1
  C  470  1  0.31435200  0.26896900  0.23469900  1
  C  471  1  0.26967500  0.28529200  0.24171900  1
  C  472  1  0.22539700  0.30142300  0.23458300  1
  C  503  1  0.38158100  0.26502300  0.69920700  1
  C  504  1  0.41966300  0.26491000  0.68966900  1
  C  505  1  0.39526600  0.26735300  0.67749000  1
  C  507  1  0.33283900  0.26833300  0.69314200  1
  C  508  1  0.28400600  0.27001100  0.69981900  1
  C  509  1  0.23467300  0.27160300  0.69344300  1
  C  511  1  0.17274300  0.27232500  0.67790100  1
  C  512  1  0.14805100  0.27483500  0.69003600  1
  C  513  1  0.18608200  0.27485400  0.69957000  1
  C  514  1  0.14736800  0.27167300  0.66555000  1
  C  515  1  0.17385100  0.26985900  0.65332300  1
  C  517  1  0.23629600  0.26835200  0.63768700  1
  C  518  1  0.18748700  0.26825500  0.63160000  1
  C  519  1  0.14940900  0.26953500  0.64113400  1
  C  520  1  0.28516600  0.26802100  0.63102700  1
  C  521  1  0.33455900  0.26823100  0.63737100  1
  C  523  1  0.39652100  0.26854000  0.65290100  1
  C  524  1  0.42124000  0.26926600  0.64075300  1
  C  525  1  0.38317700  0.26929300  0.63121400  1
  C  526  1  0.42180600  0.26794300  0.66526100  1
  C  527  1  0.47771000  0.26866500  0.66535700  1
  C  528  1  0.50504200  0.31596500  0.66348200  1
  C  529  1  0.56001100  0.31688400  0.66336100  1
  C  530  1  0.58945100  0.27067400  0.66526500  1
  C  531  1  0.56191100  0.22340600  0.66699000  1
  C  532  1  0.50686700  0.22231700  0.66707000  1
  C  533  1  0.28476700  0.26860600  0.61703800  1
  C  534  1  0.27537700  0.31547600  0.61016100  1
  C  535  1  0.27485400  0.31620800  0.59641300  1
  C  536  1  0.28429500  0.27025700  0.58908100  1
  C  537  1  0.29307000  0.22340200  0.59600800  1
  C  538  1  0.29352700  0.22251600  0.60977200  1
  C  539  1  0.09149940  0.27414400  0.66547800  1
  C  540  1  0.06090640  0.22888900  0.66347800  1
  C  541  1  0.00590739  0.23157800  0.66361900  1
  C  542  1  0.98006000  0.27952900  0.66590200  1
  C  543  1  0.01075840  0.32451700  0.66800700  1
  C  544  1  0.06565240  0.32204400  0.66771300  1
  C  545  1  0.28426800  0.26975300  0.71382600  1
  C  546  1  0.26788000  0.22518600  0.72087300  1
  C  547  1  0.29959600  0.31448000  0.72095600  1
  C  548  1  0.29904500  0.31442100  0.73471200  1
  C  549  1  0.28270600  0.26978500  0.74174400  1
  C  550  1  0.26648700  0.22550200  0.73462300  1
  C  581  1  0.29522300  0.18465700  0.88129900  1
  C  582  1  0.29546300  0.14659600  0.89084100  1
  C  583  1  0.29568400  0.17106900  0.90302700  1
  C  585  1  0.29491300  0.23346300  0.88738700  1
  C  586  1  0.29466800  0.28232700  0.88073400  1
  C  587  1  0.29458800  0.33173300  0.88706300  1
  C  589  1  0.29394400  0.39377600  0.90256700  1
  C  590  1  0.29445600  0.41841100  0.89040600  1
  C  591  1  0.29452400  0.38030500  0.88088200  1
  C  592  1  0.29343400  0.41916600  0.91491900  1
  C  593  1  0.29311800  0.39269300  0.92716100  1
  C  595  1  0.29255700  0.33025000  0.94282000  1
  C  596  1  0.29226100  0.37907200  0.94889600  1
  C  597  1  0.29223400  0.41714100  0.93934900  1
  C  598  1  0.29264300  0.28136700  0.94947900  1
  C  599  1  0.29349100  0.23197200  0.94312800  1
  C  601  1  0.29495200  0.16996000  0.92761300  1
  C  602  1  0.29479500  0.14526100  0.93976100  1
  C  603  1  0.29353300  0.18333100  0.94928700  1
  C  604  1  0.29580600  0.14460100  0.91526300  1
  C  605  1  0.29560700  0.08870140  0.91517600  1
  C  606  1  0.24880000  0.06087140  0.91734700  1
  C  607  1  0.24848000  0.00590339  0.91745000  1
  C  608  1  0.29479000  0.97697700  0.91523500  1
  C  609  1  0.34158100  0.00500239  0.91321900  1
  C  610  1  0.34206200  0.06005240  0.91314000  1
  C  611  1  0.29337100  0.28160600  0.96347200  1
  C  612  1  0.24753600  0.29105000  0.97080000  1
  C  613  1  0.24859000  0.29040600  0.98456900  1
  C  614  1  0.29542500  0.27974400  0.99139000  1
  C  615  1  0.34097900  0.26988600  0.98403600  1
  C  616  1  0.34014600  0.27110000  0.97029800  1
  C  617  1  0.29151500  0.47506500  0.91495100  1
  C  618  1  0.33663300  0.50534400  0.91739700  1
  C  619  1  0.33435300  0.56037000  0.91722800  1
  C  620  1  0.28698400  0.58655200  0.91446700  1
  C  621  1  0.24217000  0.55616700  0.91190400  1
  C  622  1  0.24422300  0.50126500  0.91221700  1
  C  623  1  0.29501900  0.28188300  0.86675500  1
  C  624  1  0.34199000  0.28966100  0.85979400  1
  C  625  1  0.24858600  0.27362500  0.85959300  1
  C  626  1  0.24922200  0.27272700  0.84583300  1
  C  627  1  0.29628000  0.28033700  0.83884300  1
  C  628  1  0.34246300  0.28904600  0.84604600  1
  C  659  1  0.18556700  0.27122500  0.38147200  1
  C  660  1  0.14780900  0.27066300  0.39108800  1
  C  661  1  0.17265300  0.26994800  0.40322800  1
  C  663  1  0.23456000  0.27130700  0.38746400  1
  C  664  1  0.28320200  0.27172800  0.38070800  1
  C  665  1  0.33281800  0.27153300  0.38693300  1
  C  667  1  0.39535900  0.27150600  0.40230600  1
  C  668  1  0.41960900  0.27142000  0.39009700  1
  C  669  1  0.38119100  0.27174400  0.38065400  1
  C  670  1  0.42113200  0.27162300  0.41460400  1
  C  671  1  0.39500300  0.27130700  0.42689000  1
  C  673  1  0.33308500  0.27095500  0.44266900  1
  C  674  1  0.38211100  0.27208300  0.44864300  1
  C  675  1  0.41984600  0.27264900  0.43902300  1
  C  676  1  0.28446100  0.27057700  0.44945000  1
  C  677  1  0.23482100  0.26984700  0.44322300  1
  C  679  1  0.17227800  0.26940600  0.42782300  1
  C  680  1  0.14799300  0.26944100  0.44002500  1
  C  681  1  0.18639400  0.27009700  0.44948000  1
  C  682  1  0.14654900  0.26932800  0.41551500  1
  C  683  1  0.09063640  0.26978100  0.41551700  1
  C  684  1  0.06302940  0.31669700  0.41772300  1
  C  685  1  0.00805439  0.31733800  0.41777200  1
  C  686  1  0.97889400  0.27124800  0.41546400  1
  C  687  1  0.00668839  0.22433900  0.41342300  1
  C  688  1  0.06173840  0.22354300  0.41339200  1
  C  689  1  0.28546100  0.27280100  0.46343300  1
  C  690  1  0.29596100  0.32039300  0.46989600  1
  C  691  1  0.29736400  0.32286800  0.48362200  1
  C  692  1  0.28765200  0.27820600  0.49132200  1
  C  693  1  0.27707100  0.23054000  0.48486100  1
  C  694  1  0.27622000  0.22784300  0.47110800  1
  C  695  1  0.47702300  0.27381600  0.41455300  1
  C  696  1  0.50752700  0.22890900  0.41706300  1
  C  697  1  0.56253400  0.23150400  0.41694000  1
  C  698  1  0.58849000  0.27899900  0.41418100  1
  C  699  1  0.55788500  0.32360300  0.41155200  1
  C  700  1  0.50298700  0.32124000  0.41181700  1
  C  701  1  0.28233500  0.27166600  0.36673100  1
  C  702  1  0.28992800  0.22482700  0.35970200  1
  C  703  1  0.27407400  0.31826600  0.35963500  1
  C  704  1  0.27300400  0.31791500  0.34587500  1
  C  705  1  0.28044300  0.27098700  0.33881800  1
  C  706  1  0.28914500  0.22463900  0.34595500  1
  C  737  1  0.27887000  0.26439500  0.27655000  1
  C  738  1  0.25814700  0.22513100  0.28468900  1
  C  739  1  0.25164900  0.23385000  0.29825500  1
  C  740  1  0.26906700  0.28248700  0.30342400  1
  C  747  1  0.28629100  0.25626200  0.26334600  1
  C  749  1  0.26659600  0.29777300  0.31641700  1
  C  751  1  0.30367900  0.27892100  0.77656600  1
  C  752  1  0.34292300  0.25828000  0.78472600  1
  C  753  1  0.33411100  0.25177400  0.79828700  1
  C  754  1  0.28540800  0.26910900  0.80343300  1
  C  761  1  0.31184500  0.28629200  0.76336000  1
  C  763  1  0.26996400  0.26649100  0.81641100  1
  C  765  1  0.30523300  0.28040700  0.05411930  1
  C  766  1  0.34806700  0.28458200  0.04550330  1
  C  767  1  0.34070300  0.29030500  0.03185930  1
  C  768  1  0.28844900  0.28960700  0.02703030  1
  C  775  1  0.31266800  0.27653600  0.06753430  1
  C  777  1  0.27274700  0.29496500  0.01406330  1
  C  779  1  0.28649800  0.29507000  0.55395600  1
  C  780  1  0.28262000  0.33696800  0.54504800  1
  C  781  1  0.27700400  0.32814600  0.53146200  1
  C  782  1  0.27752300  0.27538500  0.52699300  1
  C  789  1  0.29027300  0.30393500  0.56731900  1
  C  791  1  0.27212200  0.25829900  0.51413900  1
  C  793  1  0.29597000  0.83790100  0.16591900  1
  C  794  1  0.33797300  0.80243800  0.16488500  1
  C  795  1  0.32927800  0.74814500  0.16334700  1
  C  796  1  0.27654400  0.73018200  0.16342200  1
  C  803  1  0.30469600  0.89127700  0.16702100  1
  C  805  1  0.25959100  0.67877700  0.16203000  1
  C  807  1  0.72977600  0.29571000  0.66588000  1
  C  808  1  0.76525400  0.33770100  0.66485000  1
  C  809  1  0.81956700  0.32898600  0.66335700  1
  C  810  1  0.83752200  0.27625100  0.66347000  1
  C  817  1  0.67637700  0.30443400  0.66693300  1
  C  819  1  0.88892300  0.25925100  0.66209900  1
  C  821  1  0.27058500  0.83661300  0.91453300  1
  C  822  1  0.22865900  0.80107600  0.91559000  1
  C  823  1  0.23749100  0.74681100  0.91713900  1
  C  824  1  0.29026000  0.72897600  0.91705100  1
  C  831  1  0.26172600  0.88996100  0.91344100  1
  C  833  1  0.30722500  0.67760600  0.91846500  1
  C  835  1  0.83857200  0.29592600  0.41466400  1
  C  836  1  0.80298100  0.33783700  0.41566100  1
  C  837  1  0.74867200  0.32898300  0.41710600  1
  C  838  1  0.73086100  0.27620800  0.41697700  1
  C  845  1  0.89197500  0.30475900  0.41368900  1
  C  847  1  0.67948300  0.25920900  0.41833500  1
  C  849  1  0.53812300  0.45947100  0.22846800  1
  C  850  1  0.53813900  0.42135400  0.21894000  1
  C  851  1  0.54095300  0.44569100  0.20675800  1
  C  853  1  0.54165500  0.50818300  0.22239500  1
  C  854  1  0.54327100  0.55703500  0.22906300  1
  C  855  1  0.54496100  0.60634400  0.22267600  1
  C  857  1  0.54597900  0.66820800  0.20711900  1
  C  858  1  0.54816500  0.69295500  0.21925100  1
  C  859  1  0.54802400  0.65496500  0.22879600  1
  C  860  1  0.54565200  0.69352200  0.19476100  1
  C  861  1  0.54441800  0.66698600  0.18253600  1
  C  863  1  0.54391500  0.60447500  0.16691300  1
  C  864  1  0.54386800  0.65325700  0.16081300  1
  C  865  1  0.54451600  0.69137900  0.17034100  1
  C  866  1  0.54416900  0.55557600  0.16026500  1
  C  867  1  0.54395000  0.50621200  0.16662400  1
  C  869  1  0.54326300  0.44432100  0.18217200  1
  C  870  1  0.54461700  0.41954700  0.17003500  1
  C  871  1  0.54532800  0.45756200  0.16048700  1
  C  872  1  0.54198300  0.41909500  0.19453900  1
  C  873  1  0.54258000  0.36318600  0.19465200  1
  C  874  1  0.58987100  0.33574300  0.19286200  1
  C  875  1  0.59067200  0.28077500  0.19274500  1
  C  876  1  0.54434000  0.25143900  0.19456400  1
  C  877  1  0.49709200  0.27908500  0.19620700  1
  C  878  1  0.49612400  0.33413100  0.19628600  1
  C  879  1  0.54593600  0.55592300  0.14628300  1
  C  880  1  0.59337700  0.56545000  0.13966700  1
  C  881  1  0.59535500  0.56586600  0.12592700  1
  C  882  1  0.55012800  0.55615300  0.11834200  1
  C  883  1  0.50268000  0.54729500  0.12500500  1
  C  884  1  0.50054900  0.54694300  0.13876100  1
  C  885  1  0.54801700  0.74939300  0.19467800  1
  C  886  1  0.50273500  0.77989000  0.19262800  1
  C  887  1  0.50531100  0.83489500  0.19277300  1
  C  888  1  0.55317200  0.86083900  0.19510400  1
  C  889  1  0.59818700  0.83023400  0.19725500  1
  C  890  1  0.59582800  0.77533600  0.19696300  1
  C  891  1  0.54293100  0.55681700  0.24307000  1
  C  892  1  0.49831700  0.57317800  0.25010400  1
  C  893  1  0.58764300  0.54155800  0.25021300  1
  C  894  1  0.58753400  0.54215100  0.26396900  1
  C  895  1  0.54285700  0.55847400  0.27098900  1
  C  896  1  0.49857900  0.57460500  0.26385300  1
  C  927  1  0.65476300  0.53820500  0.72847700  1
  C  928  1  0.69284500  0.53809200  0.71893900  1
  C  929  1  0.66844800  0.54053500  0.70676000  1
  C  931  1  0.60602100  0.54151500  0.72241200  1
  C  932  1  0.55718800  0.54319300  0.72908900  1
  C  933  1  0.50785500  0.54478500  0.72271300  1
  C  935  1  0.44592500  0.54550700  0.70717100  1
  C  936  1  0.42123300  0.54801700  0.71930600  1
  C  937  1  0.45926400  0.54803600  0.72884000  1
  C  938  1  0.42055000  0.54485500  0.69482000  1
  C  939  1  0.44703300  0.54304100  0.68259300  1
  C  941  1  0.50947800  0.54153400  0.66695700  1
  C  942  1  0.46066900  0.54143700  0.66087000  1
  C  943  1  0.42259100  0.54271700  0.67040400  1
  C  944  1  0.55834800  0.54120300  0.66029700  1
  C  945  1  0.60774100  0.54141300  0.66666667  1
  C  947  1  0.66970300  0.54172200  0.68217100  1
  C  948  1  0.69442200  0.54244800  0.67002300  1
  C  949  1  0.65635900  0.54247500  0.66048400  1
  C  950  1  0.69498800  0.54112500  0.69453100  1
  C  951  1  0.75089200  0.54184700  0.69462700  1
  C  952  1  0.77822400  0.58914700  0.69275200  1
  C  953  1  0.83319300  0.59006600  0.69263100  1
  C  954  1  0.86263300  0.54385600  0.69453500  1
  C  955  1  0.83509300  0.49658800  0.69626000  1
  C  956  1  0.78004900  0.49549900  0.69634000  1
  C  957  1  0.55794900  0.54178800  0.64630800  1
  C  958  1  0.54855900  0.58865800  0.63943100  1
  C  959  1  0.54803600  0.58939000  0.62568300  1
  C  960  1  0.55747700  0.54343900  0.61835100  1
  C  961  1  0.56625200  0.49658400  0.62527800  1
  C  962  1  0.56670900  0.49569800  0.63904200  1
  C  963  1  0.36468100  0.54732600  0.69474800  1
  C  964  1  0.33408800  0.50207100  0.69274800  1
  C  965  1  0.27908900  0.50476000  0.69288900  1
  C  966  1  0.25324200  0.55271100  0.69517200  1
  C  967  1  0.28394000  0.59769900  0.69727700  1
  C  968  1  0.33883400  0.59522600  0.69698300  1
  C  969  1  0.55745000  0.54293500  0.74309600  1
  C  970  1  0.54106200  0.49836800  0.75014300  1
  C  971  1  0.57277800  0.58766200  0.75022600  1
  C  972  1  0.57222700  0.58760300  0.76398200  1
  C  973  1  0.55588800  0.54296700  0.77101400  1
  C  974  1  0.53966900  0.49868400  0.76389300  1
  C  1005  1  0.56840500  0.45783900  0.91056900  1
  C  1006  1  0.56864500  0.41977800  0.92011100  1
  C  1007  1  0.56886600  0.44425100  0.93229700  1
  C  1009  1  0.56809500  0.50664500  0.91665700  1
  C  1010  1  0.56785000  0.55550900  0.91000400  1
  C  1011  1  0.56777000  0.60491500  0.91633300  1
  C  1013  1  0.56712600  0.66695800  0.93183700  1
  C  1014  1  0.56763800  0.69159300  0.91967600  1
  C  1015  1  0.56770600  0.65348700  0.91015200  1
  C  1016  1  0.56661600  0.69234800  0.94418900  1
  C  1017  1  0.56630000  0.66587500  0.95643100  1
  C  1019  1  0.56573900  0.60343200  0.97209000  1
  C  1020  1  0.56544300  0.65225400  0.97816600  1
  C  1021  1  0.56541600  0.69032300  0.96861900  1
  C  1022  1  0.56582500  0.55454900  0.97874900  1
  C  1023  1  0.56667300  0.50515400  0.97239800  1
  C  1025  1  0.56813400  0.44314200  0.95688300  1
  C  1026  1  0.56797700  0.41844300  0.96903100  1
  C  1027  1  0.56671500  0.45651300  0.97855700  1
  C  1028  1  0.56898800  0.41778300  0.94453300  1
  C  1029  1  0.56878900  0.36188300  0.94444600  1
  C  1030  1  0.52198200  0.33405300  0.94661700  1
  C  1031  1  0.52166200  0.27908500  0.94672000  1
  C  1032  1  0.56797200  0.25015900  0.94450500  1
  C  1033  1  0.61476300  0.27818400  0.94248900  1
  C  1034  1  0.61524400  0.33323400  0.94241000  1
  C  1035  1  0.56655300  0.55478800  0.99274200  1
  C  1036  1  0.52071800  0.56423200  0.00006958  1
  C  1037  1  0.52177200  0.56358800  0.01383860  1
  C  1038  1  0.56860700  0.55292600  0.02065960  1
  C  1039  1  0.61416100  0.54306800  0.01330560  1
  C  1040  1  0.61332800  0.54428200  0.99956800  1
  C  1041  1  0.56469700  0.74824700  0.94422100  1
  C  1042  1  0.60981500  0.77852600  0.94666700  1
  C  1043  1  0.60753500  0.83355200  0.94649800  1
  C  1044  1  0.56016600  0.85973400  0.94373700  1
  C  1045  1  0.51535200  0.82934900  0.94117400  1
  C  1046  1  0.51740500  0.77444700  0.94148700  1
  C  1047  1  0.56820100  0.55506500  0.89602500  1
  C  1048  1  0.61517200  0.56284300  0.88906400  1
  C  1049  1  0.52176800  0.54680700  0.88886300  1
  C  1050  1  0.52240400  0.54590900  0.87510300  1
  C  1051  1  0.56946200  0.55351900  0.86811300  1
  C  1052  1  0.61564500  0.56222800  0.87531600  1
  C  1083  1  0.45874900  0.54440700  0.41074200  1
  C  1084  1  0.42099100  0.54384500  0.42035800  1
  C  1085  1  0.44583500  0.54313000  0.43249800  1
  C  1087  1  0.50774200  0.54448900  0.41673400  1
  C  1088  1  0.55638400  0.54491000  0.40997800  1
  C  1089  1  0.60600000  0.54471500  0.41620300  1
  C  1091  1  0.66854100  0.54468800  0.43157600  1
  C  1092  1  0.69279100  0.54460200  0.41936700  1
  C  1093  1  0.65437300  0.54492600  0.40992400  1
  C  1094  1  0.69431400  0.54480500  0.44387400  1
  C  1095  1  0.66818500  0.54448900  0.45616000  1
  C  1097  1  0.60626700  0.54413700  0.47193900  1
  C  1098  1  0.65529300  0.54526500  0.47791300  1
  C  1099  1  0.69302800  0.54583100  0.46829300  1
  C  1100  1  0.55764300  0.54375900  0.47872000  1
  C  1101  1  0.50800300  0.54302900  0.47249300  1
  C  1103  1  0.44546000  0.54258800  0.45709300  1
  C  1104  1  0.42117500  0.54262300  0.46929500  1
  C  1105  1  0.45957600  0.54327900  0.47875000  1
  C  1106  1  0.41973100  0.54251000  0.44478500  1
  C  1107  1  0.36381800  0.54296300  0.44478700  1
  C  1108  1  0.33621100  0.58987900  0.44699300  1
  C  1109  1  0.28123600  0.59052000  0.44704200  1
  C  1110  1  0.25207600  0.54443000  0.44473400  1
  C  1111  1  0.27987000  0.49752100  0.44269300  1
  C  1112  1  0.33492000  0.49672500  0.44266200  1
  C  1113  1  0.55864300  0.54598300  0.49270300  1
  C  1114  1  0.56914300  0.59357500  0.49916600  1
  C  1115  1  0.57054600  0.59605000  0.51289200  1
  C  1116  1  0.56083400  0.55138800  0.52059200  1
  C  1117  1  0.55025300  0.50372200  0.51413100  1
  C  1118  1  0.54940200  0.50102500  0.50037800  1
  C  1119  1  0.75020500  0.54699800  0.44382300  1
  C  1120  1  0.78070900  0.50209100  0.44633300  1
  C  1121  1  0.83571600  0.50468600  0.44621000  1
  C  1122  1  0.86167200  0.55218100  0.44345100  1
  C  1123  1  0.83106700  0.59678500  0.44082200  1
  C  1124  1  0.77616900  0.59442200  0.44108700  1
  C  1125  1  0.55551700  0.54484800  0.39600100  1
  C  1126  1  0.56311000  0.49800900  0.38897200  1
  C  1127  1  0.54725600  0.59144800  0.38890500  1
  C  1128  1  0.54618600  0.59109700  0.37514500  1
  C  1129  1  0.55362500  0.54416900  0.36808800  1
  C  1130  1  0.56232700  0.49782100  0.37522500  1
  C  1161  1  0.55205200  0.53757700  0.30582000  1
  C  1162  1  0.53132900  0.49831300  0.31395900  1
  C  1163  1  0.52483100  0.50703200  0.32752500  1
  C  1164  1  0.54224900  0.55566900  0.33269400  1
  C  1171  1  0.55947300  0.52944400  0.29261600  1
  C  1173  1  0.53977800  0.57095500  0.34568700  1
  C  1175  1  0.57686100  0.55210300  0.80583600  1
  C  1176  1  0.61610500  0.53146200  0.81399600  1
  C  1177  1  0.60729300  0.52495600  0.82755700  1
  C  1178  1  0.55859000  0.54229100  0.83270300  1
  C  1185  1  0.58502700  0.55947400  0.79263000  1
  C  1187  1  0.54314600  0.53967300  0.84568100  1
  C  1189  1  0.57841500  0.55358900  0.08338860  1
  C  1190  1  0.62124900  0.55776400  0.07477260  1
  C  1191  1  0.61388500  0.56348700  0.06112860  1
  C  1192  1  0.56163100  0.56278900  0.05629960  1
  C  1199  1  0.58585000  0.54971800  0.09680360  1
  C  1201  1  0.54592900  0.56814700  0.04333260  1
  C  1203  1  0.55968000  0.56825200  0.58322600  1
  C  1204  1  0.55580200  0.61015000  0.57431800  1
  C  1205  1  0.55018600  0.60132800  0.56073200  1
  C  1206  1  0.55070500  0.54856700  0.55626300  1
  C  1213  1  0.56345500  0.57711700  0.59658900  1
  C  1215  1  0.54530400  0.53148100  0.54340900  1
  C  1217  1  0.56915200  0.11108300  0.19518900  1
  C  1218  1  0.61115500  0.07561980  0.19415500  1
  C  1219  1  0.60246000  0.02132680  0.19261700  1
  C  1220  1  0.54972600  0.00336378  0.19269200  1
  C  1227  1  0.57787800  0.16445900  0.19629100  1
  C  1229  1  0.53277300  0.95195900  0.19130000  1
  C  1231  1  0.00295778  0.56889200  0.69515000  1
  C  1232  1  0.03843580  0.61088300  0.69412000  1
  C  1233  1  0.09274880  0.60216800  0.69262700  1
  C  1234  1  0.11070400  0.54943300  0.69274000  1
  C  1241  1  0.94955900  0.57761600  0.69620300  1
  C  1243  1  0.16210500  0.53243300  0.69136900  1
  C  1245  1  0.54376700  0.10979500  0.94380300  1
  C  1246  1  0.50184100  0.07425780  0.94486000  1
  C  1247  1  0.51067300  0.01999280  0.94640900  1
  C  1248  1  0.56344200  0.00215778  0.94632100  1
  C  1255  1  0.53490800  0.16314300  0.94271100  1
  C  1257  1  0.58040700  0.95078800  0.94773500  1
  C  1259  1  0.11175400  0.56910800  0.44393400  1
  C  1260  1  0.07616280  0.61101900  0.44493100  1
  C  1261  1  0.02185380  0.60216500  0.44637600  1
  C  1262  1  0.00404278  0.54939000  0.44624700  1
  C  1269  1  0.16515700  0.57794100  0.44295900  1
  C  1271  1  0.95266500  0.53239100  0.44760500  1
  N  4  1  0.99665000  0.95123200  0.15086900  1
  N  8  1  0.99761400  0.07007000  0.15117000  1
  N  14  1  0.99748900  0.06867300  0.12136500  1
  N  20  1  0.99636900  0.94976900  0.12105100  1
  N  75  1  0.00291400  0.01055500  0.04671300  1
  N  76  1  0.01298800  0.36617700  0.13680300  1
  N  77  1  0.99467200  0.01467500  0.22546900  1
  N  78  1  0.99597100  0.65278200  0.13576000  1
  N  82  1  0.07018800  0.99622500  0.65088100  1
  N  86  1  0.95134500  0.99715400  0.65121000  1
  N  92  1  0.95261000  0.99584300  0.62140900  1
  N  98  1  0.07151800  0.99463700  0.62106700  1
  N  153  1  0.01028200  0.99499200  0.54673200  1
  N  154  1  0.65518600  0.01262900  0.63686300  1
  N  155  1  0.00691000  0.99487900  0.72549300  1
  N  156  1  0.36856500  0.99558500  0.63575200  1
  N  160  1  0.02212300  0.94981900  0.87111000  1
  N  164  1  0.02101400  0.06875700  0.87075400  1
  N  170  1  0.01998400  0.06757300  0.90055500  1
  N  176  1  0.02103000  0.94861300  0.90089800  1
  N  231  1  0.02709500  0.00570800  0.97509500  1
  N  232  1  0.00776900  0.36508900  0.88498600  1
  N  233  1  0.02745000  0.00592300  0.79658100  1
  N  234  1  0.02398700  0.65153700  0.88620000  1
  N  238  1  0.95131400  0.99729400  0.37120700  1
  N  242  1  0.07025800  0.99827400  0.37060300  1
  N  248  1  0.06997800  0.99700900  0.40038700  1
  N  254  1  0.95102100  0.99633400  0.40101100  1
  N  309  1  0.01533900  0.01141200  0.47498600  1
  N  310  1  0.36700800  0.01211100  0.38475600  1
  N  311  1  0.00591500  0.99371600  0.29655300  1
  N  312  1  0.65343000  0.99593600  0.38635800  1
  N  317  1  0.01542100  0.04491500  0.26557900  1
  N  318  1  0.02009500  0.03672300  0.25301800  1
  N  319  1  0.95495500  0.92299700  0.27626500  1
  N  331  1  0.97664600  0.01538600  0.76557000  1
  N  332  1  0.98492300  0.02006900  0.75301400  1
  N  333  1  0.09856700  0.95510300  0.77631200  1
  N  345  1  0.97630600  0.01210700  0.00675600  1
  N  346  1  0.98379500  0.00792100  0.01937100  1
  N  347  1  0.11062000  0.02456300  0.99504800  1
  N  359  1  0.00832700  0.96421200  0.50698600  1
  N  360  1  0.01241900  0.97305500  0.51953800  1
  N  361  1  0.99669700  0.09725200  0.49434600  1
  N  373  1  0.96526600  0.49389200  0.13522400  1
  N  374  1  0.97399200  0.54406400  0.13636100  1
  N  375  1  0.09847400  0.44374400  0.13224100  1
  N  387  1  0.52743500  0.96498900  0.63526900  1
  N  388  1  0.47725100  0.97373100  0.63636700  1
  N  389  1  0.57761000  0.09817100  0.63224700  1
  N  401  1  0.05510900  0.49274500  0.88669400  1
  N  402  1  0.04625300  0.54289300  0.88554800  1
  N  403  1  0.92204500  0.44230400  0.88975000  1
  N  415  1  0.49466800  0.96501600  0.38668300  1
  N  416  1  0.54484800  0.97389100  0.38563000  1
  N  417  1  0.44406400  0.09803100  0.38965900  1
  N  428  1  0.26983100  0.22441300  0.18013800  1
  N  432  1  0.27079500  0.34325100  0.18043900  1
  N  438  1  0.27067000  0.34185400  0.15063400  1
  N  444  1  0.26955000  0.22295000  0.15032000  1
  N  499  1  0.27609500  0.28373600  0.07598230  1
  N  500  1  0.28616900  0.63935800  0.16607200  1
  N  501  1  0.26785300  0.28785600  0.25473800  1
  N  502  1  0.26915200  0.92596300  0.16502900  1
  N  506  1  0.34336900  0.26940600  0.68015000  1
  N  510  1  0.22452600  0.27033500  0.68047900  1
  N  516  1  0.22579100  0.26902400  0.65067800  1
  N  522  1  0.34469900  0.26781800  0.65033600  1
  N  577  1  0.28346300  0.26817300  0.57600100  1
  N  578  1  0.92836700  0.28581000  0.66613200  1
  N  579  1  0.28009100  0.26806000  0.75476200  1
  N  580  1  0.64174600  0.26876600  0.66502100  1
  N  584  1  0.29530400  0.22300000  0.90037900  1
  N  588  1  0.29419500  0.34193800  0.90002300  1
  N  594  1  0.29316500  0.34075400  0.92982400  1
  N  600  1  0.29421100  0.22179400  0.93016700  1
  N  655  1  0.30027600  0.27888900  0.00436429  1
  N  656  1  0.28095000  0.63827000  0.91425500  1
  N  657  1  0.30063100  0.27910400  0.82585000  1
  N  658  1  0.29716800  0.92471800  0.91546900  1
  N  662  1  0.22449500  0.27047500  0.40047600  1
  N  666  1  0.34343900  0.27145500  0.39987200  1
  N  672  1  0.34315900  0.27019000  0.42965600  1
  N  678  1  0.22420200  0.26951500  0.43028000  1
  N  733  1  0.28852000  0.28459300  0.50425500  1
  N  734  1  0.64018900  0.28529200  0.41402500  1
  N  735  1  0.27909600  0.26689700  0.32582200  1
  N  736  1  0.92661100  0.26911700  0.41562700  1
  N  741  1  0.28860200  0.31809600  0.29484800  1
  N  742  1  0.29327600  0.30990400  0.28228700  1
  N  743  1  0.22813600  0.19617800  0.30553400  1
  N  755  1  0.24982700  0.28856700  0.79483900  1
  N  756  1  0.25810400  0.29325000  0.78228300  1
  N  757  1  0.37174800  0.22828400  0.80558100  1
  N  769  1  0.24948700  0.28528800  0.03602530  1
  N  770  1  0.25697600  0.28110200  0.04864030  1
  N  771  1  0.38380100  0.29774400  0.02431730  1
  N  783  1  0.28150800  0.23739300  0.53625500  1
  N  784  1  0.28560000  0.24623600  0.54880700  1
  N  785  1  0.26987800  0.37043300  0.52361500  1
  N  797  1  0.23844700  0.76707300  0.16449300  1
  N  798  1  0.24717300  0.81724500  0.16563000  1
  N  799  1  0.37165500  0.71692500  0.16151000  1
  N  811  1  0.80061600  0.23817000  0.66453800  1
  N  812  1  0.75043200  0.24691200  0.66563600  1
  N  813  1  0.85079100  0.37135200  0.66151600  1
  N  825  1  0.32829000  0.76592600  0.91596300  1
  N  826  1  0.31943400  0.81607400  0.91481700  1
  N  827  1  0.19522600  0.71548500  0.91901900  1
  N  839  1  0.76784900  0.23819700  0.41595200  1
  N  840  1  0.81802900  0.24707200  0.41489900  1
  N  841  1  0.71724500  0.37121200  0.41892800  1
  N  852  1  0.54301300  0.49759500  0.20940800  1
  N  856  1  0.54397700  0.61643300  0.20970900  1
  N  862  1  0.54385200  0.61503600  0.17990400  1
  N  868  1  0.54273200  0.49613200  0.17959000  1
  N  923  1  0.54927700  0.55691800  0.10525200  1
  N  924  1  0.55935100  0.91254000  0.19534200  1
  N  925  1  0.54103500  0.56103800  0.28400800  1
  N  926  1  0.54233400  0.19914500  0.19429900  1
  N  930  1  0.61655100  0.54258800  0.70942000  1
  N  934  1  0.49770800  0.54351700  0.70974900  1
  N  940  1  0.49897300  0.54220600  0.67994800  1
  N  946  1  0.61788100  0.54100000  0.67960600  1
  N  1001  1  0.55664500  0.54135500  0.60527100  1
  N  1002  1  0.20154900  0.55899200  0.69540200  1
  N  1003  1  0.55327300  0.54124200  0.78403200  1
  N  1004  1  0.91492800  0.54194800  0.69429100  1
  N  1008  1  0.56848600  0.49618200  0.92964900  1
  N  1012  1  0.56737700  0.61512000  0.92929300  1
  N  1018  1  0.56634700  0.61393600  0.95909400  1
  N  1024  1  0.56739300  0.49497600  0.95943700  1
  N  1079  1  0.57345800  0.55207100  0.03363360  1
  N  1080  1  0.55413200  0.91145200  0.94352500  1
  N  1081  1  0.57381300  0.55228600  0.85512000  1
  N  1082  1  0.57035000  0.19790000  0.94473900  1
  N  1086  1  0.49767700  0.54365700  0.42974600  1
  N  1090  1  0.61662100  0.54463700  0.42914200  1
  N  1096  1  0.61634100  0.54337200  0.45892600  1
  N  1102  1  0.49738400  0.54269700  0.45955000  1
  N  1157  1  0.56170200  0.55777500  0.53352500  1
  N  1158  1  0.91337100  0.55847400  0.44329500  1
  N  1159  1  0.55227800  0.54007900  0.35509200  1
  N  1160  1  0.19979300  0.54229900  0.44489700  1
  N  1165  1  0.56178400  0.59127800  0.32411800  1
  N  1166  1  0.56645800  0.58308600  0.31155700  1
  N  1167  1  0.50131800  0.46936000  0.33480400  1
  N  1179  1  0.52300900  0.56174900  0.82410900  1
  N  1180  1  0.53128600  0.56643200  0.81155300  1
  N  1181  1  0.64493000  0.50146600  0.83485100  1
  N  1193  1  0.52266900  0.55847000  0.06529460  1
  N  1194  1  0.53015800  0.55428400  0.07790960  1
  N  1195  1  0.65698300  0.57092600  0.05358660  1
  N  1207  1  0.55469000  0.51057500  0.56552500  1
  N  1208  1  0.55878200  0.51941800  0.57807700  1
  N  1209  1  0.54306000  0.64361500  0.55288500  1
  N  1221  1  0.51162900  0.04025480  0.19376300  1
  N  1222  1  0.52035500  0.09042680  0.19490000  1
  N  1223  1  0.64483700  0.99010700  0.19078000  1
  N  1235  1  0.07379780  0.51135200  0.69380800  1
  N  1236  1  0.02361380  0.52009400  0.69490600  1
  N  1237  1  0.12397300  0.64453400  0.69078600  1
  N  1249  1  0.60147200  0.03910780  0.94523300  1
  N  1250  1  0.59261600  0.08925580  0.94408700  1
  N  1251  1  0.46840800  0.98866700  0.94828900  1
  N  1263  1  0.04103080  0.51137900  0.44522200  1
  N  1264  1  0.09121080  0.52025400  0.44416900  1
  N  1265  1  0.99042700  0.64439400  0.44819800  1
