# generated using pymatgen
data_H19C29N6O
_symmetry_space_group_name_H-M   'P 1'
_cell_length_a   35.01340000
_cell_length_b   50.11680000
_cell_length_c   92.05750000
_cell_angle_alpha   90.00000000
_cell_angle_beta   90.00000000
_cell_angle_gamma   90.08120000
_symmetry_Int_Tables_number   1
_chemical_formula_structural   H19C29N6O
_chemical_formula_sum   'H304 C464 N96 O16'
_cell_volume   161538.61644263
_cell_formula_units_Z   16
loop_
 _symmetry_equiv_pos_site_id
 _symmetry_equiv_pos_as_xyz
  1  'x, y, z'
loop_
 _atom_site_type_symbol
 _atom_site_label
 _atom_site_symmetry_multiplicity
 _atom_site_fract_x
 _atom_site_fract_y
 _atom_site_fract_z
 _atom_site_occupancy
  H  49  1  0.60441700  0.75835400  0.81388300  1
  H  50  1  0.64899400  0.75670600  0.83343700  1
  H  51  1  0.69481700  0.74842900  0.78388000  1
  H  52  1  0.73938600  0.74687600  0.80360300  1
  H  53  1  0.71145000  0.69784700  0.82200700  1
  H  54  1  0.74067400  0.66112800  0.83726400  1
  H  55  1  0.76577100  0.73255000  0.85639100  1
  H  56  1  0.78999600  0.76471100  0.87245500  1
  H  57  1  0.71329200  0.80518300  0.82316100  1
  H  58  1  0.74222800  0.84006200  0.83997300  1
  H  59  1  0.72729600  0.85364900  0.87551500  1
  H  60  1  0.73118900  0.90134200  0.87564500  1
  H  61  1  0.83578100  0.84948700  0.85568500  1
  H  62  1  0.83981700  0.89713400  0.85569900  1
  H  63  1  0.80644700  0.83603300  0.89301600  1
  H  64  1  0.82341100  0.79900200  0.91064500  1
  H  65  1  0.81012900  0.65708400  0.88943000  1
  H  66  1  0.82761300  0.69183900  0.90838400  1
  H  67  1  0.88117900  0.74796500  0.91444500  1
  H  68  1  0.89030400  0.74193000  0.94015900  1
  H  69  1  0.76197200  0.74018300  0.92007600  1
  H  70  1  0.77083800  0.73403600  0.94553600  1
  H  71  1  0.72359300  0.64270000  0.86779700  1
  H  72  1  0.72735800  0.59504500  0.86649300  1
  H  73  1  0.84406200  0.60077800  0.85512400  1
  H  74  1  0.84000500  0.64845200  0.85629100  1
  H  79  1  0.81744900  0.71862800  0.96422800  1
  H  80  1  0.76260800  0.94194200  0.86605700  1
  H  81  1  0.59117000  0.75951800  0.78829300  1
  H  82  1  0.76456800  0.55617500  0.85572400  1
  H  131  1  0.60438800  0.73723300  0.18197600  1
  H  132  1  0.64895700  0.73915100  0.16242300  1
  H  133  1  0.69474800  0.74740900  0.21198900  1
  H  134  1  0.73931000  0.74923300  0.19226700  1
  H  135  1  0.71135300  0.79822500  0.17390000  1
  H  136  1  0.74038700  0.83505300  0.15862600  1
  H  137  1  0.76542700  0.76373100  0.13943000  1
  H  138  1  0.79039500  0.73166100  0.12345800  1
  H  139  1  0.71354700  0.69091600  0.17274000  1
  H  140  1  0.74248800  0.65613900  0.15590400  1
  H  141  1  0.72691300  0.64254000  0.12049000  1
  H  142  1  0.73084900  0.59485900  0.12035600  1
  H  143  1  0.83592400  0.64698800  0.13989200  1
  H  144  1  0.84000400  0.59935500  0.13987800  1
  H  145  1  0.80475700  0.66044500  0.10259000  1
  H  146  1  0.82128300  0.69749500  0.08493800  1
  H  147  1  0.80986600  0.83937400  0.10644700  1
  H  148  1  0.82715600  0.80465800  0.08743400  1
  H  149  1  0.87916100  0.74517100  0.08079400  1
  H  150  1  0.88699200  0.74778100  0.05489700  1
  H  151  1  0.76078800  0.75851900  0.07599000  1
  H  152  1  0.76831000  0.76125200  0.05033600  1
  H  153  1  0.72319600  0.85356000  0.12812200  1
  H  154  1  0.72702600  0.90121700  0.12947000  1
  H  155  1  0.84376200  0.89560700  0.14077400  1
  H  156  1  0.83964300  0.84792900  0.13956400  1
  H  161  1  0.80958100  0.76469100  0.02959400  1
  H  162  1  0.76255800  0.55433900  0.12974800  1
  H  163  1  0.59117000  0.73586300  0.20756800  1
  H  164  1  0.76437100  0.94009500  0.14028300  1
  H  213  1  0.05815400  0.25806800  0.18173700  1
  H  214  1  0.01344800  0.25625400  0.16222200  1
  H  215  1  0.96784200  0.24875800  0.21184900  1
  H  216  1  0.92315000  0.24704400  0.19216900  1
  H  217  1  0.95108000  0.19766300  0.17404500  1
  H  218  1  0.92272000  0.16050600  0.15880700  1
  H  219  1  0.89740700  0.23148100  0.13930000  1
  H  220  1  0.87541700  0.26314500  0.12275900  1
  H  221  1  0.95028100  0.30510300  0.17193500  1
  H  222  1  0.92068500  0.33951800  0.15500800  1
  H  223  1  0.92528200  0.35236400  0.11559100  1
  H  224  1  0.91517500  0.39930700  0.11269000  1
  H  225  1  0.82953800  0.34790200  0.14334000  1
  H  226  1  0.81953800  0.39492600  0.14060800  1
  H  227  1  0.84824300  0.33392100  0.10338100  1
  H  228  1  0.83241300  0.29665200  0.08581600  1
  H  229  1  0.85567500  0.15519000  0.10626500  1
  H  230  1  0.83750600  0.18960500  0.08722300  1
  H  231  1  0.78059200  0.24434700  0.08158700  1
  H  232  1  0.77114800  0.23866900  0.05585800  1
  H  233  1  0.89998500  0.24000200  0.07548900  1
  H  234  1  0.89079300  0.23416600  0.05001400  1
  H  235  1  0.94028100  0.14150000  0.12790600  1
  H  236  1  0.93604500  0.09380100  0.12871400  1
  H  237  1  0.81963700  0.09953000  0.14049900  1
  H  238  1  0.82413600  0.14717900  0.13976200  1
  H  243  1  0.84375300  0.21727900  0.03151700  1
  H  244  1  0.86269600  0.43494900  0.11350600  1
  H  245  1  0.07150900  0.25969100  0.20733300  1
  H  246  1  0.89864300  0.05427200  0.13851000  1
  H  295  1  0.05814500  0.23830800  0.81415200  1
  H  296  1  0.01344200  0.24030100  0.83365800  1
  H  297  1  0.96789100  0.24742800  0.78401100  1
  H  298  1  0.92319800  0.24932300  0.80368500  1
  H  299  1  0.95130200  0.29884700  0.82180800  1
  H  300  1  0.92303400  0.33600800  0.83703100  1
  H  301  1  0.89747900  0.26503700  0.85655200  1
  H  302  1  0.87491500  0.23340600  0.87301700  1
  H  303  1  0.94973400  0.19143200  0.82383200  1
  H  304  1  0.92011700  0.15700900  0.84078500  1
  H  305  1  0.92582600  0.14411900  0.88006000  1
  H  306  1  0.91572600  0.09714900  0.88294600  1
  H  307  1  0.82901600  0.14863400  0.85286300  1
  H  308  1  0.81903700  0.10158000  0.85557200  1
  H  309  1  0.85011800  0.16256900  0.89284100  1
  H  310  1  0.83496400  0.19979900  0.91045200  1
  H  311  1  0.85584900  0.34134300  0.88956700  1
  H  312  1  0.83812000  0.30691400  0.90870200  1
  H  313  1  0.78294300  0.24884700  0.91512400  1
  H  314  1  0.77519900  0.25093800  0.94104400  1
  H  315  1  0.90203000  0.25869400  0.92007000  1
  H  316  1  0.89459200  0.26092900  0.94574500  1
  H  317  1  0.94051200  0.35517500  0.86789900  1
  H  318  1  0.93621200  0.40285900  0.86705100  1
  H  319  1  0.81979300  0.39679600  0.85529800  1
  H  320  1  0.82435600  0.34915600  0.85607300  1
  H  325  1  0.85315100  0.26541000  0.96647300  1
  H  326  1  0.86291500  0.06149200  0.88237800  1
  H  327  1  0.07157700  0.23670500  0.78857900  1
  H  328  1  0.89870100  0.44226600  0.85721500  1
  H  377  1  0.10472500  0.25424300  0.31311400  1
  H  378  1  0.14899100  0.25482400  0.33281900  1
  H  379  1  0.19623600  0.24528500  0.28352600  1
  H  380  1  0.24048700  0.24615700  0.30336500  1
  H  381  1  0.21254400  0.19708600  0.32165900  1
  H  382  1  0.24179200  0.16054600  0.33701500  1
  H  383  1  0.26555800  0.23209800  0.35624200  1
  H  384  1  0.28951400  0.26435700  0.37225300  1
  H  385  1  0.21301800  0.30444100  0.32281000  1
  H  386  1  0.24166700  0.33947800  0.33961500  1
  H  387  1  0.22691500  0.35337500  0.37509800  1
  H  388  1  0.23103700  0.40105800  0.37524600  1
  H  389  1  0.33548800  0.34898300  0.35535700  1
  H  390  1  0.33975500  0.39662000  0.35539000  1
  H  391  1  0.30597400  0.33582600  0.39265500  1
  H  392  1  0.32286700  0.29892700  0.41037500  1
  H  393  1  0.30997500  0.15686200  0.38942600  1
  H  394  1  0.32704300  0.19174600  0.40836900  1
  H  395  1  0.38045900  0.24784200  0.41443800  1
  H  396  1  0.38920800  0.24187200  0.44017400  1
  H  397  1  0.26116500  0.24019100  0.41982900  1
  H  398  1  0.26965300  0.23411000  0.44531000  1
  H  399  1  0.22390200  0.14224700  0.36755400  1
  H  400  1  0.22775800  0.09460200  0.36622100  1
  H  401  1  0.34464200  0.10044600  0.35514100  1
  H  402  1  0.34049800  0.14811700  0.35633900  1
  H  407  1  0.31582400  0.21877100  0.46411900  1
  H  408  1  0.26273000  0.44161400  0.36576300  1
  H  409  1  0.09184700  0.24554900  0.28764900  1
  H  410  1  0.26514100  0.05579800  0.35552400  1
  H  459  1  0.10474500  0.24047900  0.68275300  1
  H  460  1  0.14902800  0.24003400  0.66305500  1
  H  461  1  0.19616700  0.25014700  0.71233400  1
  H  462  1  0.24043600  0.24940300  0.69250200  1
  H  463  1  0.21249500  0.29819100  0.67421000  1
  H  464  1  0.24156400  0.33479700  0.65881400  1
  H  465  1  0.26528100  0.26329300  0.63957400  1
  H  466  1  0.28990000  0.23108900  0.62365800  1
  H  467  1  0.21331800  0.19084700  0.67312900  1
  H  468  1  0.24193800  0.15587100  0.65631700  1
  H  469  1  0.22647800  0.14191400  0.62096700  1
  H  470  1  0.23061700  0.09424200  0.62082100  1
  H  471  1  0.33561100  0.14657400  0.64025200  1
  H  472  1  0.33989500  0.09895100  0.64022500  1
  H  473  1  0.30421100  0.15968400  0.60298800  1
  H  474  1  0.32063700  0.19656800  0.58521800  1
  H  475  1  0.30970600  0.33863500  0.60637900  1
  H  476  1  0.32649700  0.30374800  0.58738900  1
  H  477  1  0.37831500  0.24448100  0.58074600  1
  H  478  1  0.38565200  0.24709500  0.55482700  1
  H  479  1  0.25974800  0.25733200  0.57625100  1
  H  480  1  0.26677700  0.26006400  0.55057900  1
  H  481  1  0.22357700  0.35310600  0.62828800  1
  H  482  1  0.22749500  0.40075500  0.62966200  1
  H  483  1  0.34439300  0.39503600  0.64070600  1
  H  484  1  0.34018900  0.34736300  0.63946600  1
  H  489  1  0.30756700  0.26366000  0.52973400  1
  H  490  1  0.26260400  0.05376000  0.63009800  1
  H  491  1  0.09175300  0.24916600  0.70819100  1
  H  492  1  0.26498100  0.43956500  0.64041100  1
  H  541  1  0.55818300  0.75396600  0.68248100  1
  H  542  1  0.51385700  0.75439500  0.66279300  1
  H  543  1  0.46668700  0.74548900  0.71213500  1
  H  544  1  0.42239200  0.74622500  0.69231800  1
  H  545  1  0.45056100  0.69686900  0.67429400  1
  H  546  1  0.42224900  0.65988100  0.65894500  1
  H  547  1  0.39801800  0.73100900  0.63939400  1
  H  548  1  0.37647800  0.76280300  0.62288300  1
  H  549  1  0.45092400  0.80432200  0.67224900  1
  H  550  1  0.42168400  0.83891800  0.65532400  1
  H  551  1  0.42625600  0.85207600  0.61591600  1
  H  552  1  0.41606000  0.89901500  0.61305100  1
  H  553  1  0.33047300  0.84744300  0.64363400  1
  H  554  1  0.32038200  0.89446100  0.64093800  1
  H  555  1  0.34930000  0.83371900  0.60365600  1
  H  556  1  0.33358000  0.79657800  0.58599800  1
  H  557  1  0.35638000  0.65496100  0.60618000  1
  H  558  1  0.33866400  0.68952900  0.58715400  1
  H  559  1  0.28191700  0.74419700  0.58153400  1
  H  560  1  0.27282900  0.73855900  0.55578600  1
  H  561  1  0.40140300  0.74004900  0.57565900  1
  H  562  1  0.39256300  0.73425400  0.55016500  1
  H  563  1  0.44059900  0.64107500  0.62802600  1
  H  564  1  0.43639800  0.59338000  0.62886800  1
  H  565  1  0.31982000  0.59908900  0.64041100  1
  H  566  1  0.32428400  0.64674200  0.63963600  1
  H  571  1  0.34594100  0.71739900  0.53155900  1
  H  572  1  0.36358600  0.93461200  0.61387500  1
  H  573  1  0.57110400  0.74566800  0.70797000  1
  H  574  1  0.39896100  0.55387500  0.63861200  1
  H  623  1  0.55815200  0.74153900  0.31335900  1
  H  624  1  0.51384600  0.74118400  0.33305300  1
  H  625  1  0.46668100  0.75010200  0.28371500  1
  H  626  1  0.42239800  0.74944400  0.30354100  1
  H  627  1  0.45079500  0.79878700  0.32158000  1
  H  628  1  0.42257200  0.83575800  0.33692400  1
  H  629  1  0.39807300  0.76461200  0.35646000  1
  H  630  1  0.37601000  0.73283500  0.37289800  1
  H  631  1  0.45039000  0.69134900  0.32350300  1
  H  632  1  0.42117500  0.65672700  0.34045500  1
  H  633  1  0.42688500  0.64350800  0.37973000  1
  H  634  1  0.41670300  0.59654100  0.38258600  1
  H  635  1  0.33004200  0.64817300  0.35256100  1
  H  636  1  0.31998000  0.60112500  0.35524000  1
  H  637  1  0.35121100  0.66183800  0.39255000  1
  H  638  1  0.33608800  0.69893200  0.41025200  1
  H  639  1  0.35653100  0.84064800  0.38967800  1
  H  640  1  0.33922700  0.80604800  0.40878200  1
  H  641  1  0.28418800  0.74818000  0.41514900  1
  H  642  1  0.27674200  0.75030700  0.44108100  1
  H  643  1  0.40339900  0.75760200  0.41990600  1
  H  644  1  0.39625900  0.75986800  0.44559300  1
  H  645  1  0.44080800  0.85470500  0.36781500  1
  H  646  1  0.43653200  0.90238600  0.36692800  1
  H  647  1  0.31995700  0.89632300  0.35539900  1
  H  648  1  0.32449500  0.84868300  0.35621400  1
  H  653  1  0.35504600  0.76461000  0.46637300  1
  H  654  1  0.36390300  0.56092800  0.38201800  1
  H  655  1  0.57107500  0.74990800  0.28787100  1
  H  656  1  0.39899500  0.94176000  0.35713500  1
  H  663  1  0.80589600  0.72418300  0.01013500  1
  H  666  1  0.95188600  0.75892100  0.99021400  1
  H  667  1  0.92526800  0.78804500  0.98673000  1
  H  668  1  0.93788900  0.74446500  0.96738600  1
  H  677  1  0.85615400  0.22445800  0.98564200  1
  H  680  1  0.71036200  0.25904300  0.00569300  1
  H  681  1  0.73720600  0.28801400  0.00942500  1
  H  682  1  0.72405500  0.24398000  0.02842400  1
  H  691  1  0.30384000  0.22441600  0.50999800  1
  H  694  1  0.45068400  0.25772000  0.49029500  1
  H  695  1  0.42476800  0.28716200  0.48683900  1
  H  696  1  0.43655200  0.24357700  0.46742400  1
  H  705  1  0.35823400  0.72432300  0.48570000  1
  H  708  1  0.21194700  0.75811700  0.50564700  1
  H  709  1  0.23844200  0.78726300  0.50933600  1
  H  710  1  0.22578100  0.74325900  0.52840600  1
  H  719  1  0.84942900  0.01685600  0.84102300  1
  H  722  1  0.81649100  0.99262900  0.90055200  1
  H  723  1  0.83061200  0.96058700  0.89487300  1
  H  724  1  0.75622400  0.98372000  0.89176800  1
  H  733  1  0.84956300  0.47970200  0.15484000  1
  H  736  1  0.81632200  0.50364100  0.09531200  1
  H  737  1  0.83038900  0.53574600  0.10095000  1
  H  738  1  0.75606900  0.51238900  0.10412100  1
  H  747  1  0.78933100  0.98222800  0.15062500  1
  H  750  1  0.88508600  0.99961600  0.10110300  1
  H  751  1  0.86649100  0.03204400  0.10292900  1
  H  752  1  0.93092300  0.01038200  0.11804900  1
  H  761  1  0.78955600  0.51414000  0.84526400  1
  H  764  1  0.88542900  0.49677100  0.89473900  1
  H  765  1  0.86669300  0.46434500  0.89292500  1
  H  766  1  0.93115000  0.48600000  0.87776400  1
  H  775  1  0.34963100  0.51639000  0.34067200  1
  H  778  1  0.31730100  0.49209700  0.40024000  1
  H  779  1  0.33121300  0.46003700  0.39451400  1
  H  780  1  0.25689200  0.48333500  0.39155300  1
  H  789  1  0.34966300  0.97922800  0.65521400  1
  H  792  1  0.31705800  0.00329800  0.59565100  1
  H  793  1  0.33093000  0.03541100  0.60134600  1
  H  794  1  0.25666700  0.01190200  0.60436500  1
  H  803  1  0.28983700  0.48171200  0.65072100  1
  H  806  1  0.38562900  0.49914000  0.60121300  1
  H  807  1  0.36694700  0.53154600  0.60301900  1
  H  808  1  0.43140600  0.50999200  0.61816800  1
  H  817  1  0.29002800  0.01372900  0.34513200  1
  H  820  1  0.38587500  0.99639100  0.39461900  1
  H  821  1  0.36706700  0.96397900  0.39283100  1
  H  822  1  0.43156600  0.98552500  0.37764900  1
  H  831  1  0.64659200  0.74146500  0.74538900  1
  H  834  1  0.49959100  0.78127800  0.76046500  1
  H  835  1  0.48875800  0.74701700  0.75923100  1
  H  836  1  0.48310000  0.78589300  0.73675500  1
  H  845  1  0.64651200  0.75426700  0.25045600  1
  H  848  1  0.49965400  0.71384400  0.23542900  1
  H  849  1  0.48868700  0.74806700  0.23662200  1
  H  850  1  0.48319500  0.70926200  0.25914700  1
  H  859  1  0.01631000  0.24131000  0.25025600  1
  H  862  1  0.16316000  0.28167100  0.23518700  1
  H  863  1  0.17412400  0.24744800  0.23638300  1
  H  864  1  0.17964800  0.28626700  0.25890200  1
  H  873  1  0.01619300  0.25373200  0.74554300  1
  H  876  1  0.16343400  0.21468600  0.76088200  1
  H  877  1  0.17406100  0.24895000  0.75943700  1
  H  878  1  0.17991600  0.20963200  0.73719400  1
  C  1  1  0.72663600  0.70102300  0.83132800  1
  C  2  1  0.74288000  0.68100800  0.83958100  1
  C  3  1  0.76091700  0.69271600  0.85153400  1
  C  5  1  0.73537500  0.72552800  0.83777500  1
  C  6  1  0.72430200  0.75093400  0.83228700  1
  C  7  1  0.73536100  0.77583300  0.83837900  1
  C  9  1  0.76082900  0.80659000  0.85321200  1
  C  10  1  0.74383000  0.81991500  0.84156900  1
  C  11  1  0.72761600  0.80099400  0.83255900  1
  C  12  1  0.77885000  0.81871800  0.86537000  1
  C  13  1  0.79278300  0.80447700  0.87764600  1
  C  15  1  0.80818100  0.77154500  0.89329100  1
  C  16  1  0.81403200  0.79598200  0.90026100  1
  C  17  1  0.80527000  0.81614700  0.89059400  1
  C  18  1  0.81428500  0.74607300  0.89968900  1
  C  19  1  0.80948900  0.72126200  0.89245000  1
  C  21  1  0.79417800  0.69060600  0.87571000  1
  C  22  1  0.80833600  0.67723600  0.88788400  1
  C  23  1  0.81721800  0.69609800  0.89827400  1
  C  24  1  0.77929100  0.67847800  0.86295700  1
  C  25  1  0.78133600  0.65004400  0.86202000  1
  C  26  1  0.81614300  0.63734000  0.85849500  1
  C  27  1  0.81854600  0.60930400  0.85791800  1
  C  28  1  0.78618400  0.59319600  0.86082100  1
  C  29  1  0.75140100  0.60602100  0.86434900  1
  C  30  1  0.74908000  0.63403800  0.86509200  1
  C  31  1  0.82074900  0.74498600  0.91495500  1
  C  32  1  0.85782800  0.74563700  0.92101000  1
  C  33  1  0.86311400  0.74210400  0.93608000  1
  C  34  1  0.83145300  0.73761500  0.94532500  1
  C  35  1  0.79441100  0.73738300  0.93919100  1
  C  36  1  0.78909200  0.74111500  0.92422000  1
  C  37  1  0.78119400  0.84715300  0.86561000  1
  C  38  1  0.75117300  0.86267900  0.87137500  1
  C  39  1  0.75356700  0.89073600  0.87142100  1
  C  40  1  0.78600600  0.90411000  0.86576900  1
  C  41  1  0.81603000  0.88833700  0.86004900  1
  C  42  1  0.81368800  0.86027800  0.85997700  1
  C  43  1  0.69833500  0.75158900  0.82034100  1
  C  44  1  0.65893000  0.75489200  0.82302200  1
  C  45  1  0.71094800  0.74921100  0.80582700  1
  C  46  1  0.68460300  0.75010100  0.79425300  1
  C  47  1  0.64495800  0.75348100  0.79683700  1
  C  48  1  0.63273700  0.75585800  0.81145600  1
  C  75  1  0.83522100  0.73207800  0.95997700  1
  C  76  1  0.78714700  0.93191600  0.86562300  1
  C  77  1  0.61796900  0.75485700  0.78570100  1
  C  78  1  0.78742500  0.56557800  0.85963000  1
  C  83  1  0.72643100  0.79511300  0.16455000  1
  C  84  1  0.74275600  0.81517700  0.15633300  1
  C  85  1  0.76063200  0.80354300  0.14433400  1
  C  87  1  0.73519900  0.77064300  0.15808900  1
  C  88  1  0.72423700  0.74519500  0.16358100  1
  C  89  1  0.73537600  0.72034000  0.15748700  1
  C  91  1  0.76084000  0.68967700  0.14263500  1
  C  92  1  0.74402300  0.67629200  0.15430800  1
  C  93  1  0.72782300  0.69515600  0.16333400  1
  C  94  1  0.77869300  0.67761100  0.13043700  1
  C  95  1  0.79240500  0.69192700  0.11814200  1
  C  97  1  0.80743100  0.72493300  0.10246500  1
  C  98  1  0.81268300  0.70051100  0.09541800  1
  C  99  1  0.80434700  0.68030000  0.10511700  1
  C  100  1  0.81342300  0.75044000  0.09606000  1
  C  101  1  0.80868700  0.77522100  0.10331500  1
  C  103  1  0.79355300  0.80580200  0.12009100  1
  C  104  1  0.80769700  0.81921900  0.10792100  1
  C  105  1  0.81658400  0.80039300  0.09752000  1
  C  106  1  0.77887300  0.81785100  0.13289200  1
  C  107  1  0.78095600  0.84628100  0.13385700  1
  C  108  1  0.81578900  0.85901500  0.13738100  1
  C  109  1  0.81822700  0.88705300  0.13798500  1
  C  110  1  0.78587800  0.90312600  0.13510800  1
  C  111  1  0.75106300  0.89026500  0.13158900  1
  C  112  1  0.74870600  0.86225000  0.13081600  1
  C  113  1  0.81928900  0.75154500  0.08075300  1
  C  114  1  0.85574700  0.74851400  0.07439800  1
  C  115  1  0.86024300  0.75006300  0.05919500  1
  C  116  1  0.82847800  0.75487200  0.05002400  1
  C  117  1  0.79212000  0.75794900  0.05654700  1
  C  118  1  0.78753800  0.75623800  0.07166400  1
  C  119  1  0.78107200  0.64918000  0.13018000  1
  C  120  1  0.75091100  0.63357500  0.12453900  1
  C  121  1  0.75333400  0.60552200  0.12448900  1
  C  122  1  0.78592900  0.59223000  0.13002200  1
  C  123  1  0.81610000  0.60808500  0.13561000  1
  C  124  1  0.81373300  0.63614100  0.13568500  1
  C  125  1  0.69827200  0.74443700  0.17552500  1
  C  126  1  0.65888200  0.74097200  0.17284000  1
  C  127  1  0.71087900  0.74679600  0.19004100  1
  C  128  1  0.68454000  0.74574300  0.20161400  1
  C  129  1  0.64491300  0.74220800  0.19902500  1
  C  130  1  0.63269700  0.73984300  0.18440400  1
  C  157  1  0.83114500  0.75621000  0.03497600  1
  C  158  1  0.78709100  0.56442200  0.13017400  1
  C  159  1  0.61793400  0.74067400  0.21015900  1
  C  160  1  0.78716300  0.93073900  0.13632400  1
  C  165  1  0.93591600  0.20060700  0.16469800  1
  C  166  1  0.91999800  0.18035500  0.15649800  1
  C  167  1  0.90228000  0.19176600  0.14440600  1
  C  169  1  0.92712800  0.22497000  0.15811300  1
  C  170  1  0.93808100  0.25053700  0.16346000  1
  C  171  1  0.92690800  0.27529800  0.15724300  1
  C  173  1  0.90074100  0.30565700  0.14234700  1
  C  174  1  0.91868800  0.31932100  0.15367200  1
  C  175  1  0.93519300  0.30063900  0.16274500  1
  C  176  1  0.88190500  0.31740500  0.13027000  1
  C  177  1  0.86737500  0.30280500  0.11818300  1
  C  179  1  0.85267300  0.26959900  0.10258100  1
  C  180  1  0.84367000  0.29384200  0.09594300  1
  C  181  1  0.85181600  0.31411500  0.10561900  1
  C  182  1  0.84793000  0.24407200  0.09608700  1
  C  183  1  0.85416700  0.21934800  0.10322900  1
  C  185  1  0.87014600  0.18902300  0.12002400  1
  C  186  1  0.85705700  0.17537400  0.10775900  1
  C  187  1  0.84768400  0.19405300  0.09734400  1
  C  188  1  0.88466400  0.17721700  0.13291600  1
  C  189  1  0.88275800  0.14879500  0.13395700  1
  C  190  1  0.84791800  0.13608300  0.13747900  1
  C  191  1  0.84526000  0.10804500  0.13779800  1
  C  192  1  0.87735600  0.09191900  0.13459800  1
  C  193  1  0.91221700  0.10477300  0.13112500  1
  C  194  1  0.91483000  0.13281300  0.13068200  1
  C  195  1  0.84112200  0.24302600  0.08084500  1
  C  196  1  0.80388100  0.24280000  0.07492600  1
  C  197  1  0.79840500  0.23953600  0.05985000  1
  C  198  1  0.83005700  0.23612500  0.05047600  1
  C  199  1  0.86724100  0.23674500  0.05646800  1
  C  200  1  0.87273400  0.24029200  0.07144600  1
  C  201  1  0.87870000  0.34581500  0.12990900  1
  C  202  1  0.90354000  0.36128600  0.12121000  1
  C  203  1  0.89744500  0.38886700  0.11948100  1
  C  204  1  0.86676600  0.40181700  0.12657300  1
  C  205  1  0.84261300  0.38638700  0.13561500  1
  C  206  1  0.84840000  0.35872100  0.13720700  1
  C  207  1  0.96413100  0.25147600  0.17537800  1
  C  208  1  0.00355500  0.25464000  0.17265300  1
  C  209  1  0.95159100  0.24932100  0.18991300  1
  C  210  1  0.97800900  0.25029300  0.20146200  1
  C  211  1  0.01766900  0.25352400  0.19883400  1
  C  212  1  0.02982200  0.25569300  0.18419600  1
  C  239  1  0.82615600  0.23074200  0.03582500  1
  C  240  1  0.85922000  0.42846500  0.12365000  1
  C  241  1  0.04473300  0.25495600  0.20994700  1
  C  242  1  0.87562400  0.06422600  0.13519100  1
  C  247  1  0.93623500  0.29591300  0.83118100  1
  C  248  1  0.92039800  0.31616600  0.83938200  1
  C  249  1  0.90261500  0.30475700  0.85147100  1
  C  251  1  0.92734500  0.27155300  0.83776700  1
  C  252  1  0.93812400  0.24598300  0.83240400  1
  C  253  1  0.92676200  0.22122400  0.83859700  1
  C  255  1  0.90059300  0.19086500  0.85351200  1
  C  256  1  0.91817000  0.17720800  0.84211500  1
  C  257  1  0.93473600  0.19589100  0.83304000  1
  C  258  1  0.88200100  0.17911000  0.86565100  1
  C  259  1  0.86791400  0.19371800  0.87779900  1
  C  261  1  0.85372300  0.22694800  0.89345000  1
  C  262  1  0.84545800  0.20266700  0.90021100  1
  C  263  1  0.85321700  0.18238400  0.89051000  1
  C  264  1  0.84909300  0.25250200  0.89993600  1
  C  265  1  0.85500500  0.27720800  0.89273500  1
  C  267  1  0.87055600  0.30751300  0.87586300  1
  C  268  1  0.85742700  0.32116000  0.88811700  1
  C  269  1  0.84834800  0.30249000  0.89858700  1
  C  270  1  0.88493300  0.31930100  0.86293600  1
  C  271  1  0.88298800  0.34771100  0.86186700  1
  C  272  1  0.84812800  0.36032100  0.85833600  1
  C  273  1  0.84543400  0.38834900  0.85799400  1
  C  274  1  0.87751300  0.40456900  0.86117800  1
  C  275  1  0.91239800  0.39181700  0.86465200  1
  C  276  1  0.91504800  0.36378700  0.86511900  1
  C  277  1  0.84315500  0.25353600  0.91523700  1
  C  278  1  0.80651200  0.25138200  0.92155300  1
  C  279  1  0.80207300  0.25259700  0.93676600  1
  C  280  1  0.83408800  0.25622600  0.94597800  1
  C  281  1  0.87062500  0.25848500  0.93949600  1
  C  282  1  0.87514100  0.25708100  0.92436800  1
  C  283  1  0.87870100  0.15069500  0.86601700  1
  C  284  1  0.90388400  0.13519800  0.87453300  1
  C  285  1  0.89776000  0.10760900  0.87627100  1
  C  286  1  0.86678000  0.09467000  0.86933300  1
  C  287  1  0.84229700  0.11012600  0.86045900  1
  C  288  1  0.84811300  0.13779700  0.85886000  1
  C  289  1  0.96415900  0.24502400  0.82048700  1
  C  290  1  0.00356300  0.24185600  0.82322200  1
  C  291  1  0.95162900  0.24706400  0.80594700  1
  C  292  1  0.97804800  0.24597900  0.79440200  1
  C  293  1  0.01768900  0.24273800  0.79704200  1
  C  294  1  0.02982800  0.24068800  0.81168500  1
  C  321  1  0.83145100  0.25719300  0.96102800  1
  C  322  1  0.85928500  0.06799900  0.87224800  1
  C  323  1  0.04475600  0.24120800  0.78593700  1
  C  324  1  0.87573400  0.43225500  0.86057400  1
  C  329  1  0.22747500  0.20036100  0.33102900  1
  C  330  1  0.24372900  0.18043700  0.33933800  1
  C  331  1  0.26135100  0.19224300  0.35135100  1
  C  333  1  0.23578300  0.22492000  0.33750000  1
  C  334  1  0.22453900  0.25026300  0.33196500  1
  C  335  1  0.23527800  0.27522400  0.33806000  1
  C  337  1  0.26047700  0.30610900  0.35288600  1
  C  338  1  0.24340000  0.31934100  0.34122500  1
  C  339  1  0.22733500  0.30033900  0.33222200  1
  C  340  1  0.27843300  0.31832000  0.36503500  1
  C  341  1  0.29235600  0.30416100  0.37734500  1
  C  343  1  0.30769600  0.27134300  0.39307600  1
  C  344  1  0.31352200  0.29583100  0.39999300  1
  C  345  1  0.30480500  0.31592400  0.39027500  1
  C  346  1  0.31377300  0.24592200  0.39954000  1
  C  347  1  0.30914100  0.22105700  0.39233800  1
  C  349  1  0.29419500  0.19029000  0.37561300  1
  C  350  1  0.30816400  0.17700300  0.38784500  1
  C  351  1  0.31681500  0.19593600  0.39822500  1
  C  352  1  0.27958100  0.17808400  0.36283700  1
  C  353  1  0.28174000  0.14964900  0.36193800  1
  C  354  1  0.31662400  0.13698100  0.35848800  1
  C  355  1  0.31907400  0.10894700  0.35788700  1
  C  356  1  0.28668100  0.09280700  0.36069000  1
  C  357  1  0.25182900  0.10560000  0.36415200  1
  C  358  1  0.24945500  0.13361000  0.36491600  1
  C  359  1  0.32002000  0.24493600  0.41482300  1
  C  360  1  0.35700800  0.24557000  0.42095700  1
  C  361  1  0.36207200  0.24207300  0.43604100  1
  C  362  1  0.33027600  0.23763000  0.44522700  1
  C  363  1  0.29332400  0.23742800  0.43901400  1
  C  364  1  0.28822600  0.24112400  0.42402700  1
  C  365  1  0.28081500  0.34676000  0.36522000  1
  C  366  1  0.25084000  0.36235400  0.37096600  1
  C  367  1  0.25337700  0.39040700  0.37102800  1
  C  368  1  0.28591600  0.40371600  0.36541300  1
  C  369  1  0.31588700  0.38787500  0.35970800  1
  C  370  1  0.31340500  0.35982000  0.35962100  1
  C  371  1  0.19888000  0.25069700  0.31991800  1
  C  372  1  0.15925800  0.25306000  0.32244800  1
  C  373  1  0.21192400  0.24810200  0.30547000  1
  C  374  1  0.18578800  0.24765900  0.29382200  1
  C  375  1  0.14592000  0.24985800  0.29627000  1
  C  376  1  0.13324800  0.25264900  0.31080600  1
  C  403  1  0.33382600  0.23209600  0.45989200  1
  C  404  1  0.28721200  0.43152600  0.36529700  1
  C  405  1  0.11909100  0.24879400  0.28508300  1
  C  406  1  0.28796000  0.06519200  0.35946800  1
  C  411  1  0.22734100  0.29495200  0.66481900  1
  C  412  1  0.24368000  0.31490300  0.65653100  1
  C  413  1  0.26113900  0.30314000  0.64448100  1
  C  415  1  0.23567800  0.27040700  0.65835400  1
  C  416  1  0.22452800  0.24503500  0.66390800  1
  C  417  1  0.23532100  0.22010400  0.65782400  1
  C  419  1  0.26048800  0.18927700  0.64299200  1
  C  420  1  0.24360600  0.17601200  0.65469200  1
  C  421  1  0.22757200  0.19497700  0.66370500  1
  C  422  1  0.27826700  0.17710100  0.63080800  1
  C  423  1  0.29193600  0.19130600  0.61846400  1
  C  425  1  0.30687300  0.22416600  0.60267800  1
  C  426  1  0.31208600  0.19967800  0.59569500  1
  C  427  1  0.30381400  0.17956100  0.60546100  1
  C  428  1  0.31282800  0.24960600  0.59618900  1
  C  429  1  0.30829600  0.27445600  0.60339500  1
  C  431  1  0.29359300  0.30518600  0.62014500  1
  C  432  1  0.30751900  0.31849200  0.60790300  1
  C  433  1  0.31613000  0.29957300  0.59751700  1
  C  434  1  0.27921800  0.31734100  0.63296400  1
  C  435  1  0.28142300  0.34577300  0.63387300  1
  C  436  1  0.31633000  0.35847400  0.63733000  1
  C  437  1  0.31881200  0.38650900  0.63795600  1
  C  438  1  0.28643500  0.40261100  0.63517000  1
  C  439  1  0.25155700  0.38978200  0.63170900  1
  C  440  1  0.24915200  0.36177100  0.63091800  1
  C  441  1  0.31838600  0.25058000  0.58086200  1
  C  442  1  0.35475200  0.24768700  0.57441000  1
  C  443  1  0.35895600  0.24924300  0.55919300  1
  C  444  1  0.32698800  0.25392400  0.55010300  1
  C  445  1  0.29072200  0.25683600  0.55672500  1
  C  446  1  0.28643300  0.25512500  0.57185500  1
  C  447  1  0.28065500  0.14866400  0.63061700  1
  C  448  1  0.25052600  0.13299500  0.62500400  1
  C  449  1  0.25307400  0.10494700  0.62494200  1
  C  450  1  0.28577300  0.09171200  0.63043100  1
  C  451  1  0.31590400  0.10763300  0.63599700  1
  C  452  1  0.31341400  0.13568300  0.63608200  1
  C  453  1  0.19887200  0.24453300  0.67595500  1
  C  454  1  0.15927200  0.24192200  0.67342500  1
  C  455  1  0.21188700  0.24729200  0.69039800  1
  C  456  1  0.18574000  0.24765700  0.70204200  1
  C  457  1  0.14589200  0.24521100  0.69959300  1
  C  458  1  0.13325100  0.24225300  0.68506200  1
  C  485  1  0.32938800  0.25535500  0.53504700  1
  C  486  1  0.28708400  0.06390300  0.63055300  1
  C  487  1  0.11903900  0.24620800  0.71077300  1
  C  488  1  0.28774900  0.43021800  0.63642400  1
  C  493  1  0.43562400  0.69991300  0.66490400  1
  C  494  1  0.41973600  0.67974600  0.65664000  1
  C  495  1  0.40238800  0.69125800  0.64449900  1
  C  497  1  0.42719300  0.72433300  0.65831000  1
  C  498  1  0.43826600  0.74984300  0.66371100  1
  C  499  1  0.42741600  0.77467200  0.65750200  1
  C  501  1  0.40158300  0.80517400  0.64260800  1
  C  502  1  0.41955600  0.81873200  0.65396500  1
  C  503  1  0.43587000  0.79995800  0.66303800  1
  C  504  1  0.38286700  0.81701800  0.63053000  1
  C  505  1  0.36837300  0.80249900  0.61840600  1
  C  507  1  0.35375800  0.76940500  0.60271800  1
  C  508  1  0.34478500  0.79369600  0.59612800  1
  C  509  1  0.35286700  0.81389600  0.60585600  1
  C  510  1  0.34907700  0.74393000  0.59615800  1
  C  511  1  0.35509500  0.71914600  0.60326500  1
  C  513  1  0.37068000  0.68868800  0.62003900  1
  C  514  1  0.35778200  0.67513300  0.60771500  1
  C  515  1  0.34865400  0.69389600  0.59731200  1
  C  516  1  0.38493500  0.67679000  0.63294500  1
  C  517  1  0.38297300  0.64836300  0.63393500  1
  C  518  1  0.34809500  0.63564800  0.63739800  1
  C  519  1  0.34546400  0.60761100  0.63774400  1
  C  520  1  0.37762600  0.59148600  0.63463300  1
  C  521  1  0.41251900  0.60434900  0.63121000  1
  C  522  1  0.41510600  0.63238600  0.63074300  1
  C  523  1  0.34246300  0.74299600  0.58090300  1
  C  524  1  0.30530000  0.74271700  0.57491600  1
  C  525  1  0.30003000  0.73947200  0.55982700  1
  C  526  1  0.33181500  0.73612300  0.55051100  1
  C  527  1  0.36891800  0.73679400  0.55657500  1
  C  528  1  0.37420500  0.74032500  0.57156400  1
  C  529  1  0.37968000  0.84543800  0.63022200  1
  C  530  1  0.40449900  0.86096300  0.62154400  1
  C  531  1  0.39834700  0.88854300  0.61983300  1
  C  532  1  0.36762100  0.90144700  0.62692300  1
  C  533  1  0.34349400  0.88596500  0.63594900  1
  C  534  1  0.34934000  0.85829900  0.63752100  1
  C  535  1  0.46398200  0.75055900  0.67573500  1
  C  536  1  0.50361200  0.75280300  0.67317700  1
  C  537  1  0.45095800  0.74814300  0.69019600  1
  C  538  1  0.47712800  0.74774400  0.70183000  1
  C  539  1  0.51700400  0.74984700  0.69935900  1
  C  540  1  0.52965400  0.75246300  0.68480800  1
  C  567  1  0.32813100  0.73074000  0.53585100  1
  C  568  1  0.36000200  0.92809600  0.62400700  1
  C  569  1  0.54385400  0.74882600  0.71053900  1
  C  570  1  0.37593800  0.56379300  0.63526600  1
  C  575  1  0.43594400  0.79573900  0.33099100  1
  C  576  1  0.42014100  0.81589700  0.33926400  1
  C  577  1  0.40272200  0.80437400  0.35139600  1
  C  579  1  0.42740700  0.77131200  0.33757700  1
  C  580  1  0.43830600  0.74580800  0.33215000  1
  C  581  1  0.42729000  0.72097100  0.33833300  1
  C  583  1  0.40149400  0.69045100  0.35324800  1
  C  584  1  0.41909000  0.67691200  0.34181200  1
  C  585  1  0.43543600  0.69569800  0.33273700  1
  C  586  1  0.38303800  0.67858600  0.36538700  1
  C  587  1  0.36897000  0.69310200  0.37757300  1
  C  589  1  0.35480600  0.72621100  0.39330900  1
  C  590  1  0.34657200  0.70187800  0.40001600  1
  C  591  1  0.35430900  0.68167300  0.39026500  1
  C  592  1  0.35017700  0.75171100  0.39985800  1
  C  593  1  0.35590300  0.77648500  0.39270500  1
  C  595  1  0.37108300  0.80693500  0.37586600  1
  C  596  1  0.35813400  0.82047600  0.38818000  1
  C  597  1  0.34928600  0.80171400  0.39863000  1
  C  598  1  0.38520000  0.81882700  0.36292900  1
  C  599  1  0.38319000  0.84724200  0.36191500  1
  C  600  1  0.34829200  0.85985000  0.35843900  1
  C  601  1  0.34561800  0.88787900  0.35806800  1
  C  602  1  0.37775800  0.90409800  0.36116500  1
  C  603  1  0.41267000  0.89134500  0.36459600  1
  C  604  1  0.41530300  0.86331800  0.36509200  1
  C  605  1  0.34443900  0.75262700  0.41517000  1
  C  606  1  0.30785000  0.75060200  0.42154200  1
  C  607  1  0.30358600  0.75184200  0.43676200  1
  C  608  1  0.33572500  0.75537800  0.44592100  1
  C  609  1  0.37221100  0.75748300  0.43938300  1
  C  610  1  0.37655200  0.75605500  0.42424900  1
  C  611  1  0.37976800  0.65016100  0.36569500  1
  C  612  1  0.40493300  0.63461900  0.37419500  1
  C  613  1  0.39875500  0.60702900  0.37591600  1
  C  614  1  0.36773300  0.59412800  0.36898300  1
  C  615  1  0.34327700  0.60963200  0.36012200  1
  C  616  1  0.34914600  0.63730300  0.35853800  1
  C  617  1  0.46398200  0.74508700  0.32011700  1
  C  618  1  0.50359800  0.74277800  0.32267100  1
  C  619  1  0.45095500  0.74750100  0.30565900  1
  C  620  1  0.47711400  0.74783000  0.29402000  1
  C  621  1  0.51697900  0.74568900  0.29648900  1
  C  622  1  0.52963100  0.74307300  0.31103600  1
  C  649  1  0.33324300  0.75642900  0.46097200  1
  C  650  1  0.36016400  0.56746100  0.37189800  1
  C  651  1  0.54382300  0.74668900  0.28530800  1
  C  652  1  0.37601500  0.93178300  0.36051400  1
  C  657  1  0.86087700  0.74326500  0.98283900  1
  C  659  1  0.82937600  0.73217000  0.00516800  1
  C  660  1  0.85934200  0.74375100  0.01319300  1
  C  662  1  0.89191900  0.75414100  0.99084400  1
  C  664  1  0.92669000  0.76666000  0.98457800  1
  C  671  1  0.80111400  0.24289300  0.01302800  1
  C  673  1  0.83272300  0.23238300  0.99065100  1
  C  674  1  0.80296000  0.24430900  0.98269100  1
  C  676  1  0.77029100  0.25414800  0.00508200  1
  C  678  1  0.73558600  0.26658000  0.01141200  1
  C  685  1  0.35944500  0.24305600  0.48279500  1
  C  687  1  0.32752500  0.23219600  0.50507600  1
  C  688  1  0.35765700  0.24343700  0.51315800  1
  C  690  1  0.39061300  0.25361200  0.49085400  1
  C  692  1  0.42571400  0.26577700  0.48464700  1
  C  699  1  0.30289800  0.74256900  0.51303300  1
  C  701  1  0.33466300  0.73208900  0.49068400  1
  C  702  1  0.30477400  0.74380200  0.48269500  1
  C  704  1  0.27193200  0.75356300  0.50506100  1
  C  706  1  0.23707100  0.76583200  0.51136000  1
  C  713  1  0.82347900  0.97132400  0.86502800  1
  C  715  1  0.84184800  0.00933500  0.85093300  1
  C  716  1  0.84067100  0.02567700  0.86336000  1
  C  718  1  0.82192600  0.98755600  0.87763300  1
  C  720  1  0.81190600  0.97730800  0.89225400  1
  C  727  1  0.82343700  0.52508600  0.13081000  1
  C  729  1  0.84192000  0.48717100  0.14492900  1
  C  730  1  0.84068900  0.47078000  0.13252000  1
  C  732  1  0.82183600  0.50880600  0.11822200  1
  C  734  1  0.81173300  0.51897600  0.10359700  1
  C  741  1  0.84033000  0.02499000  0.13146300  1
  C  743  1  0.80704900  0.98857400  0.14251900  1
  C  744  1  0.82236200  0.97065000  0.13222300  1
  C  746  1  0.85567100  0.00727500  0.12095900  1
  C  748  1  0.88061100  0.01593200  0.10881900  1
  C  755  1  0.84047500  0.47139600  0.86440100  1
  C  757  1  0.80726000  0.50779400  0.85336800  1
  C  758  1  0.82260700  0.52571600  0.86367300  1
  C  760  1  0.85589600  0.48911200  0.87490100  1
  C  762  1  0.88085500  0.48045500  0.88702600  1
  C  769  1  0.32374100  0.47086100  0.36468900  1
  C  771  1  0.34214000  0.50886200  0.35059100  1
  C  772  1  0.34121400  0.52518100  0.36303200  1
  C  774  1  0.32244400  0.48706700  0.37730900  1
  C  776  1  0.31255100  0.47680600  0.39193900  1
  C  783  1  0.32361800  0.02463600  0.63118300  1
  C  785  1  0.34211700  0.98671200  0.64529600  1
  C  786  1  0.34114300  0.97036000  0.63286800  1
  C  788  1  0.32227900  0.00839500  0.61857500  1
  C  790  1  0.31231100  0.01859500  0.60394400  1
  C  797  1  0.34076600  0.52450400  0.63155200  1
  C  799  1  0.30755900  0.48806600  0.64261700  1
  C  800  1  0.32291300  0.47014900  0.63232700  1
  C  802  1  0.35615700  0.50679300  0.62105900  1
  C  804  1  0.38109600  0.51546300  0.60892100  1
  C  811  1  0.34086300  0.97098300  0.36430000  1
  C  813  1  0.30772700  0.00738700  0.35323800  1
  C  814  1  0.32309800  0.02531600  0.36353500  1
  C  816  1  0.35632000  0.98870900  0.37478800  1
  C  818  1  0.38126200  0.98005900  0.38691800  1
  C  825  1  0.55668900  0.75227500  0.73591400  1
  C  827  1  0.61833400  0.74583100  0.74680300  1
  C  828  1  0.60318300  0.75098400  0.76066100  1
  C  830  1  0.54107200  0.75765400  0.74984300  1
  C  832  1  0.50057100  0.76392400  0.75325000  1
  C  839  1  0.55664900  0.74315600  0.25994100  1
  C  841  1  0.61827100  0.74978500  0.24904700  1
  C  842  1  0.60313200  0.74453100  0.23519600  1
  C  844  1  0.54104700  0.73767100  0.24601800  1
  C  846  1  0.50056800  0.73123200  0.24262100  1
  C  853  1  0.10621300  0.25235700  0.25971700  1
  C  855  1  0.04455600  0.24577500  0.24883800  1
  C  856  1  0.05965600  0.25104200  0.23498000  1
  C  858  1  0.12177500  0.25785400  0.24578900  1
  C  860  1  0.16225400  0.26428900  0.24238300  1
  C  867  1  0.10619800  0.24307700  0.73615600  1
  C  869  1  0.04447600  0.24947200  0.74698900  1
  C  870  1  0.05962500  0.24460900  0.76087800  1
  C  872  1  0.12180700  0.23796200  0.75011600  1
  C  874  1  0.16234800  0.23188600  0.75356200  1
  N  4  1  0.75603200  0.71938900  0.84977900  1
  N  8  1  0.75523500  0.78027200  0.85073700  1
  N  14  1  0.79593600  0.77778400  0.87974400  1
  N  20  1  0.79577600  0.71689800  0.87894100  1
  N  86  1  0.75579600  0.77685300  0.14607700  1
  N  90  1  0.75515000  0.71597400  0.14510300  1
  N  96  1  0.79577300  0.71862800  0.11608500  1
  N  102  1  0.79504700  0.77952300  0.11683600  1
  N  168  1  0.90681400  0.21850300  0.14607100  1
  N  172  1  0.90625700  0.27941000  0.14504300  1
  N  178  1  0.86632800  0.27607800  0.11590100  1
  N  184  1  0.86751000  0.21526900  0.11681400  1
  N  250  1  0.90706800  0.27802200  0.84981100  1
  N  254  1  0.90629000  0.21710900  0.85084200  1
  N  260  1  0.86662600  0.22045800  0.88002400  1
  N  266  1  0.86818900  0.28127600  0.87912800  1
  N  332  1  0.25621000  0.21889000  0.34957700  1
  N  336  1  0.25507900  0.27976700  0.35042200  1
  N  342  1  0.29550000  0.27748400  0.37950600  1
  N  348  1  0.29569200  0.21660200  0.37880000  1
  N  414  1  0.25605300  0.27647900  0.64626600  1
  N  418  1  0.25500700  0.21560400  0.64543300  1
  N  424  1  0.29529500  0.21798700  0.61632600  1
  N  430  1  0.29496400  0.27888000  0.61694700  1
  N  496  1  0.40710100  0.71797400  0.64619700  1
  N  500  1  0.40688700  0.77890000  0.64528500  1
  N  506  1  0.36734700  0.77578800  0.61606200  1
  N  512  1  0.36816700  0.71495900  0.61687800  1
  N  578  1  0.40735200  0.77766100  0.34969400  1
  N  582  1  0.40696100  0.71672700  0.35059900  1
  N  588  1  0.36768100  0.71982900  0.37986400  1
  N  594  1  0.36883200  0.78067000  0.37907400  1
  N  658  1  0.83110200  0.73290200  0.99052300  1
  N  661  1  0.88934500  0.75397500  0.00565100  1
  N  669  1  0.85775800  0.74517200  0.96843800  1
  N  670  1  0.85807500  0.74514600  0.02758900  1
  N  672  1  0.83085800  0.23266400  0.00529800  1
  N  675  1  0.77299700  0.25440600  0.99028100  1
  N  683  1  0.80412100  0.24435800  0.02744300  1
  N  684  1  0.80431800  0.24609600  0.96831200  1
  N  686  1  0.32939000  0.23297800  0.49043400  1
  N  689  1  0.38792500  0.25338200  0.50565800  1
  N  697  1  0.35648000  0.24501600  0.46838800  1
  N  698  1  0.35646600  0.24468900  0.52756600  1
  N  700  1  0.33278600  0.73248100  0.50533000  1
  N  703  1  0.27466800  0.75375100  0.49026000  1
  N  711  1  0.30585400  0.74411700  0.52744800  1
  N  712  1  0.30607900  0.74549400  0.46831100  1
  N  714  1  0.83384000  0.98293200  0.85227500  1
  N  717  1  0.83063700  0.01391300  0.87614300  1
  N  725  1  0.81869700  0.94507500  0.86511500  1
  N  726  1  0.84888100  0.05151700  0.86228100  1
  N  728  1  0.83387900  0.51354700  0.14356600  1
  N  731  1  0.83057700  0.48247600  0.11973300  1
  N  739  1  0.81864000  0.55132400  0.13070200  1
  N  740  1  0.84893400  0.44496400  0.13361800  1
  N  742  1  0.81635400  0.01482000  0.14166800  1
  N  745  1  0.84603300  0.98098000  0.12196500  1
  N  753  1  0.84549700  0.05120600  0.13144600  1
  N  754  1  0.81608800  0.94447600  0.13198300  1
  N  756  1  0.81651900  0.48155700  0.85420000  1
  N  759  1  0.84629800  0.51539700  0.87391400  1
  N  767  1  0.84565500  0.44519000  0.86439600  1
  N  768  1  0.81639600  0.55188400  0.86391700  1
  N  770  1  0.33400300  0.48247800  0.35192700  1
  N  773  1  0.33127800  0.51340900  0.37582300  1
  N  781  1  0.31882000  0.44461900  0.36476300  1
  N  782  1  0.34953700  0.55100900  0.36194900  1
  N  784  1  0.33395400  0.01307400  0.64394500  1
  N  787  1  0.33113800  0.98208000  0.62007600  1
  N  795  1  0.31868900  0.05086800  0.63109400  1
  N  796  1  0.34949700  0.94455600  0.63396100  1
  N  798  1  0.31680400  0.51432200  0.64175900  1
  N  801  1  0.34656700  0.48049300  0.62206900  1
  N  809  1  0.34586100  0.55072800  0.63151300  1
  N  810  1  0.31664400  0.44397400  0.63207100  1
  N  812  1  0.31693200  0.98114000  0.35409000  1
  N  815  1  0.34676100  0.01499800  0.37378400  1
  N  823  1  0.34597500  0.94477000  0.36432800  1
  N  824  1  0.31688700  0.05148700  0.36378400  1
  N  826  1  0.59471800  0.74660200  0.73513200  1
  N  829  1  0.56520600  0.75656300  0.76143300  1
  N  837  1  0.53516600  0.75227500  0.72399400  1
  N  838  1  0.62583400  0.75037600  0.77225800  1
  N  840  1  0.59465800  0.74897000  0.26071800  1
  N  843  1  0.56517500  0.73881200  0.23442800  1
  N  851  1  0.53512000  0.74316000  0.27185800  1
  N  852  1  0.62577100  0.74523200  0.22359700  1
  N  854  1  0.06819900  0.24656100  0.26050100  1
  N  857  1  0.09761600  0.25674600  0.23420500  1
  N  865  1  0.12776500  0.25235800  0.27163400  1
  N  866  1  0.03695900  0.25041300  0.22339300  1
  N  868  1  0.06813300  0.24860200  0.73533300  1
  N  871  1  0.09763900  0.23916900  0.76169200  1
  N  879  1  0.12776500  0.24301200  0.72424400  1
  N  880  1  0.03693100  0.24537200  0.77246100  1
  O  665  1  0.93232000  0.76341100  0.96926700  1
  O  679  1  0.72982600  0.26295700  0.02669200  1
  O  693  1  0.43138000  0.26257000  0.46933500  1
  O  707  1  0.23132500  0.76226000  0.52664400  1
  O  721  1  0.77316700  0.96821800  0.89303600  1
  O  735  1  0.77297000  0.52793900  0.10282800  1
  O  749  1  0.91696300  0.02545700  0.11371200  1
  O  763  1  0.91714600  0.47092700  0.88211200  1
  O  777  1  0.27378300  0.46779400  0.39278000  1
  O  791  1  0.27352000  0.02748800  0.60311800  1
  O  805  1  0.41741400  0.52504100  0.61381900  1
  O  819  1  0.41752800  0.97047900  0.38200900  1
  O  833  1  0.47566600  0.76878200  0.74120100  1
  O  847  1  0.47568900  0.72632500  0.25467900  1
  O  861  1  0.18714800  0.26920000  0.25443600  1
  O  875  1  0.18727300  0.22684500  0.74154100  1
