# generated using pymatgen
data_H28C41(N4O)2
_symmetry_space_group_name_H-M   'P 1'
_cell_length_a   33.09970000
_cell_length_b   33.09970000
_cell_length_c   46.79810000
_cell_angle_alpha   90.00000000
_cell_angle_beta   90.00000000
_cell_angle_gamma   90.00000000
_symmetry_Int_Tables_number   1
_chemical_formula_structural   H28C41(N4O)2
_chemical_formula_sum   'H448 C656 N128 O32'
_cell_volume   51271.53693495
_cell_formula_units_Z   16
loop_
 _symmetry_equiv_pos_site_id
 _symmetry_equiv_pos_as_xyz
  1  'x, y, z'
loop_
 _atom_site_type_symbol
 _atom_site_label
 _atom_site_symmetry_multiplicity
 _atom_site_fract_x
 _atom_site_fract_y
 _atom_site_fract_z
 _atom_site_occupancy
  H  8  1  0.13193600  0.05802200  0.17541400  1
  H  9  1  0.08824300  0.06117000  0.21586500  1
  H  13  1  0.13840400  0.02773200  0.96793600  1
  H  23  1  0.09073500  0.17104000  0.20499900  1
  H  24  1  0.13287200  0.10761900  0.09428900  1
  H  27  1  0.09064100  0.10416800  0.05311500  1
  H  28  1  0.12898200  0.01334200  0.00367700  1
  H  29  1  0.06744900  0.13567400  0.28430600  1
  H  34  1  0.13360800  0.20385000  0.17176300  1
  H  35  1  0.16716500  0.19297200  0.12119900  1
  H  36  1  0.20470400  0.19346800  0.14823800  1
  H  41  1  0.24157200  0.05792800  0.09529800  1
  H  42  1  0.28556000  0.06082300  0.05501000  1
  H  51  1  0.73906000  0.05896800  0.59416500  1
  H  52  1  0.63084800  0.05871900  0.67515500  1
  H  53  1  0.58672700  0.06148200  0.71536600  1
  H  54  1  0.78071600  0.06220000  0.55267600  1
  H  60  1  0.23943500  0.03022800  0.30466800  1
  H  65  1  0.80152000  0.02809300  0.78349300  1
  H  72  1  0.63443400  0.03191700  0.46662500  1
  H  81  1  0.28161400  0.17089000  0.06481700  1
  H  82  1  0.24004000  0.10872400  0.17592900  1
  H  85  1  0.28165700  0.10612000  0.21750600  1
  H  98  1  0.73992400  0.10849600  0.67532800  1
  H  99  1  0.63140100  0.10959100  0.59454300  1
  H  100  1  0.77877000  0.17205500  0.56369500  1
  H  101  1  0.59099900  0.17162200  0.70588900  1
  H  106  1  0.58921600  0.10710700  0.55331500  1
  H  107  1  0.78376100  0.10501700  0.71568200  1
  H  114  1  0.73496000  0.13958700  0.46770400  1
  H  115  1  0.74425400  0.15301100  0.50365000  1
  H  120  1  0.57159700  0.13905400  0.78299000  1
  H  122  1  0.41837500  0.13305300  0.72551000  1
  H  123  1  0.40303900  0.16223700  0.75568600  1
  H  125  1  0.24730100  0.01492700  0.26892500  1
  H  129  1  0.30272400  0.13776800  0.98724400  1
  H  131  1  0.45356200  0.13286300  0.04764400  1
  H  132  1  0.46998900  0.16149600  0.01748800  1
  H  134  1  0.95181400  0.03188500  0.72235100  1
  H  135  1  0.62587200  0.01662100  0.50228700  1
  H  138  1  0.92089200  0.13443200  0.21933800  1
  H  139  1  0.90279300  0.16184400  0.24958300  1
  H  147  1  0.38667400  0.17555000  0.72100100  1
  H  150  1  0.48516100  0.17539700  0.05233100  1
  H  152  1  0.88960200  0.17719300  0.21464300  1
  H  153  1  0.75911200  0.18598600  0.47534400  1
  H  154  1  0.23825100  0.20378300  0.09766000  1
  H  155  1  0.73701200  0.20481100  0.59761600  1
  H  156  1  0.63409000  0.20458600  0.67290700  1
  H  157  1  0.70492100  0.19383300  0.64879100  1
  H  158  1  0.66681800  0.19439100  0.62214600  1
  H  160  1  0.91211900  0.18880200  0.53988700  1
  H  167  1  0.11441900  0.98104100  0.97490600  1
  H  170  1  0.03102500  0.42605200  0.45437100  1
  H  171  1  0.06110900  0.37852300  0.42329900  1
  H  172  1  0.05716000  0.27800800  0.34831100  1
  H  173  1  0.02376600  0.24075100  0.31248000  1
  H  175  1  0.05013500  0.34572200  0.37393100  1
  H  176  1  0.04552000  0.30770300  0.40048600  1
  H  179  1  0.02700600  0.92085900  0.95689300  1
  H  180  1  0.05892400  0.88099800  0.92159000  1
  H  181  1  0.05763900  0.78340500  0.84367400  1
  H  182  1  0.02451000  0.74323500  0.80917500  1
  H  184  1  0.04679600  0.85144500  0.86984400  1
  H  185  1  0.04811200  0.81248700  0.89587100  1
  H  196  1  0.09421600  0.99424000  0.06369100  1
  H  197  1  0.13632000  0.96179600  0.09755500  1
  H  198  1  0.16787500  0.97288700  0.14877200  1
  H  211  1  0.09320400  0.67020500  0.70687600  1
  H  212  1  0.13470100  0.70344100  0.67299700  1
  H  213  1  0.13311300  0.55755100  0.67576400  1
  H  214  1  0.13105800  0.60785400  0.59559600  1
  H  215  1  0.13724100  0.46204600  0.59656200  1
  H  216  1  0.09380800  0.49477700  0.56367600  1
  H  217  1  0.16650300  0.69297200  0.62161200  1
  H  218  1  0.16935200  0.47231500  0.64775600  1
  H  221  1  0.09188800  0.56025200  0.71743900  1
  H  222  1  0.08661300  0.60503500  0.55571200  1
  H  228  1  0.11444500  0.55825800  0.45695600  1
  H  229  1  0.09789200  0.50764400  0.45981300  1
  H  230  1  0.11837000  0.53314300  0.49015600  1
  H  234  1  0.13360400  0.63513500  0.80506400  1
  H  235  1  0.10924600  0.68165800  0.79817700  1
  H  236  1  0.12618400  0.65067900  0.76932800  1
  H  241  1  0.20635900  0.97288100  0.12240200  1
  H  242  1  0.20482600  0.69346500  0.64809200  1
  H  243  1  0.20748900  0.47355700  0.62115300  1
  H  244  1  0.26419900  0.98392300  0.29777200  1
  H  245  1  0.61016200  0.98528300  0.47328600  1
  H  247  1  0.23803400  0.96282900  0.17368300  1
  H  248  1  0.27978000  0.99616500  0.20734200  1
  H  251  1  0.59156400  0.99701700  0.56322100  1
  H  252  1  0.63356100  0.96370200  0.59671400  1
  H  253  1  0.73672500  0.96268100  0.67184300  1
  H  254  1  0.77980100  0.99510100  0.70511800  1
  H  256  1  0.66588100  0.97380500  0.64788700  1
  H  257  1  0.70389100  0.97373900  0.62117600  1
  H  270  1  0.23699100  0.70398100  0.59701500  1
  H  271  1  0.27987400  0.67115300  0.56375500  1
  H  272  1  0.24086700  0.55813700  0.59475600  1
  H  273  1  0.24032000  0.60873900  0.67553300  1
  H  274  1  0.28129400  0.49620300  0.70616300  1
  H  275  1  0.23960500  0.46286200  0.67246500  1
  H  277  1  0.28406200  0.56104400  0.55413500  1
  H  279  1  0.28308100  0.60637900  0.71633000  1
  H  304  1  0.78223000  0.49574700  0.20485400  1
  H  305  1  0.73864900  0.46296100  0.17199700  1
  H  306  1  0.63575400  0.46352600  0.09642700  1
  H  307  1  0.59435500  0.49675000  0.06246500  1
  H  308  1  0.63447600  0.60939400  0.09342900  1
  H  309  1  0.74313900  0.60879000  0.17394600  1
  H  310  1  0.63378700  0.55924000  0.17440900  1
  H  311  1  0.59498000  0.67251600  0.20508300  1
  H  312  1  0.63777200  0.70506900  0.17167200  1
  H  313  1  0.74148900  0.55808300  0.09337000  1
  H  314  1  0.73996300  0.70398100  0.09565300  1
  H  315  1  0.78122700  0.67050400  0.06174300  1
  H  318  1  0.70589700  0.47334200  0.12115300  1
  H  319  1  0.66783600  0.47418200  0.14781300  1
  H  321  1  0.66994500  0.69421700  0.12064600  1
  H  322  1  0.70824400  0.69384200  0.14714300  1
  H  326  1  0.78735100  0.60582000  0.21408800  1
  H  327  1  0.59366000  0.60659100  0.05153500  1
  H  328  1  0.78209700  0.56053000  0.05138800  1
  H  330  1  0.59054800  0.56239700  0.21495900  1
  H  352  1  0.91138800  0.28179900  0.34328500  1
  H  353  1  0.91563300  0.39264400  0.42421600  1
  H  354  1  0.96150600  0.27975200  0.42671800  1
  H  355  1  0.84761700  0.24703900  0.45965500  1
  H  356  1  0.81580700  0.28817300  0.42505500  1
  H  357  1  0.96321600  0.38598800  0.34340000  1
  H  358  1  0.81729300  0.38565900  0.34738800  1
  H  359  1  0.85020000  0.42443500  0.31200000  1
  H  362  1  0.82674100  0.31722900  0.37327300  1
  H  363  1  0.82823300  0.35636500  0.39917400  1
  H  367  1  0.92415500  0.44727200  0.45902200  1
  H  368  1  0.91499200  0.24296600  0.29965500  1
  H  369  1  0.95899800  0.42451100  0.29959300  1
  H  371  1  0.95667500  0.24129700  0.47030900  1
  H  393  1  0.85021800  0.74229900  0.95931200  1
  H  394  1  0.81697000  0.78258600  0.92498100  1
  H  395  1  0.81526900  0.88047200  0.84732400  1
  H  396  1  0.84704900  0.92050900  0.81201700  1
  H  397  1  0.96107100  0.88423700  0.84278800  1
  H  398  1  0.96282300  0.77664700  0.92501700  1
  H  399  1  0.91314300  0.88414600  0.92611200  1
  H  400  1  0.91182000  0.77678300  0.84371100  1
  H  403  1  0.82637200  0.81200300  0.87295100  1
  H  404  1  0.82755000  0.85087700  0.89904600  1
  H  408  1  0.95970800  0.73801800  0.96850200  1
  H  409  1  0.95576600  0.92264800  0.79911100  1
  H  410  1  0.91509800  0.73899100  0.79985000  1
  H  412  1  0.91809800  0.92292600  0.96948700  1
  H  437  1  0.52566300  0.24550300  0.81364600  1
  H  438  1  0.55787100  0.28567400  0.84868100  1
  H  439  1  0.55714600  0.38359500  0.92634900  1
  H  440  1  0.52428800  0.42389500  0.96087400  1
  H  441  1  0.41133300  0.39038100  0.92675700  1
  H  442  1  0.41201800  0.28281700  0.84451200  1
  H  443  1  0.46123300  0.38981900  0.84496100  1
  H  444  1  0.34796600  0.42453500  0.81195700  1
  H  445  1  0.31537700  0.38448300  0.84679600  1
  H  446  1  0.46114000  0.28230500  0.92719300  1
  H  447  1  0.31526500  0.28618700  0.92427800  1
  H  448  1  0.34779700  0.24560000  0.95893100  1
  H  451  1  0.54605600  0.31549800  0.90032200  1
  H  452  1  0.54730300  0.35440200  0.87425000  1
  H  454  1  0.32601200  0.35509600  0.89880700  1
  H  455  1  0.32628000  0.31625600  0.87267800  1
  H  459  1  0.41677400  0.24347500  0.80118800  1
  H  460  1  0.41490400  0.42858600  0.97041000  1
  H  461  1  0.45689200  0.24284600  0.97039100  1
  H  463  1  0.45729100  0.42823600  0.80142500  1
  H  488  1  0.34972800  0.92394100  0.31010000  1
  H  489  1  0.31692700  0.88389800  0.34478700  1
  H  490  1  0.31608700  0.78560700  0.42205300  1
  H  491  1  0.34816300  0.74428100  0.45639400  1
  H  492  1  0.46194900  0.78100300  0.42544400  1
  H  493  1  0.46279500  0.88929700  0.34348600  1
  H  494  1  0.41365000  0.78181600  0.34291500  1
  H  495  1  0.52754200  0.74540800  0.31197600  1
  H  496  1  0.55944500  0.78566800  0.34707600  1
  H  497  1  0.41217200  0.88909200  0.42532700  1
  H  498  1  0.55803200  0.88373500  0.42473900  1
  H  499  1  0.52484700  0.92387100  0.45926600  1
  H  502  1  0.32726500  0.85461100  0.39685500  1
  H  503  1  0.32752800  0.81581300  0.37068600  1
  H  505  1  0.54748800  0.81542900  0.39873200  1
  H  506  1  0.54834900  0.85434800  0.37266900  1
  H  510  1  0.45901600  0.92786200  0.29991800  1
  H  511  1  0.45735100  0.73858300  0.46742000  1
  H  512  1  0.41545300  0.92724600  0.46903600  1
  H  514  1  0.41848400  0.74247100  0.29983000  1
  H  517  1  0.96121300  0.97568100  0.03899800  1
  H  526  1  0.41341700  0.47927000  0.73082200  1
  H  529  1  0.23675800  0.53164500  0.80249300  1
  H  530  1  0.26055400  0.48487700  0.79544000  1
  H  531  1  0.24585500  0.51720300  0.76672100  1
  H  540  1  0.46137800  0.69059500  0.23000100  1
  H  543  1  0.63937400  0.63812300  0.30008500  1
  H  544  1  0.61571800  0.68497800  0.29309500  1
  H  545  1  0.62969400  0.65237100  0.26435000  1
  H  554  1  0.29635500  0.64684200  0.49122700  1
  H  557  1  0.48956000  0.69647400  0.54867300  1
  H  558  1  0.47876800  0.68874600  0.51212900  1
  H  559  1  0.45672300  0.73036800  0.53099500  1
  H  568  1  0.80529900  0.52972000  0.28200000  1
  H  571  1  0.98737300  0.48373200  0.21541000  1
  H  572  1  0.97001700  0.51539700  0.24323600  1
  H  573  1  0.97734900  0.46269500  0.24924100  1
  H  579  1  0.97694400  0.45718200  0.54233300  1
  H  587  1  0.91343600  0.68751000  0.03949900  1
  H  590  1  0.74119900  0.63428600  0.96315100  1
  H  591  1  0.76539600  0.68090600  0.96999800  1
  H  592  1  0.74830500  0.65005300  0.99887100  1
  H  598  1  0.41334200  0.97939700  0.22946000  1
  H  606  1  0.98270300  0.98899300  0.71697900  1
  H  607  1  0.96836100  0.00245200  0.75208100  1
  H  612  1  0.45908200  0.97926100  0.53959800  1
  H  616  1  0.96079600  0.68754900  0.72912500  1
  H  625  1  0.46207900  0.47975300  0.04101000  1
  H  628  1  0.63320100  0.53195300  0.96308300  1
  H  629  1  0.60896900  0.48545700  0.97027400  1
  H  630  1  0.62664800  0.51642100  0.99890900  1
  H  640  1  0.13193600  0.48098700  0.26088800  1
  H  641  1  0.08824300  0.48413500  0.30133900  1
  H  645  1  0.13840400  0.45069700  0.05340960  1
  H  655  1  0.09073500  0.59400500  0.29047300  1
  H  656  1  0.13287200  0.53058400  0.17976300  1
  H  659  1  0.09064100  0.52713300  0.13858900  1
  H  660  1  0.12898200  0.43630700  0.08915060  1
  H  661  1  0.06744900  0.55863900  0.36978000  1
  H  666  1  0.13360800  0.62681500  0.25723700  1
  H  667  1  0.16716500  0.61593700  0.20667300  1
  H  668  1  0.20470400  0.61643300  0.23371200  1
  H  673  1  0.24157200  0.48089300  0.18077200  1
  H  674  1  0.28556000  0.48378800  0.14048400  1
  H  683  1  0.73906000  0.48193300  0.67963900  1
  H  684  1  0.63084800  0.48168400  0.76062900  1
  H  685  1  0.58672700  0.48444700  0.80084000  1
  H  686  1  0.78071600  0.48516500  0.63815000  1
  H  692  1  0.23943500  0.45319300  0.39014200  1
  H  697  1  0.80152000  0.45105800  0.86896700  1
  H  704  1  0.63443400  0.45488200  0.55209900  1
  H  713  1  0.28161400  0.59385500  0.15029100  1
  H  714  1  0.24004000  0.53168900  0.26140300  1
  H  717  1  0.28165700  0.52908500  0.30298000  1
  H  730  1  0.73992400  0.53146100  0.76080200  1
  H  731  1  0.63140100  0.53255600  0.68001700  1
  H  732  1  0.77877000  0.59502000  0.64916900  1
  H  733  1  0.59099900  0.59458700  0.79136300  1
  H  738  1  0.58921600  0.53007200  0.63878900  1
  H  739  1  0.78376100  0.52798200  0.80115600  1
  H  746  1  0.73496000  0.56255200  0.55317800  1
  H  747  1  0.74425400  0.57597600  0.58912400  1
  H  752  1  0.57159700  0.56201900  0.86846400  1
  H  754  1  0.41837500  0.55601800  0.81098400  1
  H  755  1  0.40303900  0.58520200  0.84116000  1
  H  757  1  0.24730100  0.43789200  0.35439900  1
  H  761  1  0.30272400  0.56073300  0.07271760  1
  H  763  1  0.45356200  0.55582800  0.13311800  1
  H  764  1  0.46998900  0.58446100  0.10296200  1
  H  766  1  0.95181400  0.45485000  0.80782500  1
  H  767  1  0.62587200  0.43958600  0.58776100  1
  H  770  1  0.92089200  0.55739700  0.30481200  1
  H  771  1  0.90279300  0.58480900  0.33505700  1
  H  779  1  0.38667400  0.59851500  0.80647500  1
  H  782  1  0.48516100  0.59836200  0.13780500  1
  H  784  1  0.88960200  0.60015800  0.30011700  1
  H  785  1  0.75911200  0.60895100  0.56081800  1
  H  786  1  0.23825100  0.62674800  0.18313400  1
  H  787  1  0.73701200  0.62777600  0.68309000  1
  H  788  1  0.63409000  0.62755100  0.75838100  1
  H  789  1  0.70492100  0.61679800  0.73426500  1
  H  790  1  0.66681800  0.61735600  0.70762000  1
  H  792  1  0.91211900  0.61176700  0.62536100  1
  H  799  1  0.11441900  0.40400600  0.06037960  1
  H  802  1  0.03102500  0.84901700  0.53984500  1
  H  803  1  0.06110900  0.80148800  0.50877300  1
  H  804  1  0.05716000  0.70097300  0.43378500  1
  H  805  1  0.02376600  0.66371600  0.39795400  1
  H  807  1  0.05013500  0.76868700  0.45940500  1
  H  808  1  0.04552000  0.73066800  0.48596000  1
  H  811  1  0.02700600  0.34382400  0.04236660  1
  H  812  1  0.05892400  0.30396300  0.00706356  1
  H  813  1  0.05763900  0.20637000  0.92914800  1
  H  814  1  0.02451000  0.16620000  0.89464900  1
  H  816  1  0.04679600  0.27441000  0.95531800  1
  H  817  1  0.04811200  0.23545200  0.98134500  1
  H  828  1  0.09421600  0.41720500  0.14916500  1
  H  829  1  0.13632000  0.38476100  0.18302900  1
  H  830  1  0.16787500  0.39585200  0.23424600  1
  H  843  1  0.09320400  0.09316960  0.79235000  1
  H  844  1  0.13470100  0.12640600  0.75847100  1
  H  845  1  0.13311300  0.98051600  0.76123800  1
  H  846  1  0.13105800  0.03081860  0.68107000  1
  H  847  1  0.13724100  0.88501100  0.68203600  1
  H  848  1  0.09380800  0.91774200  0.64915000  1
  H  849  1  0.16650300  0.11593700  0.70708600  1
  H  850  1  0.16935200  0.89528000  0.73323000  1
  H  853  1  0.09188800  0.98321700  0.80291300  1
  H  854  1  0.08661300  0.02799960  0.64118600  1
  H  860  1  0.11444500  0.98122300  0.54243000  1
  H  861  1  0.09789200  0.93060900  0.54528700  1
  H  862  1  0.11837000  0.95610800  0.57563000  1
  H  866  1  0.13360400  0.05809960  0.89053800  1
  H  867  1  0.10924600  0.10462300  0.88365100  1
  H  868  1  0.12618400  0.07364360  0.85480200  1
  H  873  1  0.20635900  0.39584600  0.20787600  1
  H  874  1  0.20482600  0.11643000  0.73356600  1
  H  875  1  0.20748900  0.89652200  0.70662700  1
  H  876  1  0.26419900  0.40688800  0.38324600  1
  H  877  1  0.61016200  0.40824800  0.55876000  1
  H  879  1  0.23803400  0.38579400  0.25915700  1
  H  880  1  0.27978000  0.41913000  0.29281600  1
  H  883  1  0.59156400  0.41998200  0.64869500  1
  H  884  1  0.63356100  0.38666700  0.68218800  1
  H  885  1  0.73672500  0.38564600  0.75731700  1
  H  886  1  0.77980100  0.41806600  0.79059200  1
  H  888  1  0.66588100  0.39677000  0.73336100  1
  H  889  1  0.70389100  0.39670400  0.70665000  1
  H  902  1  0.23699100  0.12694600  0.68248900  1
  H  903  1  0.27987400  0.09411760  0.64922900  1
  H  904  1  0.24086700  0.98110200  0.68023000  1
  H  905  1  0.24032000  0.03170360  0.76100700  1
  H  906  1  0.28129400  0.91916800  0.79163700  1
  H  907  1  0.23960500  0.88582700  0.75793900  1
  H  909  1  0.28406200  0.98400900  0.63960900  1
  H  911  1  0.28308100  0.02934360  0.80180400  1
  H  936  1  0.78223000  0.91871200  0.29032800  1
  H  937  1  0.73864900  0.88592600  0.25747100  1
  H  938  1  0.63575400  0.88649100  0.18190100  1
  H  939  1  0.59435500  0.91971500  0.14793900  1
  H  940  1  0.63447600  0.03235860  0.17890300  1
  H  941  1  0.74313900  0.03175460  0.25942000  1
  H  942  1  0.63378700  0.98220500  0.25988300  1
  H  943  1  0.59498000  0.09548060  0.29055700  1
  H  944  1  0.63777200  0.12803400  0.25714600  1
  H  945  1  0.74148900  0.98104800  0.17884400  1
  H  946  1  0.73996300  0.12694600  0.18112700  1
  H  947  1  0.78122700  0.09346860  0.14721700  1
  H  950  1  0.70589700  0.89630700  0.20662700  1
  H  951  1  0.66783600  0.89714700  0.23328700  1
  H  953  1  0.66994500  0.11718200  0.20612000  1
  H  954  1  0.70824400  0.11680700  0.23261700  1
  H  958  1  0.78735100  0.02878460  0.29956200  1
  H  959  1  0.59366000  0.02955560  0.13700900  1
  H  960  1  0.78209700  0.98349500  0.13686200  1
  H  962  1  0.59054800  0.98536200  0.30043300  1
  H  984  1  0.91138800  0.70476400  0.42875900  1
  H  985  1  0.91563300  0.81560900  0.50969000  1
  H  986  1  0.96150600  0.70271700  0.51219200  1
  H  987  1  0.84761700  0.67000400  0.54512900  1
  H  988  1  0.81580700  0.71113800  0.51052900  1
  H  989  1  0.96321600  0.80895300  0.42887400  1
  H  990  1  0.81729300  0.80862400  0.43286200  1
  H  991  1  0.85020000  0.84740000  0.39747400  1
  H  994  1  0.82674100  0.74019400  0.45874700  1
  H  995  1  0.82823300  0.77933000  0.48464800  1
  H  999  1  0.92415500  0.87023700  0.54449600  1
  H  1000  1  0.91499200  0.66593100  0.38512900  1
  H  1001  1  0.95899800  0.84747600  0.38506700  1
  H  1003  1  0.95667500  0.66426200  0.55578300  1
  H  1025  1  0.85021800  0.16526400  0.04478560  1
  H  1026  1  0.81697000  0.20555100  0.01045460  1
  H  1027  1  0.81526900  0.30343700  0.93279800  1
  H  1028  1  0.84704900  0.34347400  0.89749100  1
  H  1029  1  0.96107100  0.30720200  0.92826200  1
  H  1030  1  0.96282300  0.19961200  0.01049060  1
  H  1031  1  0.91314300  0.30711100  0.01158560  1
  H  1032  1  0.91182000  0.19974800  0.92918500  1
  H  1035  1  0.82637200  0.23496800  0.95842500  1
  H  1036  1  0.82755000  0.27384200  0.98452000  1
  H  1040  1  0.95970800  0.16098300  0.05397560  1
  H  1041  1  0.95576600  0.34561300  0.88458500  1
  H  1042  1  0.91509800  0.16195600  0.88532400  1
  H  1044  1  0.91809800  0.34589100  0.05496060  1
  H  1069  1  0.52566300  0.66846800  0.89912000  1
  H  1070  1  0.55787100  0.70863900  0.93415500  1
  H  1071  1  0.55714600  0.80656000  0.01182260  1
  H  1072  1  0.52428800  0.84686000  0.04634760  1
  H  1073  1  0.41133300  0.81334600  0.01223060  1
  H  1074  1  0.41201800  0.70578200  0.92998600  1
  H  1075  1  0.46123300  0.81278400  0.93043500  1
  H  1076  1  0.34796600  0.84750000  0.89743100  1
  H  1077  1  0.31537700  0.80744800  0.93227000  1
  H  1078  1  0.46114000  0.70527000  0.01266660  1
  H  1079  1  0.31526500  0.70915200  0.00975156  1
  H  1080  1  0.34779700  0.66856500  0.04440460  1
  H  1083  1  0.54605600  0.73846300  0.98579600  1
  H  1084  1  0.54730300  0.77736700  0.95972400  1
  H  1086  1  0.32601200  0.77806100  0.98428100  1
  H  1087  1  0.32628000  0.73922100  0.95815200  1
  H  1091  1  0.41677400  0.66644000  0.88666200  1
  H  1092  1  0.41490400  0.85155100  0.05588360  1
  H  1093  1  0.45689200  0.66581100  0.05586460  1
  H  1095  1  0.45729100  0.85120100  0.88689900  1
  H  1120  1  0.34972800  0.34690600  0.39557400  1
  H  1121  1  0.31692700  0.30686300  0.43026100  1
  H  1122  1  0.31608700  0.20857200  0.50752700  1
  H  1123  1  0.34816300  0.16724600  0.54186800  1
  H  1124  1  0.46194900  0.20396800  0.51091800  1
  H  1125  1  0.46279500  0.31226200  0.42896000  1
  H  1126  1  0.41365000  0.20478100  0.42838900  1
  H  1127  1  0.52754200  0.16837300  0.39745000  1
  H  1128  1  0.55944500  0.20863300  0.43255000  1
  H  1129  1  0.41217200  0.31205700  0.51080100  1
  H  1130  1  0.55803200  0.30670000  0.51021300  1
  H  1131  1  0.52484700  0.34683600  0.54474000  1
  H  1134  1  0.32726500  0.27757600  0.48232900  1
  H  1135  1  0.32752800  0.23877800  0.45616000  1
  H  1137  1  0.54748800  0.23839400  0.48420600  1
  H  1138  1  0.54834900  0.27731300  0.45814300  1
  H  1142  1  0.45901600  0.35082700  0.38539200  1
  H  1143  1  0.45735100  0.16154800  0.55289400  1
  H  1144  1  0.41545300  0.35021100  0.55451000  1
  H  1146  1  0.41848400  0.16543600  0.38530400  1
  H  1149  1  0.96121300  0.39864600  0.12447200  1
  H  1158  1  0.41341700  0.90223500  0.81629600  1
  H  1161  1  0.23675800  0.95461000  0.88796700  1
  H  1162  1  0.26055400  0.90784200  0.88091400  1
  H  1163  1  0.24585500  0.94016800  0.85219500  1
  H  1172  1  0.46137800  0.11356000  0.31547500  1
  H  1175  1  0.63937400  0.06108760  0.38555900  1
  H  1176  1  0.61571800  0.10794300  0.37856900  1
  H  1177  1  0.62969400  0.07533560  0.34982400  1
  H  1186  1  0.29635500  0.06980660  0.57670100  1
  H  1189  1  0.48956000  0.11943900  0.63414700  1
  H  1190  1  0.47876800  0.11171100  0.59760300  1
  H  1191  1  0.45672300  0.15333300  0.61646900  1
  H  1200  1  0.80529900  0.95268500  0.36747400  1
  H  1203  1  0.98737300  0.90669700  0.30088400  1
  H  1204  1  0.97001700  0.93836200  0.32871000  1
  H  1205  1  0.97734900  0.88566000  0.33471500  1
  H  1211  1  0.97694400  0.88014700  0.62780700  1
  H  1219  1  0.91343600  0.11047500  0.12497300  1
  H  1222  1  0.74119900  0.05725060  0.04862460  1
  H  1223  1  0.76539600  0.10387100  0.05547160  1
  H  1224  1  0.74830500  0.07301760  0.08434460  1
  H  1230  1  0.41334200  0.40236200  0.31493400  1
  H  1238  1  0.98270300  0.41195800  0.80245300  1
  H  1239  1  0.96836100  0.42541700  0.83755500  1
  H  1244  1  0.45908200  0.40222600  0.62507200  1
  H  1248  1  0.96079600  0.11051400  0.81459900  1
  H  1257  1  0.46207900  0.90271800  0.12648400  1
  H  1260  1  0.63320100  0.95491800  0.04855660  1
  H  1261  1  0.60896900  0.90842200  0.05574760  1
  H  1262  1  0.62664800  0.93938600  0.08438260  1
  C  1  1  0.04376200  0.02821000  0.02535700  1
  C  2  1  0.04964900  0.01604600  0.99665900  1
  C  4  1  0.16027800  0.01524200  0.11609100  1
  C  5  1  0.15945600  0.05811100  0.11557700  1
  C  6  1  0.10890100  0.05444300  0.07570200  1
  C  7  1  0.11048200  0.01194100  0.07735100  1
  C  12  1  0.11696300  0.01242900  0.98192600  1
  C  14  1  0.04512700  0.14812800  0.27206200  1
  C  15  1  0.03987600  0.13649300  0.24327900  1
  C  17  1  0.13328500  0.07672200  0.09525300  1
  C  18  1  0.15889300  0.15061700  0.15380700  1
  C  19  1  0.15857600  0.10774300  0.15440500  1
  C  20  1  0.10774400  0.15349200  0.19168900  1
  C  21  1  0.10669800  0.11098800  0.19346700  1
  C  22  1  0.13199200  0.08891500  0.17436800  1
  C  25  1  0.08394200  0.09077800  0.21432300  1
  C  26  1  0.08652600  0.07452800  0.05459600  1
  C  31  1  0.13322400  0.17291800  0.17209300  1
  C  32  1  0.18656600  0.08306200  0.13520600  1
  C  33  1  0.18605400  0.17384000  0.13481300  1
  C  37  1  0.21393200  0.05865700  0.15499900  1
  C  38  1  0.21355100  0.01577500  0.15477400  1
  C  39  1  0.26338600  0.01350600  0.19352600  1
  C  40  1  0.26456700  0.05604200  0.19485500  1
  C  43  1  0.65771500  0.05952900  0.61534700  1
  C  44  1  0.65816500  0.01665000  0.61553500  1
  C  45  1  0.71212300  0.01613600  0.65374400  1
  C  46  1  0.71288200  0.05900700  0.65430600  1
  C  47  1  0.76300900  0.01280800  0.69178000  1
  C  48  1  0.76452900  0.05530400  0.69349300  1
  C  49  1  0.60685100  0.05691300  0.57563400  1
  C  50  1  0.60804100  0.01437500  0.57697200  1
  C  55  1  0.33100300  0.03135200  0.24475300  1
  C  57  1  0.32682100  0.01977400  0.27371800  1
  C  59  1  0.26049400  0.01500800  0.29034500  1
  C  62  1  0.82444100  0.01617400  0.77153900  1
  C  63  1  0.83096700  0.02903300  0.74314500  1
  C  67  1  0.54127900  0.03199800  0.52533900  1
  C  69  1  0.54642700  0.02032100  0.49647100  1
  C  71  1  0.61323400  0.01644200  0.48070500  1
  C  74  1  0.23995000  0.07781200  0.17516700  1
  C  75  1  0.21431700  0.10771800  0.11582700  1
  C  76  1  0.21351200  0.15059200  0.11605000  1
  C  77  1  0.24117200  0.08883500  0.09607400  1
  C  78  1  0.26626500  0.11085200  0.07681500  1
  C  79  1  0.26475500  0.15337100  0.07823500  1
  C  80  1  0.23899000  0.17285400  0.09761100  1
  C  83  1  0.28662100  0.07662400  0.21588200  1
  C  84  1  0.28944400  0.09051700  0.05625500  1
  C  86  1  0.65789900  0.10855500  0.65455400  1
  C  87  1  0.65866700  0.15143100  0.65435300  1
  C  88  1  0.71248600  0.15154900  0.61604600  1
  C  89  1  0.71292100  0.10867600  0.61549400  1
  C  90  1  0.73899100  0.08986300  0.59519700  1
  C  91  1  0.76352300  0.11195900  0.57564000  1
  C  92  1  0.76240500  0.15447000  0.57737100  1
  C  93  1  0.60781100  0.15412900  0.69242700  1
  C  94  1  0.60628300  0.11160700  0.69378600  1
  C  95  1  0.63127100  0.08962900  0.67443500  1
  C  96  1  0.73953800  0.07760200  0.67432600  1
  C  97  1  0.63152200  0.07867900  0.59528900  1
  C  102  1  0.68535600  0.08394100  0.63494800  1
  C  103  1  0.78759800  0.07533300  0.71426100  1
  C  104  1  0.58307400  0.09121900  0.71430200  1
  C  105  1  0.58466000  0.07751900  0.55468200  1
  C  108  1  0.78547700  0.09171900  0.55439200  1
  C  109  1  0.82899400  0.13764800  0.52545500  1
  C  111  1  0.82366800  0.15014300  0.49676800  1
  C  113  1  0.75639600  0.15443400  0.48194600  1
  C  117  1  0.54790500  0.15054500  0.77159300  1
  C  118  1  0.53989500  0.13718100  0.74350600  1
  C  121  1  0.41201800  0.16354400  0.73321900  1
  C  126  1  0.32593300  0.14950100  0.99900800  1
  C  127  1  0.33298400  0.13647200  0.02730100  1
  C  130  1  0.46023000  0.16321000  0.03977800  1
  C  137  1  0.91380200  0.16446100  0.22763100  1
  C  140  1  0.73753100  0.17387900  0.59735700  1
  C  141  1  0.63341600  0.17365500  0.67296700  1
  C  142  1  0.68574900  0.17473300  0.63535400  1
  C  143  1  0.88773800  0.17960400  0.52816800  1
  C  146  1  0.47983500  0.17777400  0.74355500  1
  C  149  1  0.39283400  0.17735000  0.02811200  1
  C  151  1  0.98044900  0.17796100  0.24149900  1
  C  159  1  0.88294000  0.19177200  0.49945600  1
  C  161  1  0.48847200  0.19190600  0.77143000  1
  C  163  1  0.38510300  0.19121400  0.00003300  1
  C  165  1  0.98648500  0.19058700  0.27008300  1
  C  168  1  0.02622200  0.27859400  0.34782600  1
  C  169  1  0.03026700  0.38110600  0.42325400  1
  C  174  1  0.02853100  0.32825900  0.38664800  1
  C  177  1  0.02799800  0.88192200  0.92195800  1
  C  178  1  0.02675600  0.78166800  0.84431800  1
  C  183  1  0.02808300  0.83172600  0.88316800  1
  C  187  1  0.04104100  0.52995300  0.52563400  1
  C  189  1  0.03910600  0.52651500  0.49555000  1
  C  191  1  0.04261400  0.63498700  0.74471300  1
  C  193  1  0.04659400  0.64638900  0.77372700  1
  C  195  1  0.13552600  0.99272100  0.09732100  1
  C  199  1  0.15913100  0.55819200  0.61569700  1
  C  200  1  0.16062100  0.51533900  0.61567200  1
  C  201  1  0.13590000  0.49295200  0.59680100  1
  C  202  1  0.10997400  0.51232700  0.57747400  1
  C  203  1  0.10733500  0.55482600  0.57665500  1
  C  204  1  0.13200700  0.57694700  0.59609200  1
  C  205  1  0.15902200  0.60757000  0.65466500  1
  C  206  1  0.15930400  0.65044300  0.65425000  1
  C  207  1  0.13306500  0.58846100  0.67487900  1
  C  208  1  0.10850700  0.61028300  0.69455700  1
  C  209  1  0.10955400  0.65281800  0.69306600  1
  C  210  1  0.13426100  0.67250700  0.67310100  1
  C  219  1  0.08354800  0.57521300  0.55650700  1
  C  220  1  0.08675000  0.58971200  0.71574200  1
  C  223  1  0.01243000  0.40905500  0.44170800  1
  C  224  1  0.00910200  0.90585900  0.94268500  1
  C  227  1  0.09969400  0.53655400  0.47103600  1
  C  233  1  0.11279200  0.65058500  0.79068300  1
  C  237  1  0.18702400  0.99226500  0.13551800  1
  C  238  1  0.18657900  0.58307400  0.63508900  1
  C  239  1  0.18584100  0.67383900  0.63490300  1
  C  240  1  0.18802400  0.49231200  0.63462100  1
  C  246  1  0.23852600  0.99376300  0.17369900  1
  C  249  1  0.73739900  0.99360900  0.67216100  1
  C  250  1  0.63304400  0.99463600  0.59671000  1
  C  255  1  0.68499600  0.99315000  0.63458700  1
  C  258  1  0.21442000  0.51578700  0.65400200  1
  C  259  1  0.21442300  0.55866000  0.65450900  1
  C  260  1  0.24046900  0.57783500  0.67463600  1
  C  261  1  0.26538100  0.55608900  0.69413400  1
  C  262  1  0.26458300  0.51355400  0.69255100  1
  C  263  1  0.23975800  0.49379800  0.67269800  1
  C  264  1  0.21283400  0.65073300  0.61570400  1
  C  265  1  0.21378600  0.60786900  0.61545800  1
  C  266  1  0.23779400  0.67305400  0.59694000  1
  C  267  1  0.26328900  0.65362700  0.57734300  1
  C  268  1  0.26497500  0.61110800  0.57599100  1
  C  269  1  0.24029500  0.58904400  0.59546200  1
  C  276  1  0.28818700  0.59069600  0.55550700  1
  C  278  1  0.28751700  0.57676300  0.71507500  1
  C  280  1  0.71572500  0.60824300  0.11439300  1
  C  281  1  0.71543500  0.65112000  0.11463700  1
  C  282  1  0.66186000  0.65167900  0.15314500  1
  C  283  1  0.66086600  0.60881400  0.15352900  1
  C  284  1  0.63432200  0.59014400  0.17357000  1
  C  285  1  0.60970900  0.61235500  0.19300400  1
  C  286  1  0.61146400  0.65486600  0.19152100  1
  C  287  1  0.63691700  0.67414400  0.17182800  1
  C  288  1  0.74040500  0.67304800  0.09565900  1
  C  289  1  0.76498200  0.65322000  0.07568300  1
  C  290  1  0.76598500  0.61067500  0.07432500  1
  C  291  1  0.74157100  0.58899600  0.09416800  1
  C  292  1  0.71558300  0.55909200  0.15351100  1
  C  293  1  0.71445600  0.51622800  0.15336000  1
  C  294  1  0.66052200  0.51652700  0.11506800  1
  C  295  1  0.66032200  0.55939700  0.11460500  1
  C  296  1  0.63539200  0.49446300  0.09626900  1
  C  297  1  0.61071800  0.51413700  0.07627300  1
  C  298  1  0.60977500  0.55666600  0.07471100  1
  C  299  1  0.63436400  0.57849100  0.09437200  1
  C  300  1  0.74247400  0.57788100  0.17328100  1
  C  301  1  0.76742000  0.55578700  0.19258400  1
  C  302  1  0.76548000  0.51327600  0.19135700  1
  C  303  1  0.73958600  0.49388300  0.17199900  1
  C  316  1  0.68812900  0.58388100  0.13402800  1
  C  317  1  0.68713500  0.49314000  0.13437100  1
  C  320  1  0.68890300  0.67464900  0.13390000  1
  C  323  1  0.58824600  0.57720100  0.05338900  1
  C  324  1  0.78743200  0.58995600  0.05305700  1
  C  325  1  0.79104200  0.57609500  0.21290200  1
  C  329  1  0.58682000  0.59211300  0.21375600  1
  C  331  1  0.91342400  0.36151900  0.36570700  1
  C  332  1  0.87051100  0.36174000  0.36633300  1
  C  333  1  0.86965000  0.30945300  0.40543300  1
  C  334  1  0.91250600  0.30736800  0.40540100  1
  C  335  1  0.93063600  0.28111800  0.42593800  1
  C  336  1  0.90791300  0.25833300  0.44622700  1
  C  337  1  0.86549600  0.26142900  0.44511400  1
  C  338  1  0.84668600  0.28617000  0.42484200  1
  C  339  1  0.84823600  0.38598500  0.34713100  1
  C  340  1  0.86772900  0.40929600  0.32636300  1
  C  341  1  0.91020700  0.40996700  0.32454100  1
  C  342  1  0.93234600  0.38642900  0.34470800  1
  C  343  1  0.96366000  0.36075500  0.40459300  1
  C  344  1  0.00643700  0.35700300  0.40494800  1
  C  345  1  0.00436700  0.30352800  0.36680700  1
  C  346  1  0.96150600  0.30514100  0.36584800  1
  C  347  1  0.00639800  0.25610900  0.32678600  1
  C  348  1  0.96395300  0.25652300  0.32466500  1
  C  349  1  0.94221300  0.28058200  0.34477900  1
  C  350  1  0.94637900  0.38950200  0.42383500  1
  C  351  1  0.97009200  0.41350800  0.44279700  1
  C  360  1  0.93776900  0.33372500  0.38537000  1
  C  361  1  0.84685300  0.33625900  0.38607500  1
  C  364  1  0.94411900  0.23679800  0.30220200  1
  C  365  1  0.92976600  0.43011200  0.30220000  1
  C  366  1  0.95365700  0.44256500  0.46114600  1
  C  370  1  0.92721600  0.23667200  0.46801600  1
  C  372  1  0.96168700  0.80353800  0.86454300  1
  C  373  1  0.00456100  0.80509100  0.86407900  1
  C  374  1  0.00515900  0.85778600  0.90299900  1
  C  375  1  0.96227300  0.85837800  0.90382000  1
  C  376  1  0.94400400  0.88395300  0.92472300  1
  C  377  1  0.96665700  0.90740600  0.94466800  1
  C  378  1  0.00714700  0.75749500  0.82407100  1
  C  379  1  0.96467200  0.75475800  0.82350300  1
  C  380  1  0.94272900  0.77758600  0.84419400  1
  C  381  1  0.91286500  0.80333900  0.90426400  1
  C  382  1  0.86998000  0.80467100  0.90470300  1
  C  383  1  0.86914600  0.85747200  0.86589100  1
  C  384  1  0.91203100  0.85827900  0.86509200  1
  C  385  1  0.84619400  0.88148700  0.84692900  1
  C  386  1  0.86499500  0.90547200  0.82619500  1
  C  387  1  0.90743300  0.90716400  0.82422900  1
  C  388  1  0.93021300  0.88390700  0.84419200  1
  C  389  1  0.93191400  0.77733200  0.92453200  1
  C  390  1  0.91004300  0.75417800  0.94508200  1
  C  391  1  0.86755700  0.75670100  0.94447300  1
  C  392  1  0.84786200  0.78098200  0.92434200  1
  C  401  1  0.93721900  0.83084600  0.88444100  1
  C  402  1  0.84633300  0.83127800  0.88568300  1
  C  405  1  0.92652400  0.92797100  0.80196800  1
  C  406  1  0.94450300  0.73374000  0.80176900  1
  C  407  1  0.93025500  0.73293900  0.96668800  1
  C  411  1  0.94741200  0.92815500  0.96693600  1
  C  413  1  0.41162900  0.30855800  0.90559600  1
  C  414  1  0.36873400  0.30938300  0.90525200  1
  C  415  1  0.36878800  0.36222600  0.86644500  1
  C  416  1  0.41168000  0.36346500  0.86639800  1
  C  417  1  0.43033600  0.38925100  0.84580900  1
  C  418  1  0.40806400  0.41225100  0.82539400  1
  C  419  1  0.36558900  0.40997600  0.82655400  1
  C  420  1  0.34629000  0.38590600  0.84701000  1
  C  421  1  0.34619300  0.28519100  0.92434900  1
  C  422  1  0.36543500  0.26086900  0.94468700  1
  C  423  1  0.40791300  0.25909900  0.94615900  1
  C  424  1  0.43025400  0.28268600  0.92614400  1
  C  425  1  0.46134200  0.30863100  0.86658600  1
  C  426  1  0.50423400  0.30917800  0.86728200  1
  C  427  1  0.50391300  0.36191800  0.90614100  1
  C  428  1  0.46103700  0.36349500  0.90581800  1
  C  429  1  0.52625800  0.38534700  0.92581000  1
  C  430  1  0.50679900  0.40962900  0.94605900  1
  C  431  1  0.46433600  0.41247500  0.94673000  1
  C  432  1  0.44223600  0.38953200  0.92618600  1
  C  433  1  0.44288900  0.28300800  0.84580500  1
  C  434  1  0.46542100  0.25943300  0.82589200  1
  C  435  1  0.50788300  0.26085700  0.82775700  1
  C  436  1  0.52694100  0.28491700  0.84832900  1
  C  449  1  0.43642000  0.33609900  0.88608000  1
  C  450  1  0.52730600  0.33522300  0.88702400  1
  C  453  1  0.34552200  0.33574300  0.88579400  1
  C  456  1  0.44433000  0.43369800  0.96844000  1
  C  457  1  0.42752300  0.23779600  0.96795900  1
  C  458  1  0.44610300  0.23842000  0.80382900  1
  C  462  1  0.42784000  0.43317300  0.80344200  1
  C  464  1  0.46208200  0.86270800  0.40431300  1
  C  465  1  0.50496800  0.86148700  0.40461900  1
  C  466  1  0.50566000  0.80874700  0.36572000  1
  C  467  1  0.46277700  0.80794000  0.36499700  1
  C  468  1  0.44451700  0.78219000  0.34420200  1
  C  469  1  0.46718800  0.75875200  0.32426300  1
  C  470  1  0.50963500  0.76051700  0.32612800  1
  C  471  1  0.52852100  0.78467100  0.34673600  1
  C  472  1  0.52712800  0.88519400  0.42423700  1
  C  473  1  0.50748700  0.90932700  0.44449800  1
  C  474  1  0.46499500  0.91160500  0.44529100  1
  C  475  1  0.44307900  0.88851100  0.42473500  1
  C  476  1  0.41310600  0.86277700  0.36468300  1
  C  477  1  0.37021100  0.86162600  0.36460600  1
  C  478  1  0.36980300  0.80874700  0.40333900  1
  C  479  1  0.41269500  0.80774300  0.40382200  1
  C  480  1  0.34701200  0.78450800  0.42223700  1
  C  481  1  0.36600600  0.75982500  0.44244700  1
  C  482  1  0.40846500  0.75781900  0.44407300  1
  C  483  1  0.43107300  0.78161000  0.42432900  1
  C  484  1  0.43189200  0.88867500  0.34421500  1
  C  485  1  0.40974600  0.91181400  0.32379700  1
  C  486  1  0.36726900  0.90943000  0.32476300  1
  C  487  1  0.34784000  0.88530900  0.34511000  1
  C  500  1  0.43767100  0.83533000  0.38443800  1
  C  501  1  0.34677000  0.83521200  0.38387000  1
  C  504  1  0.52854200  0.83499400  0.38545800  1
  C  507  1  0.42766800  0.73532000  0.46545200  1
  C  508  1  0.44484600  0.93254500  0.46706800  1
  C  509  1  0.42960200  0.93295600  0.30198000  1
  C  513  1  0.44790400  0.73766400  0.30217200  1
  C  515  1  0.98560000  0.98537000  0.02748100  1
  C  516  1  0.99098700  0.97349400  0.99876000  1
  C  520  1  0.33062500  0.53131800  0.74461700  1
  C  522  1  0.38906300  0.48885000  0.74241600  1
  C  523  1  0.38417800  0.47741800  0.77127400  1
  C  525  1  0.32529900  0.51965700  0.77346900  1
  C  528  1  0.25804700  0.51627000  0.78842200  1
  C  534  1  0.54420700  0.63831600  0.24316100  1
  C  536  1  0.48599800  0.68108700  0.24134100  1
  C  537  1  0.49161700  0.69287600  0.27006200  1
  C  539  1  0.55039100  0.65041300  0.27183300  1
  C  542  1  0.61791400  0.65352500  0.28616100  1
  C  548  1  0.38623900  0.68915900  0.49930800  1
  C  550  1  0.32264600  0.65430400  0.50137700  1
  C  551  1  0.33325300  0.63632200  0.52759800  1
  C  553  1  0.39738100  0.67095100  0.52573700  1
  C  556  1  0.46606400  0.69881800  0.53243100  1
  C  562  1  0.88789800  0.47646300  0.26940600  1
  C  564  1  0.82856800  0.51800700  0.27028600  1
  C  565  1  0.83537800  0.53053900  0.24189000  1
  C  567  1  0.89556300  0.48980700  0.24110400  1
  C  570  1  0.96729500  0.48536300  0.23384700  1
  C  577  1  0.99393200  0.47532400  0.52938200  1
  C  578  1  0.99098700  0.47248700  0.49934200  1
  C  581  1  0.83166200  0.63489900  0.02387700  1
  C  583  1  0.88984700  0.67750400  0.02730900  1
  C  584  1  0.88659300  0.68831100  0.99821700  1
  C  586  1  0.82795500  0.64593600  0.99477700  1
  C  589  1  0.76186400  0.64986900  0.97756700  1
  C  595  1  0.38948300  0.98908300  0.24151600  1
  C  596  1  0.38574900  0.97774500  0.27048100  1
  C  601  1  0.88352100  0.97439700  0.77012200  1
  C  603  1  0.89072300  0.98797800  0.74190500  1
  C  605  1  0.95817700  0.00130400  0.72986700  1
  C  609  1  0.48317900  0.98912900  0.52785900  1
  C  610  1  0.48786800  0.97769300  0.49898300  1
  C  614  1  0.98447600  0.67765500  0.74127300  1
  C  615  1  0.98801700  0.68883300  0.77028100  1
  C  619  1  0.54366000  0.53211000  0.02453700  1
  C  621  1  0.48556900  0.48951700  0.02862900  1
  C  622  1  0.48838100  0.47840900  0.99956300  1
  C  624  1  0.54696500  0.52077100  0.99548000  1
  C  627  1  0.61273000  0.51652700  0.97772000  1
  C  633  1  0.04376200  0.45117500  0.11083100  1
  C  634  1  0.04964900  0.43901100  0.08213260  1
  C  636  1  0.16027800  0.43820700  0.20156500  1
  C  637  1  0.15945600  0.48107600  0.20105100  1
  C  638  1  0.10890100  0.47740800  0.16117600  1
  C  639  1  0.11048200  0.43490600  0.16282500  1
  C  644  1  0.11696300  0.43539400  0.06739960  1
  C  646  1  0.04512700  0.57109300  0.35753600  1
  C  647  1  0.03987600  0.55945800  0.32875300  1
  C  649  1  0.13328500  0.49968700  0.18072700  1
  C  650  1  0.15889300  0.57358200  0.23928100  1
  C  651  1  0.15857600  0.53070800  0.23987900  1
  C  652  1  0.10774400  0.57645700  0.27716300  1
  C  653  1  0.10669800  0.53395300  0.27894100  1
  C  654  1  0.13199200  0.51188000  0.25984200  1
  C  657  1  0.08394200  0.51374300  0.29979700  1
  C  658  1  0.08652600  0.49749300  0.14007000  1
  C  663  1  0.13322400  0.59588300  0.25756700  1
  C  664  1  0.18656600  0.50602700  0.22068000  1
  C  665  1  0.18605400  0.59680500  0.22028700  1
  C  669  1  0.21393200  0.48162200  0.24047300  1
  C  670  1  0.21355100  0.43874000  0.24024800  1
  C  671  1  0.26338600  0.43647100  0.27900000  1
  C  672  1  0.26456700  0.47900700  0.28032900  1
  C  675  1  0.65771500  0.48249400  0.70082100  1
  C  676  1  0.65816500  0.43961500  0.70100900  1
  C  677  1  0.71212300  0.43910100  0.73921800  1
  C  678  1  0.71288200  0.48197200  0.73978000  1
  C  679  1  0.76300900  0.43577300  0.77725400  1
  C  680  1  0.76452900  0.47826900  0.77896700  1
  C  681  1  0.60685100  0.47987800  0.66110800  1
  C  682  1  0.60804100  0.43734000  0.66244600  1
  C  687  1  0.33100300  0.45431700  0.33022700  1
  C  689  1  0.32682100  0.44273900  0.35919200  1
  C  691  1  0.26049400  0.43797300  0.37581900  1
  C  694  1  0.82444100  0.43913900  0.85701300  1
  C  695  1  0.83096700  0.45199800  0.82861900  1
  C  699  1  0.54127900  0.45496300  0.61081300  1
  C  701  1  0.54642700  0.44328600  0.58194500  1
  C  703  1  0.61323400  0.43940700  0.56617900  1
  C  706  1  0.23995000  0.50077700  0.26064100  1
  C  707  1  0.21431700  0.53068300  0.20130100  1
  C  708  1  0.21351200  0.57355700  0.20152400  1
  C  709  1  0.24117200  0.51180000  0.18154800  1
  C  710  1  0.26626500  0.53381700  0.16228900  1
  C  711  1  0.26475500  0.57633600  0.16370900  1
  C  712  1  0.23899000  0.59581900  0.18308500  1
  C  715  1  0.28662100  0.49958900  0.30135600  1
  C  716  1  0.28944400  0.51348200  0.14172900  1
  C  718  1  0.65789900  0.53152000  0.74002800  1
  C  719  1  0.65866700  0.57439600  0.73982700  1
  C  720  1  0.71248600  0.57451400  0.70152000  1
  C  721  1  0.71292100  0.53164100  0.70096800  1
  C  722  1  0.73899100  0.51282800  0.68067100  1
  C  723  1  0.76352300  0.53492400  0.66111400  1
  C  724  1  0.76240500  0.57743500  0.66284500  1
  C  725  1  0.60781100  0.57709400  0.77790100  1
  C  726  1  0.60628300  0.53457200  0.77926000  1
  C  727  1  0.63127100  0.51259400  0.75990900  1
  C  728  1  0.73953800  0.50056700  0.75980000  1
  C  729  1  0.63152200  0.50164400  0.68076300  1
  C  734  1  0.68535600  0.50690600  0.72042200  1
  C  735  1  0.78759800  0.49829800  0.79973500  1
  C  736  1  0.58307400  0.51418400  0.79977600  1
  C  737  1  0.58466000  0.50048400  0.64015600  1
  C  740  1  0.78547700  0.51468400  0.63986600  1
  C  741  1  0.82899400  0.56061300  0.61092900  1
  C  743  1  0.82366800  0.57310800  0.58224200  1
  C  745  1  0.75639600  0.57739900  0.56742000  1
  C  749  1  0.54790500  0.57351000  0.85706700  1
  C  750  1  0.53989500  0.56014600  0.82898000  1
  C  753  1  0.41201800  0.58650900  0.81869300  1
  C  758  1  0.32593300  0.57246600  0.08448160  1
  C  759  1  0.33298400  0.55943700  0.11277500  1
  C  762  1  0.46023000  0.58617500  0.12525200  1
  C  769  1  0.91380200  0.58742600  0.31310500  1
  C  772  1  0.73753100  0.59684400  0.68283100  1
  C  773  1  0.63341600  0.59662000  0.75844100  1
  C  774  1  0.68574900  0.59769800  0.72082800  1
  C  775  1  0.88773800  0.60256900  0.61364200  1
  C  778  1  0.47983500  0.60073900  0.82902900  1
  C  781  1  0.39283400  0.60031500  0.11358600  1
  C  783  1  0.98044900  0.60092600  0.32697300  1
  C  791  1  0.88294000  0.61473700  0.58493000  1
  C  793  1  0.48847200  0.61487100  0.85690400  1
  C  795  1  0.38510300  0.61417900  0.08550660  1
  C  797  1  0.98648500  0.61355200  0.35555700  1
  C  800  1  0.02622200  0.70155900  0.43330000  1
  C  801  1  0.03026700  0.80407100  0.50872800  1
  C  806  1  0.02853100  0.75122400  0.47212200  1
  C  809  1  0.02799800  0.30488700  0.00743156  1
  C  810  1  0.02675600  0.20463300  0.92979200  1
  C  815  1  0.02808300  0.25469100  0.96864200  1
  C  819  1  0.04104100  0.95291800  0.61110800  1
  C  821  1  0.03910600  0.94948000  0.58102400  1
  C  823  1  0.04261400  0.05795160  0.83018700  1
  C  825  1  0.04659400  0.06935360  0.85920100  1
  C  827  1  0.13552600  0.41568600  0.18279500  1
  C  831  1  0.15913100  0.98115700  0.70117100  1
  C  832  1  0.16062100  0.93830400  0.70114600  1
  C  833  1  0.13590000  0.91591700  0.68227500  1
  C  834  1  0.10997400  0.93529200  0.66294800  1
  C  835  1  0.10733500  0.97779100  0.66212900  1
  C  836  1  0.13200700  0.99991200  0.68156600  1
  C  837  1  0.15902200  0.03053460  0.74013900  1
  C  838  1  0.15930400  0.07340760  0.73972400  1
  C  839  1  0.13306500  0.01142560  0.76035300  1
  C  840  1  0.10850700  0.03324760  0.78003100  1
  C  841  1  0.10955400  0.07578260  0.77854000  1
  C  842  1  0.13426100  0.09547160  0.75857500  1
  C  851  1  0.08354800  0.99817800  0.64198100  1
  C  852  1  0.08675000  0.01267660  0.80121600  1
  C  855  1  0.01243000  0.83202000  0.52718200  1
  C  856  1  0.00910200  0.32882400  0.02815860  1
  C  859  1  0.09969400  0.95951900  0.55651000  1
  C  865  1  0.11279200  0.07354960  0.87615700  1
  C  869  1  0.18702400  0.41523000  0.22099200  1
  C  870  1  0.18657900  0.00603856  0.72056300  1
  C  871  1  0.18584100  0.09680360  0.72037700  1
  C  872  1  0.18802400  0.91527700  0.72009500  1
  C  878  1  0.23852600  0.41672800  0.25917300  1
  C  881  1  0.73739900  0.41657400  0.75763500  1
  C  882  1  0.63304400  0.41760100  0.68218400  1
  C  887  1  0.68499600  0.41611500  0.72006100  1
  C  890  1  0.21442000  0.93875200  0.73947600  1
  C  891  1  0.21442300  0.98162500  0.73998300  1
  C  892  1  0.24046900  0.00079956  0.76011000  1
  C  893  1  0.26538100  0.97905400  0.77960800  1
  C  894  1  0.26458300  0.93651900  0.77802500  1
  C  895  1  0.23975800  0.91676300  0.75817200  1
  C  896  1  0.21283400  0.07369760  0.70117800  1
  C  897  1  0.21378600  0.03083360  0.70093200  1
  C  898  1  0.23779400  0.09601860  0.68241400  1
  C  899  1  0.26328900  0.07659160  0.66281700  1
  C  900  1  0.26497500  0.03407260  0.66146500  1
  C  901  1  0.24029500  0.01200860  0.68093600  1
  C  908  1  0.28818700  0.01366060  0.64098100  1
  C  910  1  0.28751700  0.99972800  0.80054900  1
  C  912  1  0.71572500  0.03120760  0.19986700  1
  C  913  1  0.71543500  0.07408460  0.20011100  1
  C  914  1  0.66186000  0.07464360  0.23861900  1
  C  915  1  0.66086600  0.03177860  0.23900300  1
  C  916  1  0.63432200  0.01310860  0.25904400  1
  C  917  1  0.60970900  0.03531960  0.27847800  1
  C  918  1  0.61146400  0.07783060  0.27699500  1
  C  919  1  0.63691700  0.09710860  0.25730200  1
  C  920  1  0.74040500  0.09601260  0.18113300  1
  C  921  1  0.76498200  0.07618460  0.16115700  1
  C  922  1  0.76598500  0.03363960  0.15979900  1
  C  923  1  0.74157100  0.01196060  0.17964200  1
  C  924  1  0.71558300  0.98205700  0.23898500  1
  C  925  1  0.71445600  0.93919300  0.23883400  1
  C  926  1  0.66052200  0.93949200  0.20054200  1
  C  927  1  0.66032200  0.98236200  0.20007900  1
  C  928  1  0.63539200  0.91742800  0.18174300  1
  C  929  1  0.61071800  0.93710200  0.16174700  1
  C  930  1  0.60977500  0.97963100  0.16018500  1
  C  931  1  0.63436400  0.00145556  0.17984600  1
  C  932  1  0.74247400  0.00084556  0.25875500  1
  C  933  1  0.76742000  0.97875200  0.27805800  1
  C  934  1  0.76548000  0.93624100  0.27683100  1
  C  935  1  0.73958600  0.91684800  0.25747300  1
  C  948  1  0.68812900  0.00684556  0.21950200  1
  C  949  1  0.68713500  0.91610500  0.21984500  1
  C  952  1  0.68890300  0.09761360  0.21937400  1
  C  955  1  0.58824600  0.00016556  0.13886300  1
  C  956  1  0.78743200  0.01292060  0.13853100  1
  C  957  1  0.79104200  0.99906000  0.29837600  1
  C  961  1  0.58682000  0.01507760  0.29923000  1
  C  963  1  0.91342400  0.78448400  0.45118100  1
  C  964  1  0.87051100  0.78470500  0.45180700  1
  C  965  1  0.86965000  0.73241800  0.49090700  1
  C  966  1  0.91250600  0.73033300  0.49087500  1
  C  967  1  0.93063600  0.70408300  0.51141200  1
  C  968  1  0.90791300  0.68129800  0.53170100  1
  C  969  1  0.86549600  0.68439400  0.53058800  1
  C  970  1  0.84668600  0.70913500  0.51031600  1
  C  971  1  0.84823600  0.80895000  0.43260500  1
  C  972  1  0.86772900  0.83226100  0.41183700  1
  C  973  1  0.91020700  0.83293200  0.41001500  1
  C  974  1  0.93234600  0.80939400  0.43018200  1
  C  975  1  0.96366000  0.78372000  0.49006700  1
  C  976  1  0.00643700  0.77996800  0.49042200  1
  C  977  1  0.00436700  0.72649300  0.45228100  1
  C  978  1  0.96150600  0.72810600  0.45132200  1
  C  979  1  0.00639800  0.67907400  0.41226000  1
  C  980  1  0.96395300  0.67948800  0.41013900  1
  C  981  1  0.94221300  0.70354700  0.43025300  1
  C  982  1  0.94637900  0.81246700  0.50930900  1
  C  983  1  0.97009200  0.83647300  0.52827100  1
  C  992  1  0.93776900  0.75669000  0.47084400  1
  C  993  1  0.84685300  0.75922400  0.47154900  1
  C  996  1  0.94411900  0.65976300  0.38767600  1
  C  997  1  0.92976600  0.85307700  0.38767400  1
  C  998  1  0.95365700  0.86553000  0.54662000  1
  C  1002  1  0.92721600  0.65963700  0.55349000  1
  C  1004  1  0.96168700  0.22650300  0.95001700  1
  C  1005  1  0.00456100  0.22805600  0.94955300  1
  C  1006  1  0.00515900  0.28075100  0.98847300  1
  C  1007  1  0.96227300  0.28134300  0.98929400  1
  C  1008  1  0.94400400  0.30691800  0.01019660  1
  C  1009  1  0.96665700  0.33037100  0.03014160  1
  C  1010  1  0.00714700  0.18046000  0.90954500  1
  C  1011  1  0.96467200  0.17772300  0.90897700  1
  C  1012  1  0.94272900  0.20055100  0.92966800  1
  C  1013  1  0.91286500  0.22630400  0.98973800  1
  C  1014  1  0.86998000  0.22763600  0.99017700  1
  C  1015  1  0.86914600  0.28043700  0.95136500  1
  C  1016  1  0.91203100  0.28124400  0.95056600  1
  C  1017  1  0.84619400  0.30445200  0.93240300  1
  C  1018  1  0.86499500  0.32843700  0.91166900  1
  C  1019  1  0.90743300  0.33012900  0.90970300  1
  C  1020  1  0.93021300  0.30687200  0.92966600  1
  C  1021  1  0.93191400  0.20029700  0.01000560  1
  C  1022  1  0.91004300  0.17714300  0.03055560  1
  C  1023  1  0.86755700  0.17966600  0.02994660  1
  C  1024  1  0.84786200  0.20394700  0.00981556  1
  C  1033  1  0.93721900  0.25381100  0.96991500  1
  C  1034  1  0.84633300  0.25424300  0.97115700  1
  C  1037  1  0.92652400  0.35093600  0.88744200  1
  C  1038  1  0.94450300  0.15670500  0.88724300  1
  C  1039  1  0.93025500  0.15590400  0.05216160  1
  C  1043  1  0.94741200  0.35112000  0.05240960  1
  C  1045  1  0.41162900  0.73152300  0.99107000  1
  C  1046  1  0.36873400  0.73234800  0.99072600  1
  C  1047  1  0.36878800  0.78519100  0.95191900  1
  C  1048  1  0.41168000  0.78643000  0.95187200  1
  C  1049  1  0.43033600  0.81221600  0.93128300  1
  C  1050  1  0.40806400  0.83521600  0.91086800  1
  C  1051  1  0.36558900  0.83294100  0.91202800  1
  C  1052  1  0.34629000  0.80887100  0.93248400  1
  C  1053  1  0.34619300  0.70815600  0.00982256  1
  C  1054  1  0.36543500  0.68383400  0.03016060  1
  C  1055  1  0.40791300  0.68206400  0.03163260  1
  C  1056  1  0.43025400  0.70565100  0.01161760  1
  C  1057  1  0.46134200  0.73159600  0.95206000  1
  C  1058  1  0.50423400  0.73214300  0.95275600  1
  C  1059  1  0.50391300  0.78488300  0.99161500  1
  C  1060  1  0.46103700  0.78646000  0.99129200  1
  C  1061  1  0.52625800  0.80831200  0.01128360  1
  C  1062  1  0.50679900  0.83259400  0.03153260  1
  C  1063  1  0.46433600  0.83544000  0.03220360  1
  C  1064  1  0.44223600  0.81249700  0.01165960  1
  C  1065  1  0.44288900  0.70597300  0.93127900  1
  C  1066  1  0.46542100  0.68239800  0.91136600  1
  C  1067  1  0.50788300  0.68382200  0.91323100  1
  C  1068  1  0.52694100  0.70788200  0.93380300  1
  C  1081  1  0.43642000  0.75906400  0.97155400  1
  C  1082  1  0.52730600  0.75818800  0.97249800  1
  C  1085  1  0.34552200  0.75870800  0.97126800  1
  C  1088  1  0.44433000  0.85666300  0.05391360  1
  C  1089  1  0.42752300  0.66076100  0.05343260  1
  C  1090  1  0.44610300  0.66138500  0.88930300  1
  C  1094  1  0.42784000  0.85613800  0.88891600  1
  C  1096  1  0.46208200  0.28567300  0.48978700  1
  C  1097  1  0.50496800  0.28445200  0.49009300  1
  C  1098  1  0.50566000  0.23171200  0.45119400  1
  C  1099  1  0.46277700  0.23090500  0.45047100  1
  C  1100  1  0.44451700  0.20515500  0.42967600  1
  C  1101  1  0.46718800  0.18171700  0.40973700  1
  C  1102  1  0.50963500  0.18348200  0.41160200  1
  C  1103  1  0.52852100  0.20763600  0.43221000  1
  C  1104  1  0.52712800  0.30815900  0.50971100  1
  C  1105  1  0.50748700  0.33229200  0.52997200  1
  C  1106  1  0.46499500  0.33457000  0.53076500  1
  C  1107  1  0.44307900  0.31147600  0.51020900  1
  C  1108  1  0.41310600  0.28574200  0.45015700  1
  C  1109  1  0.37021100  0.28459100  0.45008000  1
  C  1110  1  0.36980300  0.23171200  0.48881300  1
  C  1111  1  0.41269500  0.23070800  0.48929600  1
  C  1112  1  0.34701200  0.20747300  0.50771100  1
  C  1113  1  0.36600600  0.18279000  0.52792100  1
  C  1114  1  0.40846500  0.18078400  0.52954700  1
  C  1115  1  0.43107300  0.20457500  0.50980300  1
  C  1116  1  0.43189200  0.31164000  0.42968900  1
  C  1117  1  0.40974600  0.33477900  0.40927100  1
  C  1118  1  0.36726900  0.33239500  0.41023700  1
  C  1119  1  0.34784000  0.30827400  0.43058400  1
  C  1132  1  0.43767100  0.25829500  0.46991200  1
  C  1133  1  0.34677000  0.25817700  0.46934400  1
  C  1136  1  0.52854200  0.25795900  0.47093200  1
  C  1139  1  0.42766800  0.15828500  0.55092600  1
  C  1140  1  0.44484600  0.35551000  0.55254200  1
  C  1141  1  0.42960200  0.35592100  0.38745400  1
  C  1145  1  0.44790400  0.16062900  0.38764600  1
  C  1147  1  0.98560000  0.40833500  0.11295500  1
  C  1148  1  0.99098700  0.39645900  0.08423360  1
  C  1152  1  0.33062500  0.95428300  0.83009100  1
  C  1154  1  0.38906300  0.91181500  0.82789000  1
  C  1155  1  0.38417800  0.90038300  0.85674800  1
  C  1157  1  0.32529900  0.94262200  0.85894300  1
  C  1160  1  0.25804700  0.93923500  0.87389600  1
  C  1166  1  0.54420700  0.06128060  0.32863500  1
  C  1168  1  0.48599800  0.10405200  0.32681500  1
  C  1169  1  0.49161700  0.11584100  0.35553600  1
  C  1171  1  0.55039100  0.07337760  0.35730700  1
  C  1174  1  0.61791400  0.07648960  0.37163500  1
  C  1180  1  0.38623900  0.11212400  0.58478200  1
  C  1182  1  0.32264600  0.07726860  0.58685100  1
  C  1183  1  0.33325300  0.05928660  0.61307200  1
  C  1185  1  0.39738100  0.09391560  0.61121100  1
  C  1188  1  0.46606400  0.12178300  0.61790500  1
  C  1194  1  0.88789800  0.89942800  0.35488000  1
  C  1196  1  0.82856800  0.94097200  0.35576000  1
  C  1197  1  0.83537800  0.95350400  0.32736400  1
  C  1199  1  0.89556300  0.91277200  0.32657800  1
  C  1202  1  0.96729500  0.90832800  0.31932100  1
  C  1209  1  0.99393200  0.89828900  0.61485600  1
  C  1210  1  0.99098700  0.89545200  0.58481600  1
  C  1213  1  0.83166200  0.05786360  0.10935100  1
  C  1215  1  0.88984700  0.10046900  0.11278300  1
  C  1216  1  0.88659300  0.11127600  0.08369060  1
  C  1218  1  0.82795500  0.06890060  0.08025060  1
  C  1221  1  0.76186400  0.07283360  0.06304060  1
  C  1227  1  0.38948300  0.41204800  0.32699000  1
  C  1228  1  0.38574900  0.40071000  0.35595500  1
  C  1233  1  0.88352100  0.39736200  0.85559600  1
  C  1235  1  0.89072300  0.41094300  0.82737900  1
  C  1237  1  0.95817700  0.42426900  0.81534100  1
  C  1241  1  0.48317900  0.41209400  0.61333300  1
  C  1242  1  0.48786800  0.40065800  0.58445700  1
  C  1246  1  0.98447600  0.10062000  0.82674700  1
  C  1247  1  0.98801700  0.11179800  0.85575500  1
  C  1251  1  0.54366000  0.95507500  0.11001100  1
  C  1253  1  0.48556900  0.91248200  0.11410300  1
  C  1254  1  0.48838100  0.90137400  0.08503660  1
  C  1256  1  0.54696500  0.94373600  0.08095360  1
  C  1259  1  0.61273000  0.93949200  0.06319360  1
  N  3  1  0.06199600  0.06097600  0.03546200  1
  N  10  1  0.01123500  0.01279100  0.03933100  1
  N  16  1  0.05884100  0.10414800  0.23316100  1
  N  30  1  0.01837200  0.17417500  0.28430000  1
  N  56  1  0.36292100  0.01596800  0.23006700  1
  N  61  1  0.31170300  0.06362100  0.23484500  1
  N  64  1  0.86465000  0.01491400  0.72983900  1
  N  66  1  0.81260500  0.06174500  0.73308700  1
  N  68  1  0.50912200  0.01634900  0.53960900  1
  N  73  1  0.55992600  0.06448600  0.53550200  1
  N  110  1  0.86153800  0.15247400  0.53972200  1
  N  116  1  0.81018500  0.10505600  0.53529700  1
  N  119  1  0.50542700  0.15082500  0.73100500  1
  N  124  1  0.55801900  0.10448400  0.73320600  1
  N  128  1  0.36693000  0.15040400  0.04034300  1
  N  133  1  0.31459500  0.10381200  0.03742400  1
  N  136  1  0.00689300  0.15130500  0.22949600  1
  N  144  1  0.85120000  0.17577700  0.48482900  1
  N  145  1  0.52202500  0.17689900  0.78445800  1
  N  148  1  0.35213000  0.17586200  0.98647700  1
  N  186  1  0.02268500  0.99008300  0.98443200  1
  N  188  1  0.01401900  0.49850200  0.48374600  1
  N  190  1  0.05916000  0.56175400  0.53727100  1
  N  192  1  0.01878200  0.67192400  0.78540900  1
  N  194  1  0.06187200  0.60269700  0.73483500  1
  N  225  1  0.01772000  0.50437300  0.54131600  1
  N  231  1  0.01096600  0.65064900  0.72989000  1
  N  518  1  0.96203800  0.95212500  0.98604600  1
  N  519  1  0.91253300  0.21258300  0.48702800  1
  N  521  1  0.36307800  0.51591000  0.73054200  1
  N  524  1  0.35266100  0.49415800  0.78571500  1
  N  532  1  0.31215300  0.56380200  0.73433300  1
  N  533  1  0.41371300  0.45686500  0.78397600  1
  N  535  1  0.51152100  0.65368500  0.22935100  1
  N  538  1  0.52345100  0.67624400  0.28422300  1
  N  546  1  0.56216800  0.60553900  0.23284900  1
  N  547  1  0.46259300  0.71386700  0.28298300  1
  N  549  1  0.34939200  0.67950400  0.48833800  1
  N  552  1  0.37063100  0.64482400  0.53790200  1
  N  560  1  0.41185200  0.71131700  0.48404300  1
  N  561  1  0.31424100  0.60376900  0.53723900  1
  N  563  1  0.85493700  0.49194900  0.28288900  1
  N  566  1  0.86923300  0.51634200  0.22884500  1
  N  574  1  0.91498600  0.45413000  0.28320800  1
  N  575  1  0.81656500  0.56280200  0.23148100  1
  N  576  1  0.46116700  0.21417400  0.78510400  1
  N  580  1  0.96624000  0.44541400  0.48746400  1
  N  582  1  0.86320000  0.65069700  0.03874600  1
  N  585  1  0.85594300  0.67124100  0.98305800  1
  N  593  1  0.81223600  0.60277800  0.03386100  1
  N  594  1  0.91663600  0.70882100  0.98608000  1
  N  597  1  0.35469800  0.99437600  0.28547900  1
  N  599  1  0.41562000  0.95703500  0.28268400  1
  N  600  1  0.41287900  0.21334100  0.98671900  1
  N  602  1  0.85082200  0.98987200  0.78393100  1
  N  608  1  0.91144800  0.95223100  0.78325100  1
  N  611  1  0.51916100  0.99456400  0.48437800  1
  N  613  1  0.45854100  0.95666000  0.48643200  1
  N  617  1  0.95813400  0.70958000  0.78240700  1
  N  618  1  0.95817100  0.21266600  0.28297100  1
  N  620  1  0.51235400  0.51646900  0.03973200  1
  N  623  1  0.51879000  0.49536600  0.98409900  1
  N  631  1  0.56329100  0.56423400  0.03433500  1
  N  632  1  0.45810600  0.45789500  0.98773100  1
  N  635  1  0.06199600  0.48394100  0.12093600  1
  N  642  1  0.01123500  0.43575600  0.12480500  1
  N  648  1  0.05884100  0.52711300  0.31863500  1
  N  662  1  0.01837200  0.59714000  0.36977400  1
  N  688  1  0.36292100  0.43893300  0.31554100  1
  N  693  1  0.31170300  0.48658600  0.32031900  1
  N  696  1  0.86465000  0.43787900  0.81531300  1
  N  698  1  0.81260500  0.48471000  0.81856100  1
  N  700  1  0.50912200  0.43931400  0.62508300  1
  N  705  1  0.55992600  0.48745100  0.62097600  1
  N  742  1  0.86153800  0.57543900  0.62519600  1
  N  748  1  0.81018500  0.52802100  0.62077100  1
  N  751  1  0.50542700  0.57379000  0.81647900  1
  N  756  1  0.55801900  0.52744900  0.81868000  1
  N  760  1  0.36693000  0.57336900  0.12581700  1
  N  765  1  0.31459500  0.52677700  0.12289800  1
  N  768  1  0.00689300  0.57427000  0.31497000  1
  N  776  1  0.85120000  0.59874200  0.57030300  1
  N  777  1  0.52202500  0.59986400  0.86993200  1
  N  780  1  0.35213000  0.59882700  0.07195060  1
  N  818  1  0.02268500  0.41304800  0.06990560  1
  N  820  1  0.01401900  0.92146700  0.56922000  1
  N  822  1  0.05916000  0.98471900  0.62274500  1
  N  824  1  0.01878200  0.09488860  0.87088300  1
  N  826  1  0.06187200  0.02566160  0.82030900  1
  N  857  1  0.01772000  0.92733800  0.62679000  1
  N  863  1  0.01096600  0.07361360  0.81536400  1
  N  1150  1  0.96203800  0.37509000  0.07151960  1
  N  1151  1  0.91253300  0.63554800  0.57250200  1
  N  1153  1  0.36307800  0.93887500  0.81601600  1
  N  1156  1  0.35266100  0.91712300  0.87118900  1
  N  1164  1  0.31215300  0.98676700  0.81980700  1
  N  1165  1  0.41371300  0.87983000  0.86945000  1
  N  1167  1  0.51152100  0.07664960  0.31482500  1
  N  1170  1  0.52345100  0.09920860  0.36969700  1
  N  1178  1  0.56216800  0.02850360  0.31832300  1
  N  1179  1  0.46259300  0.13683200  0.36845700  1
  N  1181  1  0.34939200  0.10246900  0.57381200  1
  N  1184  1  0.37063100  0.06778860  0.62337600  1
  N  1192  1  0.41185200  0.13428200  0.56951700  1
  N  1193  1  0.31424100  0.02673360  0.62271300  1
  N  1195  1  0.85493700  0.91491400  0.36836300  1
  N  1198  1  0.86923300  0.93930700  0.31431900  1
  N  1206  1  0.91498600  0.87709500  0.36868200  1
  N  1207  1  0.81656500  0.98576700  0.31695500  1
  N  1208  1  0.46116700  0.63713900  0.87057800  1
  N  1212  1  0.96624000  0.86837900  0.57293800  1
  N  1214  1  0.86320000  0.07366160  0.12422000  1
  N  1217  1  0.85594300  0.09420560  0.06853160  1
  N  1225  1  0.81223600  0.02574260  0.11933500  1
  N  1226  1  0.91663600  0.13178600  0.07155360  1
  N  1229  1  0.35469800  0.41734100  0.37095300  1
  N  1231  1  0.41562000  0.38000000  0.36815800  1
  N  1232  1  0.41287900  0.63630600  0.07219260  1
  N  1234  1  0.85082200  0.41283700  0.86940500  1
  N  1240  1  0.91144800  0.37519600  0.86872500  1
  N  1243  1  0.51916100  0.41752900  0.56985200  1
  N  1245  1  0.45854100  0.37962500  0.57190600  1
  N  1249  1  0.95813400  0.13254500  0.86788100  1
  N  1250  1  0.95817100  0.63563100  0.36844500  1
  N  1252  1  0.51235400  0.93943400  0.12520600  1
  N  1255  1  0.51879000  0.91833100  0.06957260  1
  N  1263  1  0.56329100  0.98719900  0.11980900  1
  N  1264  1  0.45810600  0.88086000  0.07320460  1
  O  11  1  0.07885700  0.03308800  0.97990400  1
  O  58  1  0.29814800  0.03665500  0.29100900  1
  O  70  1  0.57529800  0.03754200  0.47951700  1
  O  112  1  0.79442600  0.13366600  0.47975200  1
  O  162  1  0.44605800  0.18989300  0.72904800  1
  O  164  1  0.42609700  0.18967500  0.04311900  1
  O  166  1  0.94811300  0.19100300  0.22580200  1
  O  226  1  0.06018400  0.55182600  0.47792700  1
  O  232  1  0.07497200  0.62921600  0.79111700  1
  O  527  1  0.29623200  0.53682000  0.79029200  1
  O  541  1  0.57965700  0.63321000  0.28845600  1
  O  555  1  0.43298800  0.67352200  0.54081800  1
  O  569  1  0.92689800  0.47675600  0.22426100  1
  O  588  1  0.79973700  0.62858800  0.97734000  1
  O  604  1  0.92360200  0.97540000  0.72658400  1
  O  626  1  0.57493200  0.53794100  0.97775700  1
  O  643  1  0.07885700  0.45605300  0.06537760  1
  O  690  1  0.29814800  0.45962000  0.37648300  1
  O  702  1  0.57529800  0.46050700  0.56499100  1
  O  744  1  0.79442600  0.55663100  0.56522600  1
  O  794  1  0.44605800  0.61285800  0.81452200  1
  O  796  1  0.42609700  0.61264000  0.12859300  1
  O  798  1  0.94811300  0.61396800  0.31127600  1
  O  858  1  0.06018400  0.97479100  0.56340100  1
  O  864  1  0.07497200  0.05218060  0.87659100  1
  O  1159  1  0.29623200  0.95978500  0.87576600  1
  O  1173  1  0.57965700  0.05617460  0.37393000  1
  O  1187  1  0.43298800  0.09648660  0.62629200  1
  O  1201  1  0.92689800  0.89972100  0.30973500  1
  O  1220  1  0.79973700  0.05155260  0.06281360  1
  O  1236  1  0.92360200  0.39836500  0.81205800  1
  O  1258  1  0.57493200  0.96090600  0.06323060  1
