# generated using pymatgen
data_SiH24(C10N)4
_symmetry_space_group_name_H-M   'P 1'
_cell_length_a   54.75190000
_cell_length_b   54.80370000
_cell_length_c   54.80370000
_cell_angle_alpha   89.97910000
_cell_angle_beta   90.03330000
_cell_angle_gamma   89.97900000
_symmetry_Int_Tables_number   1
_chemical_formula_structural   SiH24(C10N)4
_chemical_formula_sum   'Si24 H576 C960 N96'
_cell_volume   164444.29974376
_cell_formula_units_Z   24
loop_
 _symmetry_equiv_pos_site_id
 _symmetry_equiv_pos_as_xyz
  1  'x, y, z'
loop_
 _atom_site_type_symbol
 _atom_site_label
 _atom_site_symmetry_multiplicity
 _atom_site_fract_x
 _atom_site_fract_y
 _atom_site_fract_z
 _atom_site_occupancy
  Si  7  1  0.99689200  0.37325600  0.13939500  1
  Si  48  1  0.99706400  0.62290500  0.14033500  1
  Si  89  1  0.99780900  0.37320500  0.76419800  1
  Si  130  1  0.99859300  0.62354900  0.76447700  1
  Si  171  1  0.18492900  0.99832600  0.32675300  1
  Si  212  1  0.18616600  0.99780200  0.57727600  1
  Si  253  1  0.81006800  0.99807700  0.32735500  1
  Si  294  1  0.81032300  0.99762500  0.57705000  1
  Si  335  1  0.37240700  0.18546300  0.95189900  1
  Si  376  1  0.62309700  0.18619900  0.95111600  1
  Si  417  1  0.37328500  0.81042400  0.95286800  1
  Si  458  1  0.62309900  0.81056600  0.95265400  1
  Si  499  1  0.37223600  0.99720400  0.76464700  1
  Si  540  1  0.62281300  0.99807700  0.76435500  1
  Si  581  1  0.37256900  0.99880000  0.14003900  1
  Si  622  1  0.62243000  0.99874000  0.13911200  1
  Si  663  1  0.99770700  0.18558100  0.57712900  1
  Si  704  1  0.99729500  0.18581700  0.32757600  1
  Si  745  1  0.99866600  0.80964100  0.57726200  1
  Si  786  1  0.99784700  0.81057000  0.32692700  1
  Si  827  1  0.18505600  0.37279800  0.95289100  1
  Si  868  1  0.18531500  0.62253900  0.95296300  1
  Si  909  1  0.80955200  0.37266800  0.95100300  1
  Si  950  1  0.81044600  0.62313600  0.95198600  1
  H  26  1  0.94775000  0.39496600  0.07090400  1
  H  27  1  0.97965000  0.40134700  0.09974200  1
  H  28  1  0.93155300  0.32699500  0.10332300  1
  H  29  1  0.96368700  0.33284700  0.13192600  1
  H  30  1  0.01624800  0.33065400  0.11769800  1
  H  31  1  0.04987800  0.32404700  0.09096200  1
  H  32  1  0.06582000  0.39938100  0.09215300  1
  H  33  1  0.03220200  0.40632500  0.11849000  1
  H  34  1  0.03211900  0.39724400  0.16840100  1
  H  35  1  0.03292800  0.43624900  0.18710600  1
  H  36  1  0.96131400  0.44995000  0.16192500  1
  H  37  1  0.95988800  0.41068800  0.14395100  1
  H  38  1  0.95873200  0.36004600  0.17166300  1
  H  39  1  0.03473100  0.34698200  0.16429300  1
  H  40  1  0.03373200  0.32189800  0.19939300  1
  H  41  1  0.95773400  0.33373600  0.20613200  1
  H  67  1  0.06573400  0.59636900  0.09292700  1
  H  68  1  0.03310400  0.58987600  0.12043200  1
  H  69  1  0.04744100  0.67104100  0.08815200  1
  H  70  1  0.01468200  0.66487800  0.11606000  1
  H  71  1  0.96042400  0.66118200  0.13705600  1
  H  72  1  0.92763800  0.66713600  0.10920800  1
  H  73  1  0.94868500  0.60384900  0.07069300  1
  H  74  1  0.98110400  0.59720300  0.09878900  1
  H  75  1  0.96068200  0.58461400  0.14297000  1
  H  76  1  0.96206600  0.54532200  0.16080500  1
  H  77  1  0.03259700  0.55979500  0.18842900  1
  H  78  1  0.03177400  0.59905100  0.17006800  1
  H  79  1  0.03420000  0.65354600  0.16182800  1
  H  80  1  0.96119200  0.63178100  0.17610100  1
  H  81  1  0.96101600  0.65656200  0.21175600  1
  H  82  1  0.03371100  0.67810300  0.19747000  1
  H  108  1  0.04797500  0.39581200  0.83160000  1
  H  109  1  0.01606500  0.40207600  0.80277900  1
  H  110  1  0.06195600  0.32624900  0.80164800  1
  H  111  1  0.02979200  0.33205700  0.77299700  1
  H  112  1  0.97769800  0.33061400  0.78522400  1
  H  113  1  0.94437300  0.32430000  0.81242500  1
  H  114  1  0.93024600  0.40001900  0.81295600  1
  H  115  1  0.96365900  0.40667800  0.78624200  1
  H  116  1  0.96218600  0.39817100  0.73632400  1
  H  117  1  0.96158800  0.43734000  0.71803500  1
  H  118  1  0.03424000  0.44925400  0.74101200  1
  H  119  1  0.03550500  0.40968800  0.75831000  1
  H  120  1  0.03583200  0.35675700  0.73306900  1
  H  121  1  0.95887600  0.35012100  0.73823300  1
  H  122  1  0.95864100  0.32600200  0.70251400  1
  H  123  1  0.03561700  0.33065300  0.69858800  1
  H  149  1  0.92937400  0.59741500  0.81127900  1
  H  150  1  0.96211100  0.59081600  0.78400700  1
  H  151  1  0.94790600  0.67198300  0.81620200  1
  H  152  1  0.98085900  0.66568300  0.78854100  1
  H  153  1  0.03594100  0.66111800  0.76757600  1
  H  154  1  0.06867400  0.66666667  0.79553500  1
  H  155  1  0.04598400  0.60442100  0.83481000  1
  H  156  1  0.01358100  0.59815600  0.80661700  1
  H  157  1  0.03465100  0.58485500  0.76268500  1
  H  158  1  0.03326400  0.54552100  0.74492400  1
  H  159  1  0.96322900  0.56044700  0.71628900  1
  H  160  1  0.96411700  0.59982400  0.73441000  1
  H  161  1  0.96291200  0.65585600  0.74272900  1
  H  162  1  0.03480100  0.63054700  0.72867900  1
  H  163  1  0.03582900  0.65424500  0.69236900  1
  H  164  1  0.96442600  0.67973800  0.70671800  1
  H  190  1  0.11769300  0.94777500  0.34889200  1
  H  191  1  0.14680500  0.97925300  0.35572900  1
  H  192  1  0.14636400  0.93606300  0.27837900  1
  H  193  1  0.17543800  0.96771900  0.28484400  1
  H  194  1  0.16453500  0.01998500  0.28448600  1
  H  195  1  0.13816300  0.05412200  0.27889000  1
  H  196  1  0.13630300  0.06525200  0.35508500  1
  H  197  1  0.16233800  0.03118300  0.36097900  1
  H  198  1  0.21272700  0.03370000  0.35203600  1
  H  199  1  0.23113100  0.03393000  0.39115000  1
  H  200  1  0.20849100  0.96114000  0.40237800  1
  H  201  1  0.19115800  0.96021800  0.36278700  1
  H  202  1  0.21571600  0.96042400  0.30941900  1
  H  203  1  0.21119500  0.03749800  0.30453200  1
  H  204  1  0.24717400  0.03800300  0.28076600  1
  H  205  1  0.25055100  0.96098600  0.28374500  1
  H  231  1  0.14063900  0.06761200  0.55031700  1
  H  232  1  0.16718700  0.03420500  0.54408000  1
  H  233  1  0.13518100  0.04988100  0.62505100  1
  H  234  1  0.16212600  0.01626300  0.61911900  1
  H  235  1  0.18243700  0.96105700  0.61537100  1
  H  236  1  0.15367500  0.92919000  0.62159100  1
  H  237  1  0.11503300  0.95150200  0.55874700  1
  H  238  1  0.14392200  0.98307800  0.55192600  1
  H  239  1  0.18757600  0.96132400  0.53901300  1
  H  240  1  0.20505000  0.96222100  0.49952800  1
  H  241  1  0.23448700  0.03200900  0.51365100  1
  H  242  1  0.21669500  0.03158700  0.55318300  1
  H  243  1  0.20814300  0.03358300  0.60923800  1
  H  244  1  0.22164500  0.96134500  0.58484500  1
  H  245  1  0.25790500  0.96024500  0.60868500  1
  H  246  1  0.24401600  0.03196300  0.63333800  1
  H  272  1  0.87908700  0.04639300  0.34895100  1
  H  273  1  0.84951900  0.01530800  0.35568400  1
  H  274  1  0.84793700  0.06161900  0.28012100  1
  H  275  1  0.81851400  0.03030100  0.28638000  1
  H  276  1  0.83127900  0.97719300  0.28515000  1
  H  277  1  0.85754900  0.94303300  0.27943700  1
  H  278  1  0.85731100  0.92998000  0.35535500  1
  H  279  1  0.83123000  0.96393200  0.36134200  1
  H  280  1  0.78072800  0.96337200  0.35159300  1
  H  281  1  0.76223400  0.96292700  0.39070900  1
  H  282  1  0.78788200  0.03441800  0.40375000  1
  H  283  1  0.80560400  0.03548900  0.36434900  1
  H  284  1  0.77841700  0.03646700  0.31337500  1
  H  285  1  0.78484900  0.96026800  0.30141700  1
  H  286  1  0.74989500  0.96144300  0.27605200  1
  H  287  1  0.74398800  0.03757800  0.28694400  1
  H  313  1  0.85640200  0.92833700  0.54966900  1
  H  314  1  0.82971100  0.96173600  0.54353800  1
  H  315  1  0.86183100  0.94574100  0.62448700  1
  H  316  1  0.83479700  0.97930300  0.61867000  1
  H  317  1  0.81407600  0.03380400  0.61569200  1
  H  318  1  0.84237900  0.06608600  0.62196700  1
  H  319  1  0.88028800  0.04550700  0.55816300  1
  H  320  1  0.85180700  0.01357300  0.55126000  1
  H  321  1  0.80769700  0.03442400  0.53912900  1
  H  322  1  0.78973900  0.03354500  0.49986200  1
  H  323  1  0.76166100  0.96316500  0.51380400  1
  H  324  1  0.78014400  0.96347900  0.55301700  1
  H  325  1  0.78879500  0.96027300  0.60740600  1
  H  326  1  0.77474400  0.03354900  0.58655100  1
  H  327  1  0.73918300  0.03361200  0.61150200  1
  H  328  1  0.75326400  0.96066400  0.63216700  1
  H  354  1  0.39488500  0.11823400  0.90150800  1
  H  355  1  0.40121700  0.14688100  0.93351000  1
  H  356  1  0.32533800  0.14847700  0.88763100  1
  H  357  1  0.33120900  0.17694700  0.91988800  1
  H  358  1  0.32976100  0.16446000  0.97196700  1
  H  359  1  0.32338800  0.13742100  0.00540600  1
  H  360  1  0.39918000  0.13673100  0.01952200  1
  H  361  1  0.40589900  0.16328200  0.98599700  1
  H  362  1  0.39743900  0.21314900  0.98758100  1
  H  363  1  0.43657000  0.23154900  0.98817400  1
  H  364  1  0.44846800  0.20887200  0.91551400  1
  H  365  1  0.40891700  0.19147100  0.91425200  1
  H  366  1  0.35586300  0.21682900  0.91408200  1
  H  367  1  0.34957700  0.21134300  0.99098000  1
  H  368  1  0.32577300  0.24728700  0.99148400  1
  H  369  1  0.33001900  0.25153800  0.91457300  1
  H  395  1  0.59709000  0.13949300  0.02040300  1
  H  396  1  0.59041600  0.16674500  0.98767200  1
  H  397  1  0.67169800  0.13452100  0.00177000  1
  H  398  1  0.66533700  0.16221500  0.96884800  1
  H  399  1  0.66068200  0.18314500  0.91380300  1
  H  400  1  0.66639000  0.15508600  0.88123600  1
  H  401  1  0.60427200  0.11562600  0.90407500  1
  H  402  1  0.59785900  0.14391500  0.93631600  1
  H  403  1  0.58429700  0.18771700  0.91515100  1
  H  404  1  0.54484100  0.20530700  0.91653800  1
  H  405  1  0.55978000  0.23425500  0.98635500  1
  H  406  1  0.59930200  0.21633200  0.98544900  1
  H  407  1  0.65546800  0.20804000  0.98663600  1
  H  408  1  0.62989200  0.22198100  0.91485600  1
  H  409  1  0.65344200  0.25838300  0.91373700  1
  H  410  1  0.67922500  0.24411300  0.98501900  1
  H  436  1  0.39525700  0.87906200  0.00154400  1
  H  437  1  0.40149100  0.85009400  0.96979500  1
  H  438  1  0.32723700  0.84683600  0.01811600  1
  H  439  1  0.33294300  0.81810100  0.98612800  1
  H  440  1  0.33072100  0.83231800  0.93352200  1
  H  441  1  0.32423000  0.85924800  0.90003000  1
  H  442  1  0.39961200  0.85763900  0.88403700  1
  H  443  1  0.40644100  0.83110500  0.91751600  1
  H  444  1  0.39721800  0.78118500  0.91783700  1
  H  445  1  0.43634200  0.76260600  0.91702900  1
  H  446  1  0.45014400  0.78813300  0.98840900  1
  H  447  1  0.41078800  0.80599100  0.98983200  1
  H  448  1  0.36019100  0.77826400  0.99112600  1
  H  449  1  0.34656100  0.78564700  0.91529000  1
  H  450  1  0.32117400  0.75076600  0.91657100  1
  H  451  1  0.33362400  0.74399600  0.99240900  1
  H  477  1  0.59635800  0.85807900  0.88411300  1
  H  478  1  0.58994500  0.83055200  0.91673300  1
  H  479  1  0.67113100  0.86284000  0.90225100  1
  H  480  1  0.66503400  0.83495600  0.93503100  1
  H  481  1  0.66135500  0.81378100  0.98935200  1
  H  482  1  0.66712900  0.84147100  0.02225100  1
  H  483  1  0.60372400  0.87994200  0.00118800  1
  H  484  1  0.59725500  0.85200600  0.96866200  1
  H  485  1  0.58483000  0.80769500  0.98905100  1
  H  486  1  0.54557300  0.78972600  0.98769400  1
  H  487  1  0.56004200  0.76240000  0.91713800  1
  H  488  1  0.59924600  0.78091800  0.91792300  1
  H  489  1  0.65374700  0.78922700  0.91544300  1
  H  490  1  0.63214300  0.77469200  0.98838500  1
  H  491  1  0.65694400  0.73902000  0.98840400  1
  H  492  1  0.67832600  0.75355400  0.91577200  1
  H  518  1  0.39144600  0.94974000  0.83487200  1
  H  519  1  0.39767900  0.98217000  0.80674800  1
  H  520  1  0.32916500  0.92706100  0.79552800  1
  H  521  1  0.33469600  0.95981900  0.76763400  1
  H  522  1  0.33002700  0.01475600  0.78877100  1
  H  523  1  0.32363100  0.04766500  0.81643900  1
  H  524  1  0.39820700  0.06641500  0.81149800  1
  H  525  1  0.40491200  0.03370300  0.78425000  1
  H  526  1  0.39594000  0.03177100  0.73468900  1
  H  527  1  0.43537800  0.03278100  0.71661200  1
  H  528  1  0.45038200  0.96272800  0.74500600  1
  H  529  1  0.41100800  0.96123800  0.76274200  1
  H  530  1  0.36525300  0.96111200  0.72873500  1
  H  531  1  0.33989300  0.03288400  0.74299300  1
  H  532  1  0.31605400  0.03149600  0.70693600  1
  H  533  1  0.34159100  0.96020800  0.69237600  1
  H  559  1  0.59594400  0.06530100  0.81344700  1
  H  560  1  0.58929600  0.03192500  0.78670700  1
  H  561  1  0.67181300  0.05164000  0.81238800  1
  H  562  1  0.66550400  0.01835600  0.78515300  1
  H  563  1  0.66411400  0.96644000  0.77357200  1
  H  564  1  0.66983200  0.93426400  0.80220100  1
  H  565  1  0.59973300  0.94759600  0.83132700  1
  H  566  1  0.59359200  0.97955300  0.80256600  1
  H  567  1  0.58643900  0.96038300  0.75798500  1
  H  568  1  0.54682400  0.96172300  0.74071400  1
  H  569  1  0.55855700  0.03458000  0.71851100  1
  H  570  1  0.59777800  0.03388300  0.73678200  1
  H  571  1  0.64574500  0.03689400  0.73818300  1
  H  572  1  0.63949100  0.95993900  0.73351000  1
  H  573  1  0.66554300  0.96006500  0.69898000  1
  H  574  1  0.66982200  0.03701300  0.70241200  1
  H  600  1  0.39173800  0.04710000  0.07041900  1
  H  601  1  0.39833000  0.01470000  0.09850900  1
  H  602  1  0.32836800  0.06818000  0.10886200  1
  H  603  1  0.33426500  0.03541300  0.13670100  1
  H  604  1  0.33060500  0.98113700  0.11568800  1
  H  605  1  0.32451900  0.94835800  0.08780400  1
  H  606  1  0.39926400  0.93014600  0.09278300  1
  H  607  1  0.40568400  0.96279800  0.12024200  1
  H  608  1  0.39639400  0.96415700  0.16984300  1
  H  609  1  0.43569500  0.96330900  0.18819900  1
  H  610  1  0.45024600  0.03374200  0.16051900  1
  H  611  1  0.41090300  0.03514100  0.14268300  1
  H  612  1  0.36367700  0.03467400  0.17575500  1
  H  613  1  0.34187300  0.96172200  0.16152900  1
  H  614  1  0.31733000  0.96223900  0.19720200  1
  H  615  1  0.33891300  0.03487400  0.21143100  1
  H  641  1  0.59619000  0.92998400  0.09174300  1
  H  642  1  0.58928000  0.96356800  0.11810200  1
  H  643  1  0.67162700  0.94577100  0.09064700  1
  H  644  1  0.66505400  0.97936500  0.11740400  1
  H  645  1  0.66297100  0.03178800  0.13165300  1
  H  646  1  0.66885700  0.06398000  0.10316100  1
  H  647  1  0.60067300  0.04815600  0.07086100  1
  H  648  1  0.59426900  0.01618300  0.09957400  1
  H  649  1  0.58503100  0.03575700  0.14379300  1
  H  650  1  0.54573000  0.03434800  0.16174600  1
  H  651  1  0.55932800  0.96271000  0.18673400  1
  H  652  1  0.59838100  0.96350600  0.16802600  1
  H  653  1  0.64865300  0.96084800  0.16394200  1
  H  654  1  0.63574200  0.03678800  0.17144700  1
  H  655  1  0.66209400  0.03767700  0.20591800  1
  H  656  1  0.67378700  0.96174000  0.19903400  1
  H  682  1  0.94992400  0.11564000  0.55804100  1
  H  683  1  0.98178400  0.14421700  0.55118200  1
  H  684  1  0.92927600  0.15328600  0.62196700  1
  H  685  1  0.96148900  0.18168700  0.61573600  1
  H  686  1  0.01601400  0.16111900  0.61874600  1
  H  687  1  0.04965400  0.13417700  0.62459800  1
  H  688  1  0.06714000  0.13963300  0.54980400  1
  H  689  1  0.03366100  0.16623700  0.54363600  1
  H  690  1  0.03195500  0.21573200  0.55320900  1
  H  691  1  0.03233700  0.23428200  0.51405300  1
  H  692  1  0.96185100  0.20639700  0.49995500  1
  H  693  1  0.96090300  0.18835800  0.53918400  1
  H  694  1  0.96170400  0.22104600  0.58677600  1
  H  695  1  0.03513200  0.20710500  0.60742000  1
  H  696  1  0.03479400  0.24264100  0.63213200  1
  H  697  1  0.96169100  0.25660800  0.61169000  1
  H  723  1  0.06544700  0.13840900  0.35524800  1
  H  724  1  0.03145500  0.16442400  0.36141900  1
  H  725  1  0.05233900  0.13864700  0.27933500  1
  H  726  1  0.01814500  0.16485000  0.28523200  1
  H  727  1  0.96521300  0.17721700  0.28653200  1
  H  728  1  0.93395200  0.14773700  0.28020700  1
  H  729  1  0.94883000  0.11696400  0.34926800  1
  H  730  1  0.97988100  0.14656600  0.35604300  1
  H  731  1  0.95988600  0.19051500  0.36455900  1
  H  732  1  0.96104200  0.20827100  0.40393100  1
  H  733  1  0.03275700  0.23343100  0.39093100  1
  H  734  1  0.03223200  0.21490100  0.35183900  1
  H  735  1  0.03511100  0.21115800  0.30179500  1
  H  736  1  0.95879000  0.21734000  0.31351900  1
  H  737  1  0.95764800  0.25175200  0.28710600  1
  H  738  1  0.03390200  0.24608300  0.27644500  1
  H  764  1  0.04486500  0.88075500  0.55857900  1
  H  765  1  0.01336700  0.85176600  0.55177100  1
  H  766  1  0.06723400  0.84238700  0.62155100  1
  H  767  1  0.03544300  0.81352900  0.61534500  1
  H  768  1  0.98017100  0.83377800  0.61902200  1
  H  769  1  0.94648600  0.86066200  0.62488300  1
  H  770  1  0.92872800  0.85496600  0.55016300  1
  H  771  1  0.96219800  0.82846200  0.54400100  1
  H  772  1  0.96487000  0.77899500  0.55331800  1
  H  773  1  0.96441900  0.76106500  0.51385900  1
  H  774  1  0.03418100  0.79055200  0.49951700  1
  H  775  1  0.03512400  0.80815500  0.53894700  1
  H  776  1  0.03516800  0.77423800  0.58500400  1
  H  777  1  0.96282400  0.78777000  0.60924000  1
  H  778  1  0.96438200  0.75195300  0.63335700  1
  H  779  1  0.03621300  0.73803200  0.60887300  1
  H  805  1  0.93092400  0.85916000  0.35541900  1
  H  806  1  0.96500800  0.83310000  0.36123300  1
  H  807  1  0.94195700  0.85738400  0.27920700  1
  H  808  1  0.97610200  0.83099100  0.28472300  1
  H  809  1  0.02832900  0.82018900  0.28495300  1
  H  810  1  0.05989000  0.84935700  0.27842600  1
  H  811  1  0.04841700  0.87776700  0.34907800  1
  H  812  1  0.01702200  0.84858100  0.35596500  1
  H  813  1  0.03605100  0.80428400  0.36290100  1
  H  814  1  0.03518200  0.78691800  0.40246700  1
  H  815  1  0.96230200  0.76434200  0.39129500  1
  H  816  1  0.96247000  0.78278500  0.35222400  1
  H  817  1  0.95859200  0.78433200  0.30474200  1
  H  818  1  0.03575700  0.77990000  0.30943300  1
  H  819  1  0.03516200  0.74510100  0.28375100  1
  H  820  1  0.95806000  0.74838500  0.28096600  1
  H  846  1  0.11560300  0.39194400  0.00148300  1
  H  847  1  0.14351500  0.39849300  0.96893800  1
  H  848  1  0.15430600  0.32869900  0.02248200  1
  H  849  1  0.18197100  0.33455400  0.98956400  1
  H  850  1  0.16069600  0.33085300  0.93528900  1
  H  851  1  0.13287000  0.32468100  0.90244000  1
  H  852  1  0.13757900  0.39936500  0.88423200  1
  H  853  1  0.16501800  0.40586000  0.91693600  1
  H  854  1  0.21468800  0.39669100  0.91817800  1
  H  855  1  0.23313300  0.43590700  0.91740100  1
  H  856  1  0.20574700  0.45029700  0.98795700  1
  H  857  1  0.18783900  0.41103600  0.98929600  1
  H  858  1  0.22102600  0.36383900  0.98860600  1
  H  859  1  0.20645100  0.34224700  0.91566000  1
  H  860  1  0.24218500  0.31773900  0.91596000  1
  H  861  1  0.25676300  0.33909600  0.98859500  1
  H  887  1  0.13794500  0.59621200  0.88420500  1
  H  888  1  0.16449000  0.58939300  0.91770400  1
  H  889  1  0.13654800  0.67156400  0.90003900  1
  H  890  1  0.16348900  0.66507900  0.93355000  1
  H  891  1  0.17758500  0.66291300  0.98613600  1
  H  892  1  0.14885400  0.66861600  0.01815200  1
  H  893  1  0.11671900  0.60055900  0.00173800  1
  H  894  1  0.14566900  0.59433700  0.96995600  1
  H  895  1  0.18986700  0.58521400  0.99003100  1
  H  896  1  0.20764600  0.54585800  0.98866800  1
  H  897  1  0.23293900  0.55934800  0.91713800  1
  H  898  1  0.21444000  0.59848600  0.91790300  1
  H  899  1  0.21017400  0.64907100  0.91533400  1
  H  900  1  0.21747200  0.63572800  0.99123200  1
  H  901  1  0.25178900  0.66225500  0.99246500  1
  H  902  1  0.24509400  0.67443500  0.91658000  1
  H  928  1  0.88009900  0.39164900  0.90392600  1
  H  929  1  0.85180200  0.39797400  0.93619000  1
  H  930  1  0.84069300  0.32954100  0.88103900  1
  H  931  1  0.81262300  0.33516400  0.91363100  1
  H  932  1  0.83366200  0.33048000  0.96863500  1
  H  933  1  0.86139000  0.32411600  0.00156200  1
  H  934  1  0.85628100  0.39861100  0.02033100  1
  H  935  1  0.82902100  0.40529600  0.98758600  1
  H  936  1  0.77945200  0.39638200  0.98543300  1
  H  937  1  0.76156700  0.43589000  0.98646800  1
  H  938  1  0.79031400  0.45088500  0.91657100  1
  H  939  1  0.80788500  0.41144500  0.91507300  1
  H  940  1  0.77370400  0.36582900  0.91477900  1
  H  941  1  0.78778400  0.34031000  0.98654600  1
  H  942  1  0.75169300  0.31654400  0.98497500  1
  H  943  1  0.73728800  0.34226400  0.91370600  1
  H  969  1  0.85955400  0.59643400  0.01937500  1
  H  970  1  0.83302400  0.58969500  0.98581100  1
  H  971  1  0.85820900  0.67223100  0.00572700  1
  H  972  1  0.83118000  0.66582800  0.97225100  1
  H  973  1  0.81932900  0.66448400  0.92039400  1
  H  974  1  0.84774800  0.67035300  0.88806900  1
  H  975  1  0.87723900  0.60036900  0.90104800  1
  H  976  1  0.84868600  0.59407500  0.93316500  1
  H  977  1  0.80400000  0.58677800  0.91431000  1
  H  978  1  0.78663100  0.54724400  0.91564800  1
  H  979  1  0.76467900  0.55894400  0.98857300  1
  H  980  1  0.78307500  0.59806400  0.98788500  1
  H  981  1  0.78433900  0.64571900  0.99103800  1
  H  982  1  0.77927000  0.63990800  0.91407500  1
  H  983  1  0.74458100  0.66580000  0.91451600  1
  H  984  1  0.74840500  0.66958500  0.99147600  1
  H  995  1  0.93324800  0.47552000  0.23075800  1
  H  996  1  0.93331100  0.52034200  0.23080400  1
  H  997  1  0.03069100  0.51939900  0.15977400  1
  H  998  1  0.03057100  0.47640400  0.15961000  1
  H  1009  1  0.06157300  0.47620200  0.67327000  1
  H  1010  1  0.06182300  0.52102000  0.67385900  1
  H  1011  1  0.96502900  0.51982400  0.74564800  1
  H  1012  1  0.96494300  0.47680900  0.74538500  1
  H  1023  1  0.27634500  0.93379600  0.42921200  1
  H  1024  1  0.27621200  0.93352100  0.47403200  1
  H  1025  1  0.20417100  0.03015400  0.47355500  1
  H  1026  1  0.20395500  0.03024700  0.43053500  1
  H  1037  1  0.71944200  0.06289000  0.43009700  1
  H  1038  1  0.71977700  0.06283000  0.47491700  1
  H  1039  1  0.79040900  0.96514100  0.47346100  1
  H  1040  1  0.79023000  0.96529600  0.43045600  1
  H  1051  1  0.47503200  0.27679600  0.88828600  1
  H  1052  1  0.51989500  0.27649100  0.88801300  1
  H  1053  1  0.51927400  0.20448100  0.98462100  1
  H  1054  1  0.47622700  0.20445700  0.98472100  1
  H  1065  1  0.47622000  0.71949100  0.01667000  1
  H  1066  1  0.52108200  0.71982800  0.01658500  1
  H  1067  1  0.51941400  0.79065300  0.91908700  1
  H  1068  1  0.47637000  0.79043700  0.91922400  1
  H  1079  1  0.47484900  0.93475100  0.67347400  1
  H  1080  1  0.51970700  0.93506300  0.67281200  1
  H  1081  1  0.51912200  0.03094800  0.74580500  1
  H  1082  1  0.47605900  0.03083400  0.74611900  1
  H  1093  1  0.47535300  0.06233200  0.23062100  1
  H  1094  1  0.52021700  0.06230400  0.23058300  1
  H  1095  1  0.51912100  0.96519400  0.15924900  1
  H  1096  1  0.47607600  0.96516300  0.15942800  1
  H  1107  1  0.93282200  0.27649900  0.47496400  1
  H  1108  1  0.93280800  0.27676200  0.43014200  1
  H  1109  1  0.03018000  0.20559000  0.43073900  1
  H  1110  1  0.03028500  0.20549400  0.47373100  1
  H  1121  1  0.06306000  0.71950600  0.47411900  1
  H  1122  1  0.06270800  0.71931300  0.42930100  1
  H  1123  1  0.96603000  0.79144200  0.43068600  1
  H  1124  1  0.96617800  0.79127700  0.47369000  1
  H  1135  1  0.27595700  0.47480100  0.01666100  1
  H  1136  1  0.27638700  0.51961900  0.01668300  1
  H  1137  1  0.20501500  0.51947400  0.91948700  1
  H  1138  1  0.20472500  0.47645500  0.91938600  1
  H  1149  1  0.71873300  0.47595700  0.88861300  1
  H  1150  1  0.71850000  0.52077700  0.88897100  1
  H  1151  1  0.79170100  0.51930600  0.98481800  1
  H  1152  1  0.79157900  0.47629100  0.98464500  1
  H  1163  1  0.95848100  0.32558500  0.31121400  1
  H  1164  1  0.95852400  0.35731000  0.27952100  1
  H  1165  1  0.01111200  0.27990900  0.20340000  1
  H  1166  1  0.01115200  0.24942700  0.23393700  1
  H  1177  1  0.04620100  0.67525200  0.30756100  1
  H  1178  1  0.04705700  0.64360200  0.27582800  1
  H  1179  1  0.97291500  0.71023500  0.20798800  1
  H  1180  1  0.97303200  0.74148000  0.23783400  1
  H  1191  1  0.04695400  0.32102500  0.59715100  1
  H  1192  1  0.04589400  0.35315700  0.62839200  1
  H  1193  1  0.97441700  0.28324900  0.69611500  1
  H  1194  1  0.97444100  0.25302500  0.66524100  1
  H  1205  1  0.93766100  0.68232600  0.60503200  1
  H  1206  1  0.93755300  0.65075400  0.63687500  1
  H  1207  1  0.03158300  0.70476200  0.68977800  1
  H  1208  1  0.03165800  0.73530600  0.65903400  1
  H  1219  1  0.35212300  0.94915800  0.27559400  1
  H  1220  1  0.32055500  0.95011900  0.30743000  1
  H  1221  1  0.25397800  0.02291500  0.23766300  1
  H  1222  1  0.28514300  0.02293800  0.20771400  1
  H  1233  1  0.34533400  0.05860800  0.63730000  1
  H  1234  1  0.31381500  0.05867800  0.60536900  1
  H  1235  1  0.26051200  0.96462600  0.65882400  1
  H  1236  1  0.29101100  0.96452900  0.68964800  1
  H  1247  1  0.63844400  0.03673300  0.27930200  1
  H  1248  1  0.67019900  0.03669500  0.31100400  1
  H  1249  1  0.74639500  0.98417300  0.23362800  1
  H  1250  1  0.71587600  0.98427100  0.20309400  1
  H  1261  1  0.64274600  0.94927300  0.62893200  1
  H  1262  1  0.67481800  0.94808400  0.59761100  1
  H  1263  1  0.74287000  0.02120400  0.66502100  1
  H  1264  1  0.71270300  0.02136500  0.69597100  1
  H  1275  1  0.32086500  0.35293500  0.90329400  1
  H  1276  1  0.35288300  0.32151900  0.90420500  1
  H  1277  1  0.28298500  0.25418300  0.97606000  1
  H  1278  1  0.25290200  0.28522800  0.97618900  1
  H  1289  1  0.68206800  0.34536400  0.01221400  1
  H  1290  1  0.65035100  0.31365900  0.01222800  1
  H  1291  1  0.70389800  0.26119100  0.91778800  1
  H  1292  1  0.73454900  0.29183100  0.91777000  1
  H  1303  1  0.32545800  0.63877500  0.99122800  1
  H  1304  1  0.35716000  0.67050100  0.99120800  1
  H  1305  1  0.27926500  0.74694400  0.93961500  1
  H  1306  1  0.24877200  0.71641100  0.93961900  1
  H  1317  1  0.67452000  0.64315400  0.90366500  1
  H  1318  1  0.64319500  0.67526000  0.90268000  1
  H  1319  1  0.71076400  0.74264100  0.97626900  1
  H  1320  1  0.74172500  0.71246400  0.97622600  1
  H  1331  1  0.13964200  0.38397800  0.12289200  1
  H  1332  1  0.17039600  0.38358700  0.09026900  1
  H  1333  1  0.08656200  0.34518500  0.01264500  1
  H  1334  1  0.05663200  0.34562500  0.04427800  1
  H  1345  1  0.85979400  0.61155000  0.12469900  1
  H  1346  1  0.82731000  0.61117200  0.09376000  1
  H  1347  1  0.90614900  0.65065800  0.01158700  1
  H  1348  1  0.93769600  0.65101200  0.04168800  1
  H  1359  1  0.85555100  0.38454600  0.78169500  1
  H  1360  1  0.82487400  0.38404900  0.81438800  1
  H  1361  1  0.90901800  0.34573500  0.89179900  1
  H  1362  1  0.93886400  0.34623200  0.86004700  1
  H  1373  1  0.13553800  0.61228500  0.77964800  1
  H  1374  1  0.16830100  0.61181400  0.81029500  1
  H  1375  1  0.08983900  0.64976100  0.89355800  1
  H  1376  1  0.05806600  0.65029600  0.86372800  1
  H  1387  1  0.16978200  0.13834900  0.34648400  1
  H  1388  1  0.13822100  0.17023400  0.34652000  1
  H  1389  1  0.06023800  0.09227700  0.29779700  1
  H  1390  1  0.09086700  0.06141700  0.29767500  1
  H  1401  1  0.16900400  0.85934400  0.57631500  1
  H  1402  1  0.13739500  0.82753600  0.57627300  1
  H  1403  1  0.05405300  0.91107600  0.60083300  1
  H  1404  1  0.08476000  0.94197800  0.60088100  1
  H  1415  1  0.82575200  0.85722400  0.34663300  1
  H  1416  1  0.85771300  0.82573700  0.34670600  1
  H  1417  1  0.93472500  0.90462700  0.29803100  1
  H  1418  1  0.90379700  0.93519800  0.29806200  1
  H  1429  1  0.82657000  0.13688700  0.57617100  1
  H  1430  1  0.85819400  0.16867700  0.57613100  1
  H  1431  1  0.94146900  0.08512600  0.60101000  1
  H  1432  1  0.91074500  0.05424400  0.60105000  1
  H  1443  1  0.38408200  0.16844300  0.09389100  1
  H  1444  1  0.38368000  0.13589300  0.12472200  1
  H  1445  1  0.34473900  0.05819900  0.04129500  1
  H  1446  1  0.34512300  0.08980000  0.01129800  1
  H  1457  1  0.61160600  0.17071000  0.81459100  1
  H  1458  1  0.61115300  0.14003900  0.78191000  1
  H  1459  1  0.64991600  0.05698300  0.86023700  1
  H  1460  1  0.65036400  0.08682500  0.89198100  1
  H  1471  1  0.38381800  0.82747300  0.81012400  1
  H  1472  1  0.38339400  0.86024800  0.77952900  1
  H  1473  1  0.34562000  0.93762300  0.86377200  1
  H  1474  1  0.34611900  0.90583300  0.89354700  1
  H  1485  1  0.61198600  0.82545100  0.09001500  1
  H  1486  1  0.61152200  0.85624000  0.12258300  1
  H  1487  1  0.65006900  0.93901700  0.04391300  1
  H  1488  1  0.65057100  0.90905100  0.01233300  1
  H  1499  1  0.38227600  0.13932400  0.78352000  1
  H  1500  1  0.38242100  0.16960000  0.81657000  1
  H  1501  1  0.34553800  0.08481200  0.89374400  1
  H  1502  1  0.34562700  0.05524100  0.86174300  1
  H  1513  1  0.61198500  0.86297200  0.78072200  1
  H  1514  1  0.61196100  0.83000000  0.81110900  1
  H  1515  1  0.64918700  0.90823000  0.89493200  1
  H  1516  1  0.64943800  0.94016400  0.86525000  1
  H  1527  1  0.38250800  0.85694300  0.12098200  1
  H  1528  1  0.38269900  0.82664500  0.08795000  1
  H  1529  1  0.34720600  0.91173500  0.01035000  1
  H  1530  1  0.34720300  0.94131100  0.04236500  1
  H  1541  1  0.61291600  0.13391200  0.12360700  1
  H  1542  1  0.61331000  0.16716200  0.09352600  1
  H  1543  1  0.64934000  0.08918400  0.00897400  1
  H  1544  1  0.64917700  0.05698100  0.03835100  1
  H  1555  1  0.13886100  0.17116100  0.56533900  1
  H  1556  1  0.17092700  0.13978300  0.56564800  1
  H  1557  1  0.09018700  0.05875500  0.60360100  1
  H  1558  1  0.05911700  0.08917300  0.60332900  1
  H  1569  1  0.86193000  0.16485400  0.33778700  1
  H  1570  1  0.83033200  0.13303900  0.33769600  1
  H  1571  1  0.91205900  0.05291800  0.29991200  1
  H  1572  1  0.94286300  0.08393700  0.29999600  1
  H  1583  1  0.85659900  0.82461700  0.56543200  1
  H  1584  1  0.82508900  0.85655300  0.56515000  1
  H  1585  1  0.90690100  0.93646300  0.60319300  1
  H  1586  1  0.93745400  0.90552100  0.60343700  1
  H  1597  1  0.13325600  0.83140600  0.33912300  1
  H  1598  1  0.16485000  0.86322300  0.33908100  1
  H  1599  1  0.08403300  0.94247000  0.29753300  1
  H  1600  1  0.05323000  0.91143900  0.29757100  1
  H  1611  1  0.16610600  0.38335500  0.81130600  1
  H  1612  1  0.13321400  0.38333100  0.78079200  1
  H  1613  1  0.05551200  0.34654400  0.86516900  1
  H  1614  1  0.08737100  0.34677000  0.89496300  1
  H  1625  1  0.16928000  0.61283300  0.08789700  1
  H  1626  1  0.13902100  0.61291100  0.12098500  1
  H  1627  1  0.05443400  0.64854300  0.04267200  1
  H  1628  1  0.08397100  0.64865800  0.01060600  1
  H  1639  1  0.82834500  0.38194000  0.09339100  1
  H  1640  1  0.86154300  0.38233600  0.12357000  1
  H  1641  1  0.93892300  0.34681100  0.03836400  1
  H  1642  1  0.90676100  0.34663600  0.00889600  1
  H  1653  1  0.82612300  0.61244700  0.81675100  1
  H  1654  1  0.85632300  0.61266700  0.78361100  1
  H  1655  1  0.94045600  0.65022900  0.86145100  1
  H  1656  1  0.91094100  0.65027400  0.89352500  1
  C  1  1  0.99560400  0.32521700  0.20595900  1
  C  2  1  0.01775500  0.32965300  0.19352300  1
  C  3  1  0.01819800  0.34420200  0.17250500  1
  C  4  1  0.99645800  0.35470500  0.16328900  1
  C  5  1  0.97470500  0.35190200  0.17700800  1
  C  6  1  0.97410700  0.33675500  0.19765600  1
  C  8  1  0.99635800  0.40034400  0.15307600  1
  C  9  1  0.97551700  0.41562000  0.15286800  1
  C  10  1  0.97601200  0.43862200  0.16418400  1
  C  11  1  0.99707100  0.44673400  0.17671200  1
  C  12  1  0.01723200  0.43077100  0.17854900  1
  C  13  1  0.01674700  0.40782700  0.16718000  1
  C  14  1  0.02138800  0.36904900  0.12191900  1
  C  15  1  0.97401700  0.36849700  0.11993100  1
  C  16  1  0.96963500  0.38561900  0.10103300  1
  C  17  1  0.95096700  0.38186900  0.08383900  1
  C  18  1  0.93662700  0.36051900  0.08467900  1
  C  19  1  0.94152100  0.34278400  0.10264200  1
  C  20  1  0.96027000  0.34656400  0.11976500  1
  C  21  1  0.02674400  0.34537500  0.11294400  1
  C  22  1  0.04656800  0.34135400  0.09715900  1
  C  23  1  0.06153900  0.36095000  0.08975800  1
  C  24  1  0.05595400  0.38467700  0.09811000  1
  C  25  1  0.03605400  0.38870000  0.11377300  1
  C  42  1  0.99742600  0.66928900  0.20788900  1
  C  43  1  0.97650700  0.65584700  0.20132200  1
  C  44  1  0.97665300  0.64150200  0.18014300  1
  C  45  1  0.99725400  0.64116800  0.16447300  1
  C  46  1  0.01841000  0.65415600  0.17172800  1
  C  47  1  0.01845800  0.66820500  0.19312400  1
  C  49  1  0.99658500  0.59555900  0.15356600  1
  C  50  1  0.01666200  0.58819600  0.16819500  1
  C  51  1  0.01714500  0.56513300  0.17935000  1
  C  52  1  0.99722200  0.54898900  0.17686200  1
  C  53  1  0.97649200  0.55685700  0.16364800  1
  C  54  1  0.97606400  0.57990000  0.15241500  1
  C  55  1  0.97355600  0.62784900  0.12165000  1
  C  56  1  0.02114200  0.62694400  0.12221800  1
  C  57  1  0.03623900  0.60734400  0.11473800  1
  C  58  1  0.05556000  0.61108700  0.09832000  1
  C  59  1  0.06019600  0.63447200  0.08855100  1
  C  60  1  0.04480600  0.65398800  0.09530900  1
  C  61  1  0.02553300  0.65024500  0.11183400  1
  C  62  1  0.95798100  0.64843500  0.12369300  1
  C  63  1  0.93875600  0.65226300  0.10708800  1
  C  64  1  0.93511800  0.63599800  0.08751400  1
  C  65  1  0.95100300  0.61593100  0.08475100  1
  C  66  1  0.97002700  0.61202200  0.10149400  1
  C  83  1  0.99710400  0.32573300  0.69711000  1
  C  84  1  0.97510200  0.33197800  0.70905900  1
  C  85  1  0.97533900  0.34602900  0.73041900  1
  C  86  1  0.99761000  0.35451000  0.74042200  1
  C  87  1  0.01939800  0.34997700  0.72727500  1
  C  88  1  0.01926600  0.33504800  0.70647200  1
  C  90  1  0.99851100  0.40026600  0.75042300  1
  C  91  1  0.01968400  0.41506700  0.74999800  1
  C  92  1  0.01925900  0.43826300  0.73905400  1
  C  93  1  0.99794000  0.44702700  0.72741600  1
  C  94  1  0.97745900  0.43143700  0.72597400  1
  C  95  1  0.97784300  0.40834900  0.73707000  1
  C  96  1  0.97346100  0.36921700  0.78190100  1
  C  97  1  0.02069600  0.36844100  0.78365500  1
  C  98  1  0.02565300  0.38604600  0.80194600  1
  C  99  1  0.04433000  0.38237900  0.81914100  1
  C  100  1  0.05804100  0.36060200  0.81899700  1
  C  101  1  0.05248200  0.34235700  0.80176700  1
  C  102  1  0.03374400  0.34609700  0.78460400  1
  C  103  1  0.96765600  0.34549100  0.79045500  1
  C  104  1  0.94802900  0.34164200  0.80652200  1
  C  105  1  0.93369300  0.36145900  0.81455000  1
  C  106  1  0.93969800  0.38521200  0.80658800  1
  C  107  1  0.95944100  0.38906300  0.79068500  1
  C  124  1  0.00016800  0.66900900  0.69610400  1
  C  125  1  0.02045500  0.65472600  0.70298700  1
  C  126  1  0.01978900  0.64091800  0.72452600  1
  C  127  1  0.99917800  0.64163900  0.74017800  1
  C  128  1  0.97868800  0.65556600  0.73279300  1
  C  129  1  0.97926400  0.66925700  0.71115600  1
  C  131  1  0.99900400  0.59607900  0.75148900  1
  C  132  1  0.97910800  0.58883900  0.73656300  1
  C  133  1  0.97857800  0.56569900  0.72558000  1
  C  134  1  0.99836000  0.54942300  0.72840100  1
  C  135  1  0.01893600  0.55714900  0.74190900  1
  C  136  1  0.01936900  0.58023000  0.75304700  1
  C  137  1  0.02192400  0.62834300  0.78341000  1
  C  138  1  0.97424500  0.62782700  0.78222400  1
  C  139  1  0.95899300  0.60831100  0.78962000  1
  C  140  1  0.93959200  0.61211700  0.80593400  1
  C  141  1  0.93494300  0.63550000  0.81569800  1
  C  142  1  0.95048200  0.65493600  0.80902200  1
  C  143  1  0.96986700  0.65112300  0.79261900  1
  C  144  1  0.03796100  0.64853800  0.78117900  1
  C  145  1  0.05717800  0.65213000  0.79783600  1
  C  146  1  0.06036500  0.63603200  0.81764300  1
  C  147  1  0.04398200  0.61640500  0.82061200  1
  C  148  1  0.02496700  0.61271400  0.80381200  1
  C  165  1  0.25234000  0.99955500  0.27974200  1
  C  166  1  0.24043300  0.02147800  0.28628700  1
  C  167  1  0.21891700  0.02108200  0.30011800  1
  C  168  1  0.20868000  0.99871900  0.30801400  1
  C  169  1  0.22168000  0.97694700  0.30305200  1
  C  170  1  0.24267700  0.97726800  0.28837800  1
  C  172  1  0.19885000  0.99730700  0.35374600  1
  C  173  1  0.19944400  0.97598200  0.36830900  1
  C  174  1  0.21042300  0.97620100  0.39150600  1
  C  175  1  0.22192100  0.99748100  0.40048600  1
  C  176  1  0.22324000  0.01811200  0.38510500  1
  C  177  1  0.21208200  0.01793800  0.36204500  1
  C  178  1  0.16726300  0.02277400  0.32325700  1
  C  179  1  0.16542000  0.97559200  0.32168400  1
  C  180  1  0.14737200  0.97017200  0.33941100  1
  C  181  1  0.13001500  0.95174000  0.33541500  1
  C  182  1  0.12966800  0.93884400  0.31316500  1
  C  183  1  0.14661700  0.94492500  0.29481800  1
  C  184  1  0.16402100  0.96334700  0.29892900  1
  C  185  1  0.15913000  0.02951400  0.29962600  1
  C  186  1  0.14353400  0.04961200  0.29621200  1
  C  187  1  0.13544600  0.06340900  0.31638200  1
  C  188  1  0.14273000  0.05623100  0.34004600  1
  C  189  1  0.15823100  0.03609500  0.34345500  1
  C  206  1  0.25441700  0.99605900  0.62304200  1
  C  207  1  0.24741000  0.97571000  0.60894400  1
  C  208  1  0.22590100  0.97641500  0.59505300  1
  C  209  1  0.21042800  0.99716900  0.59545000  1
  C  210  1  0.21794000  0.01772000  0.60917400  1
  C  211  1  0.23951700  0.01707800  0.62298700  1
  C  213  1  0.19920700  0.99690700  0.54984000  1
  C  214  1  0.21434800  0.01653200  0.54235900  1
  C  215  1  0.22515900  0.01677500  0.51913100  1
  C  216  1  0.22193200  0.99695100  0.50302200  1
  C  217  1  0.20835000  0.97656100  0.51103500  1
  C  218  1  0.19735900  0.97643800  0.53419400  1
  C  219  1  0.16692600  0.97480200  0.58231400  1
  C  220  1  0.16867000  0.02239700  0.58121800  1
  C  221  1  0.16161200  0.03760400  0.56153300  1
  C  222  1  0.14572200  0.05739900  0.56512200  1
  C  223  1  0.13603800  0.06249300  0.58844900  1
  C  224  1  0.14229000  0.04695600  0.60803000  1
  C  225  1  0.15827200  0.02717700  0.60443300  1
  C  226  1  0.16882200  0.95907300  0.60278200  1
  C  227  1  0.15171100  0.94034100  0.60672500  1
  C  228  1  0.13178800  0.93730300  0.59069900  1
  C  229  1  0.12927800  0.95335100  0.57071500  1
  C  230  1  0.14650200  0.97188600  0.56668000  1
  C  247  1  0.74377500  0.99964800  0.27891200  1
  C  248  1  0.75594100  0.97741200  0.28363900  1
  C  249  1  0.77686700  0.97686100  0.29835000  1
  C  250  1  0.78630200  0.99858700  0.30862100  1
  C  251  1  0.77288800  0.02047900  0.30543400  1
  C  252  1  0.75227300  0.02115600  0.29021400  1
  C  254  1  0.79620600  0.99905000  0.35433700  1
  C  255  1  0.79658700  0.01998500  0.36944000  1
  C  256  1  0.78540400  0.01970900  0.39251700  1
  C  257  1  0.77291200  0.99874800  0.40087600  1
  C  258  1  0.77083300  0.97852700  0.38506300  1
  C  259  1  0.78202500  0.97881400  0.36203000  1
  C  260  1  0.82736900  0.97337400  0.32372800  1
  C  261  1  0.82985500  0.02058900  0.32242700  1
  C  262  1  0.84860800  0.02498300  0.33971800  1
  C  263  1  0.86622800  0.04317200  0.33577100  1
  C  264  1  0.86599600  0.05694500  0.31404100  1
  C  265  1  0.84816400  0.05204800  0.29617000  1
  C  266  1  0.83057100  0.03380100  0.30017900  1
  C  267  1  0.83613200  0.96718600  0.30018200  1
  C  268  1  0.85168900  0.94707600  0.29670600  1
  C  269  1  0.85920700  0.93272400  0.31673800  1
  C  270  1  0.85126500  0.93933400  0.34034700  1
  C  271  1  0.83572900  0.95943000  0.34381400  1
  C  288  1  0.74297600  0.99708400  0.62385200  1
  C  289  1  0.74957700  0.01810200  0.61059900  1
  C  290  1  0.77070400  0.01802100  0.59614900  1
  C  291  1  0.78628700  0.99735900  0.59548900  1
  C  292  1  0.77898200  0.97610400  0.60826500  1
  C  293  1  0.75765000  0.97600600  0.62244500  1
  C  295  1  0.79690600  0.99852600  0.54978600  1
  C  296  1  0.78207500  0.97867200  0.54229700  1
  C  297  1  0.77085500  0.97849000  0.51925300  1
  C  298  1  0.77346800  0.99850400  0.50325200  1
  C  299  1  0.78685800  0.01903100  0.51126800  1
  C  300  1  0.79812200  0.01917700  0.53431000  1
  C  301  1  0.82917500  0.02094800  0.58212100  1
  C  302  1  0.82833300  0.97337300  0.58071100  1
  C  303  1  0.83545200  0.95833200  0.56094700  1
  C  304  1  0.85139300  0.93855500  0.56448000  1
  C  305  1  0.86105200  0.93335300  0.58781000  1
  C  306  1  0.85480300  0.94879800  0.60744400  1
  C  307  1  0.83877700  0.96854800  0.60391200  1
  C  308  1  0.82737300  0.03630000  0.60287300  1
  C  309  1  0.84423000  0.05526000  0.60685800  1
  C  310  1  0.86381700  0.05889900  0.59057300  1
  C  311  1  0.86623600  0.04325700  0.57027300  1
  C  312  1  0.84926800  0.02449300  0.56621200  1
  C  329  1  0.32532500  0.25288900  0.95308100  1
  C  330  1  0.33158900  0.24076100  0.97497800  1
  C  331  1  0.34545900  0.21926800  0.97458000  1
  C  332  1  0.35373000  0.20928800  0.95224600  1
  C  333  1  0.34920000  0.22259000  0.93055700  1
  C  334  1  0.33441900  0.24352100  0.93085300  1
  C  336  1  0.39951100  0.19919600  0.95124200  1
  C  337  1  0.41430200  0.19972700  0.93007700  1
  C  338  1  0.43748600  0.21073000  0.93050400  1
  C  339  1  0.44624600  0.22232700  0.95182000  1
  C  340  1  0.43067500  0.22363500  0.97230800  1
  C  341  1  0.40760600  0.21247600  0.97192500  1
  C  342  1  0.36840800  0.16768400  0.97618400  1
  C  343  1  0.36759700  0.16612800  0.92895000  1
  C  344  1  0.38517500  0.14780600  0.92393200  1
  C  345  1  0.38147000  0.13071900  0.90519000  1
  C  346  1  0.35967400  0.13099100  0.89148000  1
  C  347  1  0.34146000  0.14825600  0.89710300  1
  C  348  1  0.34523300  0.16531400  0.91589900  1
  C  349  1  0.34464500  0.15920500  0.98201000  1
  C  350  1  0.34076200  0.14324300  0.00171200  1
  C  351  1  0.36057900  0.13524000  0.01609500  1
  C  352  1  0.38437300  0.14309600  0.01003900  1
  C  353  1  0.38825900  0.15888900  0.99022300  1
  C  370  1  0.66831300  0.25471500  0.94934100  1
  C  371  1  0.65400700  0.24777000  0.92910800  1
  C  372  1  0.64029100  0.22617600  0.92982500  1
  C  373  1  0.64110500  0.21054900  0.95044500  1
  C  374  1  0.65509700  0.21796500  0.97086100  1
  C  375  1  0.66870100  0.23965100  0.97023000  1
  C  377  1  0.59555900  0.19911000  0.95068200  1
  C  378  1  0.58826800  0.21405100  0.97052000  1
  C  379  1  0.56505800  0.22494600  0.97104500  1
  C  380  1  0.54874500  0.22198100  0.95132600  1
  C  381  1  0.55650800  0.20846200  0.93079600  1
  C  382  1  0.57965600  0.19740100  0.93037800  1
  C  383  1  0.62796500  0.16721100  0.92788400  1
  C  384  1  0.62744600  0.16852600  0.97549800  1
  C  385  1  0.60793900  0.16114800  0.99077600  1
  C  386  1  0.61178500  0.14484400  0.01017100  1
  C  387  1  0.63520100  0.13506300  0.01476100  1
  C  388  1  0.65463500  0.14173000  0.99922200  1
  C  389  1  0.65078300  0.15814400  0.97985900  1
  C  390  1  0.64816600  0.16947200  0.91185400  1
  C  391  1  0.65184700  0.15275800  0.89273900  1
  C  392  1  0.63584200  0.13286200  0.88965300  1
  C  393  1  0.61620400  0.12987500  0.90602200  1
  C  394  1  0.61242100  0.14673600  0.92493300  1
  C  411  1  0.32477500  0.74421600  0.95464900  1
  C  412  1  0.32911200  0.75659400  0.93245700  1
  C  413  1  0.34384700  0.77747900  0.93184700  1
  C  414  1  0.35463700  0.78661300  0.95345300  1
  C  415  1  0.35187000  0.77296400  0.97524800  1
  C  416  1  0.33657600  0.75243000  0.97601000  1
  C  418  1  0.40037100  0.79667500  0.95347200  1
  C  419  1  0.41570800  0.79700800  0.97426000  1
  C  420  1  0.43877200  0.78576100  0.97377000  1
  C  421  1  0.44689200  0.77318700  0.95276900  1
  C  422  1  0.43086000  0.77119500  0.93268500  1
  C  423  1  0.40784700  0.78248800  0.93316700  1
  C  424  1  0.36912400  0.82786200  0.92834200  1
  C  425  1  0.36860100  0.82999400  0.97562300  1
  C  426  1  0.38577900  0.84887300  0.97985500  1
  C  427  1  0.38211000  0.86615000  0.99842300  1
  C  428  1  0.36079700  0.86539300  0.01282700  1
  C  429  1  0.34300000  0.84745000  0.00809300  1
  C  430  1  0.34669900  0.83025000  0.98943300  1
  C  431  1  0.34547100  0.83700000  0.92302700  1
  C  432  1  0.34151900  0.85291000  0.90329100  1
  C  433  1  0.36116400  0.86027100  0.88836100  1
  C  434  1  0.38486800  0.85172900  0.89387900  1
  C  435  1  0.38881900  0.83593500  0.91369000  1
  C  452  1  0.66962200  0.74302500  0.95201900  1
  C  453  1  0.65621500  0.74953000  0.97296700  1
  C  454  1  0.64185300  0.77071800  0.97291400  1
  C  455  1  0.64146900  0.78647300  0.95238200  1
  C  456  1  0.65441000  0.77927700  0.93119400  1
  C  457  1  0.66848300  0.75787300  0.93105500  1
  C  459  1  0.59576100  0.79728000  0.95312900  1
  C  460  1  0.58841600  0.78267700  0.93305700  1
  C  461  1  0.56536700  0.77146300  0.93258300  1
  C  462  1  0.54923000  0.77382100  0.95251900  1
  C  463  1  0.55708700  0.78702000  0.97323100  1
  C  464  1  0.58011800  0.79830200  0.97366000  1
  C  465  1  0.62798000  0.82917700  0.97619800  1
  C  466  1  0.62706700  0.82877800  0.92863400  1
  C  467  1  0.60741600  0.83627200  0.91358200  1
  C  468  1  0.61111200  0.85271200  0.89427100  1
  C  469  1  0.63450800  0.86246900  0.88956000  1
  C  470  1  0.65406300  0.85571000  0.90492900  1
  C  471  1  0.65036400  0.83919100  0.92421600  1
  C  472  1  0.64855000  0.82710600  0.99180900  1
  C  473  1  0.65226900  0.84361600  0.01110400  1
  C  474  1  0.63590700  0.86312200  0.01478700  1
  C  475  1  0.61586800  0.86592700  0.99885300  1
  C  476  1  0.61207100  0.84928000  0.97975800  1
  C  493  1  0.32682100  0.99582800  0.69620500  1
  C  494  1  0.32653900  0.01665700  0.71133900  1
  C  495  1  0.34019100  0.01715200  0.73301000  1
  C  496  1  0.35414200  0.99666400  0.74033300  1
  C  497  1  0.35486600  0.97611600  0.72462400  1
  C  498  1  0.34108900  0.97552900  0.70305100  1
  C  500  1  0.39972900  0.99687300  0.75165500  1
  C  501  1  0.41561800  0.97653800  0.75315000  1
  C  502  1  0.43871500  0.97702200  0.74200600  1
  C  503  1  0.44642400  0.99764400  0.72859100  1
  C  504  1  0.43012100  0.01740100  0.72582300  1
  C  505  1  0.40697300  0.01682100  0.73682900  1
  C  506  1  0.36789900  0.02147400  0.78246100  1
  C  507  1  0.36747900  0.97383800  0.78351200  1
  C  508  1  0.38312600  0.97077600  0.80390900  1
  C  509  1  0.37945600  0.95174300  0.82066900  1
  C  510  1  0.35982900  0.93535500  0.81766200  1
  C  511  1  0.34372100  0.93855200  0.79784900  1
  C  512  1  0.34729300  0.95778800  0.78123500  1
  C  513  1  0.34457100  0.02577600  0.79286000  1
  C  514  1  0.34070200  0.04513500  0.80926100  1
  C  515  1  0.36010400  0.06073100  0.81591400  1
  C  516  1  0.38352300  0.05616000  0.80615100  1
  C  517  1  0.38739300  0.03676700  0.78986200  1
  C  534  1  0.67027100  0.99855400  0.69725000  1
  C  535  1  0.66109800  0.97642600  0.70678400  1
  C  536  1  0.64618300  0.97635400  0.72760600  1
  C  537  1  0.64156300  0.99818700  0.74061400  1
  C  538  1  0.64990500  0.02041800  0.73045800  1
  C  539  1  0.66394900  0.02058100  0.70908300  1
  C  541  1  0.59575200  0.99745400  0.75051800  1
  C  542  1  0.58763400  0.01820500  0.73734400  1
  C  543  1  0.56450200  0.01865800  0.72628800  1
  C  544  1  0.54895300  0.99814300  0.72752000  1
  C  545  1  0.55780000  0.97672400  0.73887100  1
  C  546  1  0.58100700  0.97625900  0.74984000  1
  C  547  1  0.62749500  0.97519500  0.78380600  1
  C  548  1  0.62682500  0.02238700  0.78207500  1
  C  549  1  0.60693300  0.03625400  0.79102500  1
  C  550  1  0.61077600  0.05596200  0.80695100  1
  C  551  1  0.63457000  0.06207900  0.81477700  1
  C  552  1  0.65443800  0.04789400  0.80658900  1
  C  553  1  0.65059300  0.02829700  0.79049900  1
  C  554  1  0.64996200  0.96235400  0.78500900  1
  C  555  1  0.65363900  0.94361000  0.80215500  1
  C  556  1  0.63519900  0.93784000  0.81911400  1
  C  557  1  0.61329900  0.95137700  0.81904300  1
  C  558  1  0.60970600  0.97008500  0.80188700  1
  C  575  1  0.32615900  0.99849800  0.20758300  1
  C  576  1  0.32722500  0.97747500  0.19282800  1
  C  577  1  0.34127600  0.97750200  0.17142500  1
  C  578  1  0.35425200  0.99864100  0.16414500  1
  C  579  1  0.35394800  0.01922900  0.17980900  1
  C  580  1  0.33961000  0.01939200  0.20099700  1
  C  582  1  0.39992400  0.99929200  0.15331300  1
  C  583  1  0.41561500  0.01977900  0.15213800  1
  C  584  1  0.43868800  0.01933900  0.16335700  1
  C  585  1  0.44653700  0.99862800  0.17657400  1
  C  586  1  0.43036000  0.97874800  0.17911800  1
  C  587  1  0.40726200  0.97925400  0.16798600  1
  C  588  1  0.36856600  0.97472000  0.12193800  1
  C  589  1  0.36764000  0.02227200  0.12133600  1
  C  590  1  0.38349300  0.02577000  0.10119000  1
  C  591  1  0.37961900  0.04478600  0.08445300  1
  C  592  1  0.35955200  0.06068100  0.08720200  1
  C  593  1  0.34324000  0.05704900  0.10674700  1
  C  594  1  0.34703600  0.03783300  0.12334600  1
  C  595  1  0.34526400  0.97029500  0.11151400  1
  C  596  1  0.34156800  0.95101200  0.09500300  1
  C  597  1  0.36112600  0.93563000  0.08832300  1
  C  598  1  0.38451000  0.94030200  0.09813200  1
  C  599  1  0.38821000  0.95963900  0.11452300  1
  C  616  1  0.67054400  0.99982700  0.20567000  1
  C  617  1  0.65903900  0.02134100  0.19740800  1
  C  618  1  0.64388800  0.02081400  0.17674800  1
  C  619  1  0.64100800  0.99910400  0.16300500  1
  C  620  1  0.65148100  0.97734700  0.17217700  1
  C  621  1  0.66606300  0.97772800  0.19318800  1
  C  623  1  0.59532500  0.99927800  0.15280400  1
  C  624  1  0.58779600  0.97887300  0.16683200  1
  C  625  1  0.56482300  0.97838300  0.17817600  1
  C  626  1  0.54889700  0.99856900  0.17641900  1
  C  627  1  0.55704200  0.01964100  0.16397000  1
  C  628  1  0.58007400  0.02013100  0.15267000  1
  C  629  1  0.62722000  0.02163300  0.11970700  1
  C  630  1  0.62660600  0.97430700  0.12157000  1
  C  631  1  0.60691800  0.95969500  0.11339300  1
  C  632  1  0.61092200  0.93981300  0.09771800  1
  C  633  1  0.63466800  0.93419800  0.08938700  1
  C  634  1  0.65430200  0.94911700  0.09681500  1
  C  635  1  0.65030100  0.96891700  0.11261500  1
  C  636  1  0.64921900  0.03529300  0.11954000  1
  C  637  1  0.65302300  0.05407200  0.10247700  1
  C  638  1  0.63523100  0.05909500  0.08459000  1
  C  639  1  0.61381000  0.04484400  0.08374600  1
  C  640  1  0.61005500  0.02612400  0.10085800  1
  C  657  1  0.99830300  0.25287000  0.62392100  1
  C  658  1  0.01940800  0.23822700  0.62246500  1
  C  659  1  0.01927700  0.21689100  0.60832400  1
  C  660  1  0.99796500  0.20955500  0.59562400  1
  C  661  1  0.97727500  0.22510800  0.59632300  1
  C  662  1  0.97722100  0.24623100  0.61075600  1
  C  664  1  0.99684700  0.19904900  0.54989900  1
  C  665  1  0.97618900  0.19790100  0.53440000  1
  C  666  1  0.97636900  0.20921700  0.51139000  1
  C  667  1  0.99694700  0.22257500  0.50343300  1
  C  668  1  0.01695500  0.22516000  0.51947900  1
  C  669  1  0.01674300  0.21387000  0.54248100  1
  C  670  1  0.02198400  0.16759400  0.58079800  1
  C  671  1  0.97436600  0.16672400  0.58211600  1
  C  672  1  0.97085000  0.14669400  0.56613900  1
  C  673  1  0.95213000  0.12966700  0.57017500  1
  C  674  1  0.93649600  0.13197900  0.59050000  1
  C  675  1  0.94008200  0.15152900  0.60682700  1
  C  676  1  0.95901300  0.16842900  0.60288100  1
  C  677  1  0.02679700  0.15715700  0.60399900  1
  C  678  1  0.04659300  0.14118500  0.60755400  1
  C  679  1  0.06209100  0.13498300  0.58793800  1
  C  680  1  0.05688600  0.14461800  0.56460200  1
  C  681  1  0.03705900  0.16050100  0.56104800  1
  C  698  1  0.99563500  0.25208500  0.27920200  1
  C  699  1  0.97410000  0.24352300  0.29042900  1
  C  700  1  0.97479600  0.22291500  0.30562500  1
  C  701  1  0.99674400  0.20959000  0.30889100  1
  C  702  1  0.01848600  0.21908400  0.29868200  1
  C  703  1  0.01791600  0.23999900  0.28399000  1
  C  705  1  0.99642700  0.19964500  0.35457300  1
  C  706  1  0.01677200  0.21367800  0.36228000  1
  C  707  1  0.01710000  0.22491500  0.38528600  1
  C  708  1  0.99683100  0.22302600  0.40108200  1
  C  709  1  0.97578300  0.21065300  0.39270500  1
  C  710  1  0.97545700  0.19943400  0.36965000  1
  C  711  1  0.97474500  0.16606400  0.32268400  1
  C  712  1  0.02199200  0.16851800  0.32383400  1
  C  713  1  0.03594700  0.16002600  0.34386300  1
  C  714  1  0.05605400  0.14452100  0.34028700  1
  C  715  1  0.06266800  0.13675400  0.31662300  1
  C  716  1  0.04829300  0.14438300  0.29664400  1
  C  717  1  0.02816300  0.15990100  0.30023100  1
  C  718  1  0.96162900  0.16524200  0.30036800  1
  C  719  1  0.94341500  0.14761900  0.29632700  1
  C  720  1  0.93843800  0.12987900  0.31424700  1
  C  721  1  0.95208900  0.12977700  0.33606500  1
  C  722  1  0.97025200  0.14742000  0.34004100  1
  C  739  1  0.00033700  0.74154000  0.62314200  1
  C  740  1  0.97930700  0.75643800  0.62304300  1
  C  741  1  0.97870700  0.77799100  0.60923000  1
  C  742  1  0.99929400  0.78547200  0.59552300  1
  C  743  1  0.02007100  0.77001300  0.59520000  1
  C  744  1  0.02074400  0.74853300  0.60910600  1
  C  746  1  0.99955300  0.79650600  0.54987300  1
  C  747  1  0.02000600  0.79833300  0.53418600  1
  C  748  1  0.01984200  0.78730000  0.51105100  1
  C  749  1  0.99946300  0.77362900  0.50312100  1
  C  750  1  0.97966500  0.77041700  0.51928600  1
  C  751  1  0.97991200  0.78133800  0.54245900  1
  C  752  1  0.97403700  0.82712000  0.58113800  1
  C  753  1  0.02167000  0.82890100  0.58223800  1
  C  754  1  0.02456600  0.84925700  0.56654200  1
  C  755  1  0.04305000  0.86653900  0.57056900  1
  C  756  1  0.05908100  0.86414700  0.59059700  1
  C  757  1  0.05609300  0.84426900  0.60665800  1
  C  758  1  0.03740700  0.82710000  0.60272400  1
  C  759  1  0.96924700  0.83757700  0.60432400  1
  C  760  1  0.94942600  0.85352500  0.60787800  1
  C  761  1  0.93385700  0.85968900  0.58828100  1
  C  762  1  0.93897200  0.84996200  0.56498000  1
  C  763  1  0.95881400  0.83411300  0.56143300  1
  C  780  1  0.99654700  0.74326700  0.27984400  1
  C  781  1  0.01886700  0.75294000  0.28843700  1
  C  782  1  0.01920600  0.77391300  0.30312200  1
  C  783  1  0.99740800  0.78687800  0.30813800  1
  C  784  1  0.97501900  0.77663100  0.30028600  1
  C  785  1  0.97461000  0.75514500  0.28643500  1
  C  787  1  0.99891100  0.79663200  0.35389900  1
  C  788  1  0.97828200  0.78337100  0.36218300  1
  C  789  1  0.97812400  0.77225000  0.38525500  1
  C  790  1  0.99879400  0.77353100  0.40062100  1
  C  791  1  0.02007500  0.78503900  0.39162700  1
  C  792  1  0.02027400  0.79601900  0.36843800  1
  C  793  1  0.02058800  0.83007600  0.32185600  1
  C  794  1  0.97337200  0.82822500  0.32349600  1
  C  795  1  0.96007300  0.83723700  0.34372100  1
  C  796  1  0.93993800  0.85276100  0.34036000  1
  C  797  1  0.93273100  0.86008000  0.31671800  1
  C  798  1  0.94649300  0.85199600  0.29651600  1
  C  799  1  0.96659300  0.83638500  0.29988300  1
  C  800  1  0.03274200  0.83156400  0.29905300  1
  C  801  1  0.05111000  0.84901900  0.29491100  1
  C  802  1  0.05723100  0.86592200  0.31328000  1
  C  803  1  0.04443700  0.86547000  0.33559000  1
  C  804  1  0.02605300  0.84806800  0.33961400  1
  C  821  1  0.25275200  0.32646200  0.95220000  1
  C  822  1  0.23787800  0.32758700  0.93124000  1
  C  823  1  0.21642700  0.34160200  0.93140400  1
  C  824  1  0.20922600  0.35452100  0.95260100  1
  C  825  1  0.22500400  0.35414300  0.97312700  1
  C  826  1  0.24623700  0.33982800  0.97316200  1
  C  828  1  0.19829900  0.40013900  0.95337700  1
  C  829  1  0.19724400  0.41576000  0.97391600  1
  C  830  1  0.20850600  0.43878600  0.97350900  1
  C  831  1  0.22169000  0.44665800  0.95279300  1
  C  832  1  0.22409200  0.43055400  0.93284700  1
  C  833  1  0.21287200  0.40752400  0.93329600  1
  C  834  1  0.16682800  0.36878900  0.92887500  1
  C  835  1  0.16646100  0.36786100  0.97644300  1
  C  836  1  0.14629600  0.38369800  0.98002500  1
  C  837  1  0.12966300  0.37985000  0.99913100  1
  C  838  1  0.13254100  0.35983500  0.01505400  1
  C  839  1  0.15211100  0.34354600  0.01134800  1
  C  840  1  0.16860400  0.34731100  0.99204000  1
  C  841  1  0.15645300  0.34549100  0.92445400  1
  C  842  1  0.13997400  0.34174700  0.90512500  1
  C  843  1  0.13324200  0.36124900  0.88970000  1
  C  844  1  0.14295300  0.38464600  0.89441500  1
  C  845  1  0.15933100  0.38839400  0.91378600  1
  C  862  1  0.25160300  0.67096900  0.95467800  1
  C  863  1  0.24335700  0.65925400  0.97606700  1
  C  864  1  0.22280500  0.64396900  0.97532800  1
  C  865  1  0.20915800  0.64115800  0.95353000  1
  C  866  1  0.21833700  0.65183300  0.93189100  1
  C  867  1  0.23923700  0.66656300  0.93248400  1
  C  869  1  0.19905800  0.59547100  0.95359600  1
  C  870  1  0.21319300  0.58792800  0.93327400  1
  C  871  1  0.22441200  0.56489500  0.93280700  1
  C  872  1  0.22246200  0.54895600  0.95295500  1
  C  873  1  0.21002800  0.55717400  0.97400100  1
  C  874  1  0.19879100  0.58022700  0.97444100  1
  C  875  1  0.16574000  0.62724400  0.97572000  1
  C  876  1  0.16784700  0.62669300  0.92844200  1
  C  877  1  0.15972600  0.60700300  0.91382300  1
  C  878  1  0.14391500  0.61095000  0.89401000  1
  C  879  1  0.13542300  0.63464200  0.88844900  1
  C  880  1  0.14284300  0.65428100  0.90333800  1
  C  881  1  0.15876100  0.65033600  0.92308100  1
  C  882  1  0.16545000  0.64915900  0.98947700  1
  C  883  1  0.14825200  0.65285200  0.00815100  1
  C  884  1  0.13034400  0.63504000  0.01294300  1
  C  885  1  0.12960800  0.61371600  0.99857700  1
  C  886  1  0.14687300  0.61005700  0.97998600  1
  C  903  1  0.74102900  0.32741400  0.94930400  1
  C  904  1  0.75613100  0.32705300  0.97017900  1
  C  905  1  0.77781900  0.34067400  0.97079000  1
  C  906  1  0.78521200  0.35462700  0.95035000  1
  C  907  1  0.76953400  0.35543900  0.92975300  1
  C  908  1  0.74793400  0.34171400  0.92906300  1
  C  910  1  0.79658600  0.40016200  0.95062300  1
  C  911  1  0.79824700  0.41607400  0.93033600  1
  C  912  1  0.78720900  0.43921400  0.93082700  1
  C  913  1  0.77377200  0.44694200  0.95141700  1
  C  914  1  0.77081300  0.43062200  0.97111500  1
  C  915  1  0.78166800  0.40741000  0.97050200  1
  C  916  1  0.82728900  0.36831200  0.97535200  1
  C  917  1  0.82852500  0.36786600  0.92773400  1
  C  918  1  0.84899600  0.38342800  0.92479700  1
  C  919  1  0.86585900  0.37970000  0.90586500  1
  C  920  1  0.86288800  0.36009200  0.88947400  1
  C  921  1  0.84300600  0.34406300  0.89255600  1
  C  922  1  0.82628600  0.34769300  0.91168800  1
  C  923  1  0.83771600  0.34500800  0.97967200  1
  C  924  1  0.85414700  0.34115400  0.99903800  1
  C  925  1  0.86076500  0.36055000  0.01462900  1
  C  926  1  0.85094400  0.38393700  0.01007600  1
  C  927  1  0.83464400  0.38779300  0.99066300  1
  C  944  1  0.74302800  0.67027300  0.95304500  1
  C  945  1  0.75250300  0.66129100  0.93081400  1
  C  946  1  0.77343300  0.64649400  0.93055200  1
  C  947  1  0.78660100  0.64179500  0.95229300  1
  C  948  1  0.77649800  0.64994000  0.97462000  1
  C  949  1  0.75502000  0.66385500  0.97497400  1
  C  951  1  0.79667800  0.59606700  0.95141000  1
  C  952  1  0.78361000  0.58792600  0.97221100  1
  C  953  1  0.77248500  0.56485800  0.97266200  1
  C  954  1  0.77356500  0.54936900  0.95211200  1
  C  955  1  0.78491900  0.55817700  0.93068700  1
  C  956  1  0.79589800  0.58135500  0.93020100  1
  C  957  1  0.82976600  0.62790800  0.92900800  1
  C  958  1  0.82827900  0.62717000  0.97623800  1
  C  959  1  0.83728300  0.60732900  0.99013900  1
  C  960  1  0.85307400  0.61122900  0.00996800  1
  C  961  1  0.86071800  0.63503100  0.01617800  1
  C  962  1  0.85254200  0.65484500  0.00191400  1
  C  963  1  0.83658300  0.65094600  0.98219600  1
  C  964  1  0.83079500  0.65038200  0.91620400  1
  C  965  1  0.84782500  0.65415000  0.89737100  1
  C  966  1  0.86483200  0.63579000  0.89144900  1
  C  967  1  0.86491700  0.61387800  0.90493300  1
  C  968  1  0.84789600  0.61020400  0.92374900  1
  C  985  1  0.99971000  0.52390500  0.18276500  1
  C  986  1  0.98185200  0.51087200  0.19617500  1
  C  987  1  0.98179900  0.48489900  0.19611100  1
  C  988  1  0.99956800  0.47184800  0.18257700  1
  C  989  1  0.01813400  0.48510900  0.17053300  1
  C  990  1  0.01819000  0.51065700  0.17059800  1
  C  992  1  0.94629900  0.48511100  0.22153200  1
  C  993  1  0.94633200  0.51072900  0.22155200  1
  C  999  1  0.99583300  0.52436700  0.72246000  1
  C  1000  1  0.01353200  0.51140000  0.70878400  1
  C  1001  1  0.01341500  0.48542600  0.70851200  1
  C  1002  1  0.99568000  0.47230700  0.72203300  1
  C  1003  1  0.97732200  0.48555500  0.73443400  1
  C  1004  1  0.97739300  0.51110400  0.73465100  1
  C  1006  1  0.04867200  0.48575400  0.68274700  1
  C  1007  1  0.04882200  0.51136900  0.68309400  1
  C  1013  1  0.22745700  0.99937700  0.47786900  1
  C  1014  1  0.24099900  0.98168700  0.46475300  1
  C  1015  1  0.24099200  0.98181000  0.43877500  1
  C  1016  1  0.22728500  0.99952000  0.42579000  1
  C  1017  1  0.21492800  0.01779700  0.43917300  1
  C  1018  1  0.21503100  0.01775000  0.46471800  1
  C  1020  1  0.26690100  0.94665000  0.43885500  1
  C  1021  1  0.26682100  0.94648900  0.46447200  1
  C  1027  1  0.76760100  0.99622500  0.47813500  1
  C  1028  1  0.75416000  0.01416000  0.46520700  1
  C  1029  1  0.75400300  0.01421500  0.43923300  1
  C  1030  1  0.76732200  0.99637400  0.42607100  1
  C  1031  1  0.77946200  0.97779900  0.43925700  1
  C  1032  1  0.77953200  0.97766700  0.46480400  1
  C  1034  1  0.72871200  0.04981000  0.43962300  1
  C  1035  1  0.72890600  0.04977700  0.46524000  1
  C  1041  1  0.52364000  0.22778600  0.95388200  1
  C  1042  1  0.51054200  0.24139700  0.93621600  1
  C  1043  1  0.48454300  0.24149400  0.93634100  1
  C  1044  1  0.47151600  0.22785500  0.95404800  1
  C  1045  1  0.48489000  0.21546600  0.97233900  1
  C  1046  1  0.51046300  0.21543500  0.97226800  1
  C  1048  1  0.48466800  0.26734300  0.90115200  1
  C  1049  1  0.51031000  0.26715800  0.90099000  1
  C  1055  1  0.52415200  0.76775600  0.95008900  1
  C  1056  1  0.51125300  0.75425100  0.96797100  1
  C  1057  1  0.48525900  0.75408100  0.96803300  1
  C  1058  1  0.47206300  0.76745300  0.95023800  1
  C  1059  1  0.48519600  0.77957200  0.93163600  1
  C  1060  1  0.51077100  0.77972000  0.93155500  1
  C  1062  1  0.48572700  0.72875800  0.00358900  1
  C  1063  1  0.51136800  0.72895600  0.00354400  1
  C  1069  1  0.52363100  0.00041900  0.72222500  1
  C  1070  1  0.51048500  0.98282100  0.70854900  1
  C  1071  1  0.48448400  0.98266900  0.70885500  1
  C  1072  1  0.47151100  0.00021400  0.72271400  1
  C  1073  1  0.48478000  0.01854500  0.73504300  1
  C  1074  1  0.51035200  0.01859900  0.73484200  1
  C  1076  1  0.48450900  0.94765900  0.68282400  1
  C  1077  1  0.51014600  0.94784700  0.68243400  1
  C  1083  1  0.52374400  0.99612500  0.18226100  1
  C  1084  1  0.51072600  0.01387400  0.19584400  1
  C  1085  1  0.48473100  0.01387600  0.19590100  1
  C  1086  1  0.47164200  0.99608300  0.18246200  1
  C  1087  1  0.48486700  0.97759800  0.17028300  1
  C  1088  1  0.51043800  0.97759200  0.17022400  1
  C  1090  1  0.48494700  0.04932000  0.22134600  1
  C  1091  1  0.51059000  0.04930100  0.22133000  1
  C  1097  1  0.99919100  0.22864100  0.42627200  1
  C  1098  1  0.98138000  0.24205300  0.43938800  1
  C  1099  1  0.98140600  0.24193600  0.46536300  1
  C  1100  1  0.99930300  0.22849100  0.47834200  1
  C  1101  1  0.01778700  0.21638500  0.46504300  1
  C  1102  1  0.01769500  0.21642000  0.43949600  1
  C  1104  1  0.94586200  0.26731200  0.46531700  1
  C  1105  1  0.94585400  0.26746600  0.43969800  1
  C  1111  1  0.99677300  0.76812800  0.42592000  1
  C  1112  1  0.01455600  0.75449500  0.43889400  1
  C  1113  1  0.01472300  0.75452000  0.46487200  1
  C  1114  1  0.99699700  0.76801600  0.47798600  1
  C  1115  1  0.97852500  0.78034100  0.46486400  1
  C  1116  1  0.97846100  0.78043800  0.43931700  1
  C  1118  1  0.05003300  0.72883400  0.46457100  1
  C  1119  1  0.04982700  0.72871500  0.43895200  1
  C  1125  1  0.22808100  0.52378000  0.95045700  1
  C  1126  1  0.24151300  0.51058500  0.96821300  1
  C  1127  1  0.24129200  0.48461400  0.96819200  1
  C  1128  1  0.22768100  0.47172900  0.95037200  1
  C  1129  1  0.21564100  0.48509000  0.93188600  1
  C  1130  1  0.21581400  0.51063600  0.93195500  1
  C  1132  1  0.26677600  0.48450400  0.00365200  1
  C  1133  1  0.26702700  0.51012100  0.00365800  1
  C  1139  1  0.76809100  0.52410100  0.95431100  1
  C  1140  1  0.75423400  0.51114500  0.93671000  1
  C  1141  1  0.75428700  0.48516900  0.93653700  1
  C  1142  1  0.76802400  0.47202800  0.95407400  1
  C  1143  1  0.78053200  0.48514300  0.97240500  1
  C  1144  1  0.78054500  0.51069200  0.97252700  1
  C  1146  1  0.72820000  0.48549700  0.90152800  1
  C  1147  1  0.72805900  0.51111400  0.90173800  1
  C  1153  1  0.99483200  0.30779700  0.22501900  1
  C  1154  1  0.98467300  0.31272200  0.24829000  1
  C  1155  1  0.98466100  0.29436100  0.26665300  1
  C  1156  1  0.99482700  0.27109000  0.26174700  1
  C  1157  1  0.00429500  0.26627500  0.23827900  1
  C  1158  1  0.00427600  0.28429400  0.22023900  1
  C  1160  1  0.96546400  0.32223000  0.29426500  1
  C  1161  1  0.96549200  0.34035100  0.27616600  1
  C  1167  1  0.99639700  0.68606800  0.22725600  1
  C  1168  1  0.01018600  0.68310400  0.24886800  1
  C  1169  1  0.00986200  0.70161000  0.26704600  1
  C  1170  1  0.99613400  0.72328700  0.26334200  1
  C  1171  1  0.98249900  0.72578600  0.24154000  1
  C  1172  1  0.98247400  0.70742000  0.22383000  1
  C  1174  1  0.03657300  0.67726000  0.29171700  1
  C  1175  1  0.03708800  0.65919800  0.27357400  1
  C  1181  1  0.99694300  0.30887000  0.67741400  1
  C  1182  1  0.01044400  0.31246600  0.65558900  1
  C  1183  1  0.01088100  0.29405000  0.63731400  1
  C  1184  1  0.99743200  0.27229300  0.64065200  1
  C  1185  1  0.98379700  0.26893000  0.66217900  1
  C  1186  1  0.98374300  0.28686500  0.68032800  1
  C  1188  1  0.03716700  0.31883300  0.61286000  1
  C  1189  1  0.03653900  0.33720100  0.63068900  1
  C  1195  1  0.00149200  0.68466700  0.67567500  1
  C  1196  1  0.98414200  0.68380000  0.65652100  1
  C  1197  1  0.98420300  0.70206400  0.63811200  1
  C  1198  1  0.00160500  0.72116700  0.63889600  1
  C  1199  1  0.01934300  0.72130400  0.65761200  1
  C  1200  1  0.01930200  0.70329000  0.67574100  1
  C  1202  1  0.95011500  0.68261800  0.61891000  1
  C  1203  1  0.95005100  0.66458200  0.63710300  1
  C  1209  1  0.27229300  0.99994300  0.26319400  1
  C  1210  1  0.29401000  0.98625000  0.26687200  1
  C  1211  1  0.31246800  0.98586600  0.24863300  1
  C  1212  1  0.30941100  0.99955600  0.22698300  1
  C  1213  1  0.28802700  0.01344900  0.22358000  1
  C  1214  1  0.26969500  0.01345700  0.24133900  1
  C  1216  1  0.33649900  0.95910000  0.27335700  1
  C  1217  1  0.31848200  0.95967100  0.29155700  1
  C  1223  1  0.27476800  0.99470500  0.63884900  1
  C  1224  1  0.29391400  0.01206500  0.63818500  1
  C  1225  1  0.31214900  0.01202200  0.65664500  1
  C  1226  1  0.31121400  0.99460600  0.67571500  1
  C  1227  1  0.29255200  0.97683300  0.67565300  1
  C  1228  1  0.27455500  0.97690700  0.65748600  1
  C  1230  1  0.33148000  0.04613700  0.63743300  1
  C  1231  1  0.31347200  0.04617600  0.61919000  1
  C  1237  1  0.72473100  0.00045600  0.26146900  1
  C  1238  1  0.70144100  0.01061000  0.26639400  1
  C  1239  1  0.68305900  0.01063800  0.24802900  1
  C  1240  1  0.68798000  0.00052800  0.22474000  1
  C  1241  1  0.71149500  0.99107500  0.21994700  1
  C  1242  1  0.72953700  0.99102500  0.23798600  1
  C  1244  1  0.65541600  0.02976900  0.27593600  1
  C  1245  1  0.67355400  0.02975400  0.29403800  1
  C  1251  1  0.72358500  0.99800400  0.64063700  1
  C  1252  1  0.70183300  0.98448500  0.63744900  1
  C  1253  1  0.68345200  0.98500200  0.65577100  1
  C  1254  1  0.68707000  0.99866100  0.67748900  1
  C  1255  1  0.70906200  0.01193700  0.68025100  1
  C  1256  1  0.72696000  0.01180600  0.66205400  1
  C  1258  1  0.65869700  0.95867900  0.63112300  1
  C  1259  1  0.67703000  0.95797900  0.61324700  1
  C  1265  1  0.30861400  0.27274300  0.95341700  1
  C  1266  1  0.31224900  0.29455800  0.93990500  1
  C  1267  1  0.29390600  0.31294100  0.93955800  1
  C  1268  1  0.27219400  0.30972600  0.95312000  1
  C  1269  1  0.26880500  0.28822600  0.96679400  1
  C  1270  1  0.28665600  0.26996600  0.96674500  1
  C  1272  1  0.31865600  0.33724100  0.91310600  1
  C  1273  1  0.33696000  0.31931300  0.91365000  1
  C  1279  1  0.68390800  0.27519000  0.94797200  1
  C  1280  1  0.68315800  0.29423200  0.96541800  1
  C  1281  1  0.70150000  0.31256600  0.96540900  1
  C  1282  1  0.72054700  0.31181300  0.94795600  1
  C  1283  1  0.72054700  0.29325900  0.93008600  1
  C  1284  1  0.70247600  0.27518400  0.93010300  1
  C  1286  1  0.68225400  0.33158500  0.99967200  1
  C  1287  1  0.66413500  0.31347200  0.99968100  1
  C  1293  1  0.30729600  0.72521300  0.95556800  1
  C  1294  1  0.31231100  0.70188100  0.96556200  1
  C  1295  1  0.29395500  0.68350600  0.96556900  1
  C  1296  1  0.27059000  0.68846400  0.95558100  1
  C  1297  1  0.26567900  0.71202000  0.94634400  1
  C  1298  1  0.28370100  0.73006500  0.94634100  1
  C  1300  1  0.32202900  0.65577500  0.98438700  1
  C  1301  1  0.34013100  0.67389600  0.98438200  1
  C  1307  1  0.68632700  0.72355600  0.95294800  1
  C  1308  1  0.68310500  0.70191800  0.93929600  1
  C  1309  1  0.70143300  0.68352300  0.93969000  1
  C  1310  1  0.72319800  0.68702000  0.95335700  1
  C  1311  1  0.72597000  0.70889100  0.96680100  1
  C  1312  1  0.70775800  0.72679300  0.96680500  1
  C  1314  1  0.67672800  0.65901800  0.91318400  1
  C  1315  1  0.65884900  0.67737100  0.91260200  1
  C  1321  1  0.11619700  0.35683400  0.03476700  1
  C  1322  1  0.12284100  0.36376600  0.05873900  1
  C  1323  1  0.10497200  0.36420200  0.07755900  1
  C  1324  1  0.08049300  0.35751100  0.07248200  1
  C  1325  1  0.07433300  0.34982200  0.04864900  1
  C  1326  1  0.09189200  0.34971300  0.02998300  1
  C  1328  1  0.13523900  0.37854200  0.10561900  1
  C  1329  1  0.15281100  0.37831800  0.08698000  1
  C  1335  1  0.87790300  0.63844400  0.03520200  1
  C  1336  1  0.87273500  0.63151400  0.05956400  1
  C  1337  1  0.89148100  0.63191800  0.07752900  1
  C  1338  1  0.91546400  0.63904700  0.07108600  1
  C  1339  1  0.92032900  0.64639500  0.04688500  1
  C  1340  1  0.90173400  0.64631800  0.02922500  1
  C  1342  1  0.86314600  0.61697600  0.10719100  1
  C  1343  1  0.84458500  0.61675600  0.08951000  1
  C  1349  1  0.87929400  0.35737000  0.86976800  1
  C  1350  1  0.87256500  0.36431100  0.84580900  1
  C  1351  1  0.89037800  0.36480300  0.82694200  1
  C  1352  1  0.91487000  0.35812500  0.83195300  1
  C  1353  1  0.92114800  0.35048300  0.85577000  1
  C  1354  1  0.90364300  0.35032700  0.87448600  1
  C  1356  1  0.86001200  0.37910800  0.79895500  1
  C  1357  1  0.84248200  0.37881500  0.81763400  1
  C  1363  1  0.11799800  0.63799300  0.86960100  1
  C  1364  1  0.12300500  0.63139100  0.84511400  1
  C  1365  1  0.10410300  0.63187600  0.82731100  1
  C  1366  1  0.08011500  0.63876500  0.83402500  1
  C  1367  1  0.07540300  0.64576900  0.85835200  1
  C  1368  1  0.09415200  0.64562900  0.87584700  1
  C  1370  1  0.13229800  0.61747700  0.79724500  1
  C  1371  1  0.15101600  0.61720400  0.81475700  1
  C  1377  1  0.08224900  0.12006600  0.31354600  1
  C  1378  1  0.10602900  0.12519700  0.32237600  1
  C  1379  1  0.12430100  0.10675900  0.32233800  1
  C  1380  1  0.11890600  0.08310500  0.31342800  1
  C  1381  1  0.09548400  0.07852300  0.30362700  1
  C  1382  1  0.07742000  0.09672400  0.30371700  1
  C  1384  1  0.15262600  0.13493500  0.34001500  1
  C  1385  1  0.13460000  0.15314700  0.34003300  1
  C  1391  1  0.07803600  0.88138400  0.59396500  1
  C  1392  1  0.10281900  0.87510800  0.59003100  1
  C  1393  1  0.12112400  0.89353100  0.59005700  1
  C  1394  1  0.11466300  0.91824100  0.59402200  1
  C  1395  1  0.08996200  0.92418400  0.59846500  1
  C  1396  1  0.07190300  0.90601400  0.59843400  1
  C  1398  1  0.15120900  0.86345200  0.58009700  1
  C  1399  1  0.13315000  0.84528200  0.58006800  1
  C  1405  1  0.91303100  0.87662300  0.31379600  1
  C  1406  1  0.88933800  0.87121000  0.32264800  1
  C  1407  1  0.87085900  0.88944000  0.32262400  1
  C  1408  1  0.87598100  0.91319900  0.31379100  1
  C  1409  1  0.89936100  0.91804000  0.30401000  1
  C  1410  1  0.91761000  0.90002500  0.30400500  1
  C  1412  1  0.84287000  0.86086300  0.34020100  1
  C  1413  1  0.86112400  0.84288100  0.34024500  1
  C  1419  1  0.91751000  0.11482100  0.59403100  1
  C  1420  1  0.89273500  0.12111000  0.59004600  1
  C  1421  1  0.87441500  0.10269500  0.59006400  1
  C  1422  1  0.88086500  0.07798900  0.59408700  1
  C  1423  1  0.90555400  0.07203900  0.59860900  1
  C  1424  1  0.92362100  0.09020100  0.59859300  1
  C  1426  1  0.84436100  0.13276900  0.57998100  1
  C  1427  1  0.86243100  0.15093300  0.57995700  1
  C  1433  1  0.35655800  0.08035100  0.07080800  1
  C  1434  1  0.36359400  0.10431600  0.07735900  1
  C  1435  1  0.36402000  0.12309700  0.05945500  1
  C  1436  1  0.35719900  0.11798500  0.03504700  1
  C  1437  1  0.34942400  0.09417000  0.02895900  1
  C  1438  1  0.34934200  0.07553600  0.04655500  1
  C  1440  1  0.37857000  0.15117900  0.08955900  1
  C  1441  1  0.37834000  0.13258000  0.10717700  1
  C  1447  1  0.63791100  0.08090900  0.83215300  1
  C  1448  1  0.63113300  0.10534900  0.82713900  1
  C  1449  1  0.63159200  0.12315600  0.84599700  1
  C  1450  1  0.63861100  0.11647600  0.86994800  1
  C  1451  1  0.64576700  0.09218000  0.87466500  1
  C  1452  1  0.64562800  0.07467300  0.85595800  1
  C  1454  1  0.61691500  0.15314100  0.81783300  1
  C  1455  1  0.61665100  0.13561400  0.79916300  1
  C  1461  1  0.35710100  0.91561100  0.83402700  1
  C  1462  1  0.36392200  0.89163700  0.82726300  1
  C  1463  1  0.36438500  0.87272900  0.84503700  1
  C  1464  1  0.35781700  0.87770700  0.86954100  1
  C  1465  1  0.35028100  0.90155300  0.87583600  1
  C  1466  1  0.35013500  0.92030500  0.85836900  1
  C  1468  1  0.37847200  0.84474900  0.81461800  1
  C  1469  1  0.37822100  0.86347300  0.79713600  1
  C  1475  1  0.63809700  0.91524200  0.07212700  1
  C  1476  1  0.63139300  0.89079500  0.07723300  1
  C  1477  1  0.63186700  0.87290700  0.05844500  1
  C  1478  1  0.63886800  0.87948800  0.03447800  1
  C  1479  1  0.64600800  0.90376200  0.02967200  1
  C  1480  1  0.64585200  0.92134300  0.04830400  1
  C  1482  1  0.61725700  0.84301500  0.08670600  1
  C  1483  1  0.61699000  0.86060700  0.10531400  1
  C  1489  1  0.35680500  0.11465400  0.87177500  1
  C  1490  1  0.36341700  0.12156800  0.84780400  1
  C  1491  1  0.36353300  0.10396300  0.82875000  1
  C  1492  1  0.35697500  0.07940700  0.83359800  1
  C  1493  1  0.34972000  0.07298100  0.85751300  1
  C  1494  1  0.34982100  0.09031500  0.87640000  1
  C  1496  1  0.37721200  0.13466700  0.80083600  1
  C  1497  1  0.37729900  0.15196200  0.81972000  1
  C  1503  1  0.63757500  0.88012200  0.87085500  1
  C  1504  1  0.63095800  0.87522800  0.84632600  1
  C  1505  1  0.63116700  0.89423400  0.82866100  1
  C  1506  1  0.63796400  0.91817100  0.83550300  1
  C  1507  1  0.64505400  0.92282800  0.85980700  1
  C  1508  1  0.64500700  0.90399800  0.87721000  1
  C  1510  1  0.61712600  0.86614200  0.79835300  1
  C  1511  1  0.61711900  0.84730300  0.81571100  1
  C  1517  1  0.35805700  0.88181700  0.03245600  1
  C  1518  1  0.36435500  0.87482100  0.05650000  1
  C  1519  1  0.36444700  0.89242600  0.07554400  1
  C  1520  1  0.35812300  0.91702100  0.07059400  1
  C  1521  1  0.35118100  0.92354400  0.04661100  1
  C  1522  1  0.35133200  0.90621500  0.02773300  1
  C  1524  1  0.37763400  0.86163400  0.10361400  1
  C  1525  1  0.37774100  0.84432200  0.08474400  1
  C  1531  1  0.63826600  0.11726200  0.03333600  1
  C  1532  1  0.63174600  0.12201500  0.05791400  1
  C  1533  1  0.63171200  0.10284500  0.07539900  1
  C  1534  1  0.63808900  0.07885700  0.06832000  1
  C  1535  1  0.64503100  0.07432600  0.04395500  1
  C  1536  1  0.64531800  0.09333200  0.02674700  1
  C  1538  1  0.61802500  0.13084100  0.10595400  1
  C  1539  1  0.61825100  0.14983600  0.08877000  1
  C  1545  1  0.11891100  0.08175400  0.59134100  1
  C  1546  1  0.12444700  0.10603100  0.58435300  1
  C  1547  1  0.10588600  0.12419200  0.58416700  1
  C  1548  1  0.08164500  0.11821300  0.59096300  1
  C  1549  1  0.07657800  0.09420800  0.59890300  1
  C  1550  1  0.09491000  0.07626200  0.59905800  1
  C  1552  1  0.13510900  0.15363500  0.57043800  1
  C  1553  1  0.15342200  0.13571500  0.57061500  1
  C  1559  1  0.88296000  0.07604800  0.31093500  1
  C  1560  1  0.87689900  0.10024100  0.31761900  1
  C  1561  1  0.89517600  0.11864400  0.31767500  1
  C  1562  1  0.91945500  0.11279600  0.31104100  1
  C  1563  1  0.92524200  0.08866900  0.30412900  1
  C  1564  1  0.90717500  0.07047300  0.30408300  1
  C  1566  1  0.86582700  0.14747700  0.33230600  1
  C  1567  1  0.84777100  0.12929600  0.33225700  1
  C  1573  1  0.87791000  0.91387400  0.59080500  1
  C  1574  1  0.87200600  0.88964100  0.58398200  1
  C  1575  1  0.89024500  0.87115600  0.58415000  1
  C  1576  1  0.91453100  0.87675600  0.59114400  1
  C  1577  1  0.91994900  0.90074900  0.59887500  1
  C  1578  1  0.90193200  0.91901100  0.59871300  1
  C  1580  1  0.86061700  0.84211800  0.57040500  1
  C  1581  1  0.84262200  0.86035600  0.57024600  1
  C  1587  1  0.11283600  0.91963500  0.30990200  1
  C  1588  1  0.11872000  0.89560800  0.31732500  1
  C  1589  1  0.10044100  0.87720000  0.31735300  1
  C  1590  1  0.07633300  0.88286500  0.30994800  1
  C  1591  1  0.07074700  0.90681000  0.30224600  1
  C  1592  1  0.08882300  0.92501100  0.30220200  1
  C  1594  1  0.12946900  0.84867700  0.33322700  1
  C  1595  1  0.14752500  0.86686000  0.33320400  1
  C  1601  1  0.07767300  0.35777500  0.83544900  1
  C  1602  1  0.10168800  0.36442500  0.82867000  1
  C  1603  1  0.12064700  0.36464100  0.84640400  1
  C  1604  1  0.11564100  0.35814100  0.87093700  1
  C  1605  1  0.09169200  0.35084400  0.87724000  1
  C  1606  1  0.07289700  0.35085000  0.85977600  1
  C  1608  1  0.14875500  0.37827100  0.81585700  1
  C  1609  1  0.12996200  0.37826300  0.79842600  1
  C  1615  1  0.07880700  0.63754800  0.07082000  1
  C  1616  1  0.10342700  0.63118500  0.07569500  1
  C  1617  1  0.12100900  0.63134200  0.05662100  1
  C  1618  1  0.11396500  0.63774600  0.03262200  1
  C  1619  1  0.08954400  0.64451900  0.02797000  1
  C  1620  1  0.07223600  0.64460300  0.04688000  1
  C  1622  1  0.15158300  0.61781800  0.08474500  1
  C  1623  1  0.13429600  0.61786400  0.10364800  1
  C  1629  1  0.91691000  0.35767300  0.06832400  1
  C  1630  1  0.89285100  0.36390400  0.07536500  1
  C  1631  1  0.87370700  0.36387400  0.05782400  1
  C  1632  1  0.87855700  0.35749500  0.03323000  1
  C  1633  1  0.90256200  0.35061800  0.02666600  1
  C  1634  1  0.92153700  0.35088500  0.04393400  1
  C  1636  1  0.84572100  0.37709700  0.08866200  1
  C  1637  1  0.86468500  0.37732100  0.10590400  1
  C  1643  1  0.91627300  0.63857000  0.83342300  1
  C  1644  1  0.89172800  0.63182100  0.82866600  1
  C  1645  1  0.87416500  0.63188500  0.84777100  1
  C  1646  1  0.88110600  0.63866600  0.87168900  1
  C  1647  1  0.90541700  0.64587900  0.87621200  1
  C  1648  1  0.92271300  0.64601400  0.85727900  1
  C  1650  1  0.84375100  0.61769300  0.81982900  1
  C  1651  1  0.86100300  0.61782300  0.80089400  1
  N  991  1  0.96387200  0.47322200  0.20878000  1
  N  994  1  0.96395600  0.52259100  0.20885100  1
  N  1005  1  0.03113800  0.47381100  0.69549800  1
  N  1008  1  0.03138900  0.52317600  0.69611000  1
  N  1019  1  0.25396400  0.96414500  0.42703500  1
  N  1022  1  0.25386700  0.96387600  0.47640700  1
  N  1033  1  0.74129400  0.03218500  0.42764400  1
  N  1036  1  0.74164200  0.03210400  0.47701500  1
  N  1047  1  0.47281500  0.25447800  0.91865800  1
  N  1050  1  0.52223100  0.25418600  0.91838800  1
  N  1061  1  0.47369700  0.74136200  0.98599500  1
  N  1064  1  0.52311000  0.74171900  0.98589100  1
  N  1075  1  0.47269400  0.96493800  0.69602800  1
  N  1078  1  0.52210300  0.96525500  0.69533800  1
  N  1089  1  0.47303700  0.03175900  0.20861000  1
  N  1092  1  0.52245300  0.03174300  0.20854600  1
  N  1103  1  0.96348700  0.25453700  0.47713000  1
  N  1106  1  0.96345700  0.25480300  0.42775700  1
  N  1117  1  0.03261100  0.74173700  0.47651500  1
  N  1120  1  0.03225700  0.74157300  0.42714400  1
  N  1131  1  0.25389600  0.47277000  0.98607000  1
  N  1134  1  0.25435500  0.52213600  0.98610300  1
  N  1145  1  0.74131600  0.47354100  0.91879500  1
  N  1148  1  0.74110600  0.52290800  0.91915700  1
  N  1159  1  0.97512100  0.30009300  0.28888500  1
  N  1162  1  0.97516000  0.33496800  0.25403900  1
  N  1173  1  0.02305800  0.69762500  0.28776500  1
  N  1176  1  0.02386100  0.66273100  0.25295200  1
  N  1187  1  0.02429200  0.29807000  0.61677000  1
  N  1190  1  0.02326900  0.33333333  0.65120900  1
  N  1201  1  0.96708300  0.70059500  0.62011100  1
  N  1204  1  0.96696700  0.66586000  0.65514000  1
  N  1215  1  0.33288200  0.97223200  0.25269800  1
  N  1218  1  0.29807700  0.97314800  0.28762600  1
  N  1229  1  0.33013200  0.02916300  0.65539000  1
  N  1232  1  0.29545200  0.02924300  0.62026600  1
  N  1243  1  0.66079800  0.02014600  0.25379300  1
  N  1246  1  0.69570500  0.02010100  0.28864500  1
  N  1257  1  0.66260200  0.97209600  0.65154000  1
  N  1260  1  0.69778600  0.97093000  0.61701100  1
  N  1271  1  0.29793800  0.33345300  0.92610100  1
  N  1274  1  0.33306300  0.29881500  0.92695700  1
  N  1285  1  0.70017600  0.33043800  0.98264300  1
  N  1288  1  0.66528200  0.29555700  0.98265900  1
  N  1299  1  0.29980400  0.66120700  0.97490600  1
  N  1302  1  0.33464900  0.69608000  0.97489000  1
  N  1313  1  0.69717500  0.66279000  0.92663600  1
  N  1316  1  0.66264100  0.69801100  0.92569400  1
  N  1327  1  0.11209300  0.37159700  0.10021000  1
  N  1330  1  0.14596600  0.37106100  0.06433700  1
  N  1341  1  0.88580000  0.62441900  0.10054700  1
  N  1344  1  0.85007400  0.62391000  0.06647000  1
  N  1355  1  0.88319000  0.37220700  0.80430800  1
  N  1358  1  0.84940600  0.37155500  0.84025900  1
  N  1369  1  0.10964600  0.62468200  0.80416600  1
  N  1372  1  0.14566800  0.62405500  0.83791800  1
  N  1383  1  0.14681200  0.11255300  0.33123700  1
  N  1386  1  0.11211100  0.14760100  0.33129000  1
  N  1397  1  0.14451900  0.88678100  0.58490400  1
  N  1400  1  0.10974500  0.85179100  0.58485300  1
  N  1411  1  0.84841600  0.88333400  0.33146700  1
  N  1414  1  0.88354400  0.84871600  0.33153400  1
  N  1425  1  0.85102800  0.10943900  0.58485100  1
  N  1428  1  0.88583000  0.14442500  0.58480900  1
  N  1439  1  0.37152300  0.14574100  0.06647000  1
  N  1442  1  0.37098600  0.10994400  0.10042700  1
  N  1453  1  0.62424900  0.14626400  0.84044800  1
  N  1456  1  0.62365000  0.11248600  0.80451500  1
  N  1467  1  0.37165800  0.85007800  0.83779500  1
  N  1470  1  0.37107900  0.88611300  0.80410200  1
  N  1481  1  0.62456600  0.84981100  0.06406800  1
  N  1484  1  0.62394900  0.88372100  0.09988000  1
  N  1495  1  0.37043500  0.11145200  0.80606200  1
  N  1498  1  0.37048200  0.14478800  0.84239000  1
  N  1509  1  0.62407100  0.88879700  0.80545400  1
  N  1512  1  0.62393200  0.85255400  0.83891400  1
  N  1523  1  0.37108900  0.88490400  0.09830800  1
  N  1526  1  0.37118800  0.85154500  0.06200000  1
  N  1537  1  0.62467500  0.10816200  0.09864700  1
  N  1540  1  0.62500000  0.14471000  0.06552800  1
  N  1551  1  0.11217400  0.14721600  0.57717100  1
  N  1554  1  0.14741700  0.11273100  0.57751400  1
  N  1565  1  0.88876000  0.14147500  0.32515900  1
  N  1568  1  0.85397800  0.10645200  0.32505800  1
  N  1579  1  0.88360600  0.84819000  0.57730400  1
  N  1582  1  0.84897700  0.88328800  0.57699200  1
  N  1593  1  0.10669300  0.85452400  0.32544100  1
  N  1596  1  0.14147900  0.88955400  0.32539400  1
  N  1607  1  0.14339200  0.37156300  0.83906000  1
  N  1610  1  0.10723700  0.37142300  0.80546200  1
  N  1621  1  0.14431400  0.62447000  0.06204500  1
  N  1624  1  0.11099900  0.62444400  0.09841500  1
  N  1635  1  0.85094300  0.37048400  0.06540300  1
  N  1638  1  0.88743300  0.37080700  0.09863000  1
  N  1649  1  0.85095400  0.62464800  0.84245400  1
  N  1652  1  0.88420900  0.62478000  0.80602600  1
