# generated using pymatgen
data_H22C39N10
_symmetry_space_group_name_H-M   'P 1'
_cell_length_a   82.04890000
_cell_length_b   82.04890000
_cell_length_c   82.04890000
_cell_angle_alpha   90.00000000
_cell_angle_beta   90.00000000
_cell_angle_gamma   90.00000000
_symmetry_Int_Tables_number   1
_chemical_formula_structural   H22C39N10
_chemical_formula_sum   'H1056 C1872 N480'
_cell_volume   552354.99915459
_cell_formula_units_Z   48
loop_
 _symmetry_equiv_pos_site_id
 _symmetry_equiv_pos_as_xyz
  1  'x, y, z'
loop_
 _atom_site_type_symbol
 _atom_site_label
 _atom_site_symmetry_multiplicity
 _atom_site_fract_x
 _atom_site_fract_y
 _atom_site_fract_z
 _atom_site_occupancy
  H  26  1  0.09728700  0.35774900  0.87894800  1
  H  27  1  0.12277400  0.35057300  0.89083400  1
  H  28  1  0.07323100  0.34446800  0.92230700  1
  H  29  1  0.09859200  0.33724500  0.93419100  1
  H  30  1  0.11666600  0.31115800  0.93874400  1
  H  31  1  0.11270100  0.28373500  0.93005500  1
  H  32  1  0.13261800  0.29550300  0.88422200  1
  H  33  1  0.13692200  0.32254700  0.89293200  1
  H  34  1  0.16065500  0.32462700  0.91929700  1
  H  35  1  0.18587700  0.33675000  0.91214500  1
  H  36  1  0.16233000  0.38184300  0.90528200  1
  H  37  1  0.13693100  0.36969100  0.91237600  1
  H  38  1  0.11950800  0.36522900  0.93851700  1
  H  39  1  0.14559200  0.32181800  0.94722300  1
  H  40  1  0.14982700  0.33002400  0.97476800  1
  H  45  1  0.12351300  0.37320900  0.96587200  1
  H  71  1  0.41254100  0.65211500  0.37894000  1
  H  72  1  0.38705100  0.65927200  0.39082700  1
  H  73  1  0.43657800  0.66530300  0.42233700  1
  H  74  1  0.41121100  0.67250600  0.43422300  1
  H  75  1  0.39317800  0.69862600  0.43871500  1
  H  76  1  0.39714500  0.72604300  0.43000600  1
  H  77  1  0.37711500  0.71425800  0.38422200  1
  H  78  1  0.37281700  0.68723100  0.39295600  1
  H  79  1  0.34911300  0.68510500  0.41933300  1
  H  80  1  0.32390900  0.67294600  0.41216500  1
  H  81  1  0.34754200  0.62791100  0.40522900  1
  H  82  1  0.37291700  0.64009800  0.41234000  1
  H  83  1  0.39025000  0.64453500  0.43851200  1
  H  84  1  0.36424500  0.68799000  0.44723700  1
  H  85  1  0.36002800  0.67979600  0.47479000  1
  H  90  1  0.38624900  0.63656100  0.46587100  1
  H  116  1  0.91257400  0.85756600  0.63084500  1
  H  117  1  0.88706700  0.85042300  0.61897900  1
  H  118  1  0.93654500  0.84450100  0.58737200  1
  H  119  1  0.91117000  0.83730800  0.57551500  1
  H  120  1  0.89320900  0.81114200  0.57109900  1
  H  121  1  0.89718300  0.78372800  0.57980800  1
  H  122  1  0.87705600  0.79548200  0.62555800  1
  H  123  1  0.87275400  0.82250700  0.61682300  1
  H  124  1  0.84910800  0.82465800  0.59035900  1
  H  125  1  0.82388900  0.83679400  0.59749400  1
  H  126  1  0.84750000  0.88181200  0.60461400  1
  H  127  1  0.87289300  0.86964500  0.59753200  1
  H  128  1  0.89014400  0.86525000  0.57128700  1
  H  129  1  0.86428100  0.82172400  0.56253000  1
  H  130  1  0.86002500  0.82992800  0.53499000  1
  H  135  1  0.88611800  0.87323700  0.54394000  1
  H  161  1  0.59719900  0.15220700  0.13079500  1
  H  162  1  0.62270700  0.15937800  0.11894300  1
  H  163  1  0.57324200  0.16521700  0.08729600  1
  H  164  1  0.59861600  0.17244600  0.07545600  1
  H  165  1  0.61655100  0.19863200  0.07106300  1
  H  166  1  0.61257400  0.22605100  0.07976100  1
  H  167  1  0.63270100  0.21432300  0.12551500  1
  H  168  1  0.63701000  0.18728800  0.11679500  1
  H  169  1  0.66065500  0.18516300  0.09033500  1
  H  170  1  0.68587900  0.17305300  0.09750000  1
  H  171  1  0.66230800  0.12801500  0.10463000  1
  H  172  1  0.63690200  0.14015500  0.09752500  1
  H  173  1  0.61966300  0.14452600  0.07126800  1
  H  174  1  0.64547200  0.18808800  0.06249400  1
  H  175  1  0.64970900  0.17989000  0.03494600  1
  H  180  1  0.62367300  0.13655000  0.04391300  1
  H  206  1  0.87903400  0.09729400  0.35774900  1
  H  207  1  0.89090800  0.12278800  0.35057400  1
  H  208  1  0.92239900  0.07325800  0.34444300  1
  H  209  1  0.93426700  0.09862400  0.33722000  1
  H  210  1  0.93882600  0.11671300  0.31113300  1
  H  211  1  0.93012700  0.11272200  0.28371500  1
  H  212  1  0.88426900  0.13257500  0.29550600  1
  H  213  1  0.89299100  0.13690300  0.32253700  1
  H  214  1  0.91930400  0.16068100  0.32459200  1
  H  215  1  0.91213100  0.18589800  0.33671000  1
  H  216  1  0.90535900  0.16236300  0.38182200  1
  H  217  1  0.91246600  0.13696700  0.36967100  1
  H  218  1  0.93858700  0.11953100  0.36521800  1
  H  219  1  0.94727200  0.14564700  0.32182400  1
  H  220  1  0.97481500  0.14989400  0.33003100  1
  H  225  1  0.96593800  0.12355100  0.37320100  1
  H  251  1  0.37903500  0.41262000  0.65216400  1
  H  252  1  0.39088300  0.38710700  0.65932200  1
  H  253  1  0.42246800  0.43658200  0.66538000  1
  H  254  1  0.43430300  0.41120200  0.67259200  1
  H  255  1  0.43877400  0.39315800  0.69871900  1
  H  256  1  0.43006800  0.39711600  0.72613800  1
  H  257  1  0.38424700  0.37718700  0.71432900  1
  H  258  1  0.39297800  0.37289600  0.68729900  1
  H  259  1  0.41938400  0.34916600  0.68521500  1
  H  260  1  0.41222900  0.32394600  0.67309700  1
  H  261  1  0.40528300  0.34750400  0.62802300  1
  H  262  1  0.41237600  0.37290300  0.64017600  1
  H  263  1  0.43855900  0.39023000  0.64460200  1
  H  264  1  0.44728700  0.36425000  0.68806400  1
  H  265  1  0.47482500  0.35998500  0.67984700  1
  H  270  1  0.46590000  0.38619300  0.63660600  1
  H  296  1  0.63078900  0.91258500  0.85771500  1
  H  297  1  0.61892200  0.88708600  0.85054400  1
  H  298  1  0.58741800  0.93660500  0.84440100  1
  H  299  1  0.57555700  0.91123400  0.83718100  1
  H  300  1  0.57101800  0.89313800  0.81109100  1
  H  301  1  0.57972100  0.89710400  0.78367100  1
  H  302  1  0.62557500  0.87725600  0.79548700  1
  H  303  1  0.61684800  0.87295200  0.82251900  1
  H  304  1  0.59052500  0.84917500  0.82457500  1
  H  305  1  0.59769200  0.82396400  0.83670500  1
  H  306  1  0.60447000  0.84751700  0.88180700  1
  H  307  1  0.59736800  0.87290900  0.86964500  1
  H  308  1  0.57124800  0.89031300  0.86518300  1
  H  309  1  0.56255900  0.86422500  0.82177100  1
  H  310  1  0.53500900  0.85998900  0.82997100  1
  H  315  1  0.54389400  0.88629600  0.87316100  1
  H  341  1  0.13076600  0.59725600  0.15221400  1
  H  342  1  0.11891200  0.62277000  0.15935700  1
  H  343  1  0.08729100  0.57330600  0.16530800  1
  H  344  1  0.07545100  0.59868500  0.17250900  1
  H  345  1  0.07101100  0.61666500  0.19866400  1
  H  346  1  0.07973100  0.61267300  0.22607600  1
  H  347  1  0.12550800  0.63272000  0.21429800  1
  H  348  1  0.11676600  0.63704200  0.18727700  1
  H  349  1  0.09035200  0.66073800  0.18516200  1
  H  350  1  0.09753400  0.68594800  0.17302700  1
  H  351  1  0.10457900  0.66233700  0.12799700  1
  H  352  1  0.09745200  0.63695300  0.14015900  1
  H  353  1  0.07121900  0.61967300  0.14454400  1
  H  354  1  0.06247800  0.64558800  0.18804600  1
  H  355  1  0.03493200  0.64983000  0.17984600  1
  H  360  1  0.04386600  0.62368400  0.13656700  1
  H  386  1  0.35754900  0.87896300  0.09725300  1
  H  387  1  0.35038500  0.89080700  0.12276700  1
  H  388  1  0.34455400  0.92247700  0.07331600  1
  H  389  1  0.33733200  0.93430900  0.09869400  1
  H  390  1  0.31113900  0.93868200  0.11662400  1
  H  391  1  0.28372000  0.92997200  0.11267000  1
  H  392  1  0.29547300  0.88424200  0.13284400  1
  H  393  1  0.32250300  0.89297400  0.13712600  1
  H  394  1  0.32465600  0.91946600  0.16074200  1
  H  395  1  0.33679100  0.91230900  0.18596000  1
  H  396  1  0.38178700  0.90509600  0.16233400  1
  H  397  1  0.36962700  0.91220300  0.13694200  1
  H  398  1  0.36526500  0.93848200  0.11974300  1
  H  399  1  0.32169000  0.94728000  0.14552100  1
  H  400  1  0.32989200  0.97482900  0.14974600  1
  H  405  1  0.37324600  0.96583600  0.12374300  1
  H  431  1  0.65209500  0.37902200  0.41257200  1
  H  432  1  0.65926700  0.39088400  0.38707300  1
  H  433  1  0.66541100  0.42239300  0.43658800  1
  H  434  1  0.67263200  0.43425100  0.41121700  1
  H  435  1  0.69872900  0.43877400  0.39312900  1
  H  436  1  0.72614400  0.43006100  0.39709100  1
  H  437  1  0.71430800  0.38422000  0.37722100  1
  H  438  1  0.68728300  0.39295700  0.37292500  1
  H  439  1  0.68523400  0.41930000  0.34915900  1
  H  440  1  0.67310700  0.41214300  0.32394300  1
  H  441  1  0.62800600  0.40534000  0.34749200  1
  H  442  1  0.64016700  0.41243000  0.37288900  1
  H  443  1  0.64462400  0.43855200  0.39028900  1
  H  444  1  0.68804600  0.44725500  0.36422200  1
  H  445  1  0.67984300  0.47480400  0.35999000  1
  H  450  1  0.63664200  0.46590500  0.38627500  1
  H  476  1  0.85752900  0.63081500  0.91260700  1
  H  477  1  0.85037800  0.61896800  0.88709200  1
  H  478  1  0.84460900  0.58727200  0.93652900  1
  H  479  1  0.83740000  0.57544000  0.91114900  1
  H  480  1  0.81119000  0.57109200  0.89326700  1
  H  481  1  0.78377800  0.57980200  0.89726600  1
  H  482  1  0.79548900  0.62551500  0.87703200  1
  H  483  1  0.82251200  0.61678100  0.87270900  1
  H  484  1  0.82469100  0.59027600  0.84910200  1
  H  485  1  0.83681900  0.59741900  0.82388100  1
  H  486  1  0.88181200  0.60467100  0.84750200  1
  H  487  1  0.86965200  0.59758000  0.87289700  1
  H  488  1  0.86530700  0.57127900  0.89006000  1
  H  489  1  0.82170800  0.56248400  0.86433300  1
  H  490  1  0.82990900  0.53494200  0.86008100  1
  H  495  1  0.87329200  0.54393100  0.88603600  1
  H  521  1  0.15241200  0.13085400  0.59721300  1
  H  522  1  0.15955400  0.11899700  0.62272600  1
  H  523  1  0.16510900  0.08723900  0.57330200  1
  H  524  1  0.17231400  0.07539600  0.59868000  1
  H  525  1  0.19858900  0.07114700  0.61646900  1
  H  526  1  0.22600300  0.07986400  0.61249200  1
  H  527  1  0.21433000  0.12548000  0.63296400  1
  H  528  1  0.18730500  0.11674300  0.63725900  1
  H  529  1  0.18504700  0.09015700  0.66075700  1
  H  530  1  0.17289200  0.09733300  0.68596500  1
  H  531  1  0.12799200  0.10483600  0.66224700  1
  H  532  1  0.14017000  0.09770600  0.63687000  1
  H  533  1  0.14445700  0.07131800  0.61983900  1
  H  534  1  0.18815000  0.06244000  0.64539000  1
  H  535  1  0.17995100  0.03488900  0.64960100  1
  H  540  1  0.13647500  0.04396100  0.62382800  1
  H  566  1  0.10727900  0.34725500  0.38036800  1
  H  567  1  0.10007700  0.37276600  0.36851300  1
  H  568  1  0.09430700  0.32328200  0.33687100  1
  H  569  1  0.08697700  0.34864200  0.32504800  1
  H  570  1  0.06075700  0.36665900  0.32054900  1
  H  571  1  0.03335200  0.36255500  0.32924500  1
  H  572  1  0.04506900  0.38238300  0.37513000  1
  H  573  1  0.07208600  0.38681900  0.36641400  1
  H  574  1  0.07411200  0.41063400  0.34029000  1
  H  575  1  0.08620200  0.43583700  0.34757700  1
  H  576  1  0.13140300  0.41237900  0.35400000  1
  H  577  1  0.11926600  0.38697200  0.34685400  1
  H  578  1  0.11481000  0.36958600  0.32077700  1
  H  579  1  0.07140000  0.39569700  0.31217100  1
  H  580  1  0.07961600  0.40004200  0.28464200  1
  H  585  1  0.12279400  0.37368800  0.29344700  1
  H  611  1  0.40271800  0.66259200  0.88038100  1
  H  612  1  0.40989200  0.63706700  0.86853800  1
  H  613  1  0.41542600  0.68648800  0.83676300  1
  H  614  1  0.42273100  0.66111800  0.82495900  1
  H  615  1  0.44902900  0.64324200  0.82061100  1
  H  616  1  0.47643200  0.64733200  0.82931700  1
  H  617  1  0.46476100  0.62722100  0.87508800  1
  H  618  1  0.43774800  0.62280800  0.86636300  1
  H  619  1  0.43561700  0.59912200  0.84007800  1
  H  620  1  0.42350800  0.57392100  0.84734000  1
  H  621  1  0.37840900  0.59746900  0.85413500  1
  H  622  1  0.39056500  0.62287000  0.84700400  1
  H  623  1  0.39494900  0.64005300  0.82080300  1
  H  624  1  0.43849300  0.61420700  0.81209100  1
  H  625  1  0.43026500  0.60986400  0.78456600  1
  H  630  1  0.38694900  0.63595000  0.79347900  1
  H  656  1  0.60724900  0.16259900  0.62943000  1
  H  657  1  0.60003900  0.13708700  0.64127500  1
  H  658  1  0.59429000  0.18656000  0.67293900  1
  H  659  1  0.58695300  0.16119700  0.68475300  1
  H  660  1  0.56071800  0.14318200  0.68922700  1
  H  661  1  0.53330900  0.14725900  0.68053000  1
  H  662  1  0.54504800  0.12742500  0.63465200  1
  H  663  1  0.57206500  0.12301800  0.64336900  1
  H  664  1  0.57408800  0.09920600  0.66951300  1
  H  665  1  0.58617700  0.07400600  0.66222600  1
  H  666  1  0.63137200  0.09747000  0.65576900  1
  H  667  1  0.61923300  0.12287700  0.66291700  1
  H  668  1  0.61478500  0.14022500  0.68899900  1
  H  669  1  0.57134500  0.11416700  0.69762700  1
  H  670  1  0.57956100  0.10983100  0.72516000  1
  H  675  1  0.62277000  0.13612300  0.71633000  1
  H  701  1  0.90265000  0.84720600  0.12943600  1
  H  702  1  0.90983300  0.87273000  0.14127800  1
  H  703  1  0.91540700  0.82329900  0.17303500  1
  H  704  1  0.92272300  0.84866800  0.18483600  1
  H  705  1  0.94901000  0.86656900  0.18923400  1
  H  706  1  0.97641200  0.86246000  0.18052800  1
  H  707  1  0.96473200  0.88248900  0.13472100  1
  H  708  1  0.93772100  0.88692200  0.14344400  1
  H  709  1  0.93563500  0.91065700  0.16966300  1
  H  710  1  0.92353600  0.93585800  0.16237800  1
  H  711  1  0.87840400  0.91233900  0.15569400  1
  H  712  1  0.89054700  0.88693800  0.16284800  1
  H  713  1  0.89493200  0.86969400  0.18902800  1
  H  714  1  0.93844800  0.89560900  0.19769100  1
  H  715  1  0.93023700  0.89995400  0.22521900  1
  H  720  1  0.88695000  0.87379500  0.21635900  1
  H  746  1  0.84725300  0.12935700  0.90245800  1
  H  747  1  0.87275000  0.14123200  0.90967400  1
  H  748  1  0.82323400  0.17281900  0.91546400  1
  H  749  1  0.84858300  0.18466300  0.92280500  1
  H  750  1  0.86661300  0.18919100  0.94901300  1
  H  751  1  0.86253900  0.18050800  0.97642800  1
  H  752  1  0.88236700  0.13462200  0.96471600  1
  H  753  1  0.88677500  0.14332300  0.93768700  1
  H  754  1  0.91057100  0.16947600  0.93567600  1
  H  755  1  0.93578400  0.16220300  0.92360400  1
  H  756  1  0.91236300  0.15576700  0.87838400  1
  H  757  1  0.88694300  0.16290200  0.89050200  1
  H  758  1  0.86951900  0.18896900  0.89497700  1
  H  759  1  0.89564000  0.19758100  0.93838300  1
  H  760  1  0.89998100  0.22511000  0.93016500  1
  H  765  1  0.87361500  0.21630000  0.88699400  1
  H  791  1  0.16253700  0.62939100  0.60728300  1
  H  792  1  0.13704400  0.64127000  0.60007400  1
  H  793  1  0.18656400  0.67284900  0.59427900  1
  H  794  1  0.16121500  0.68470000  0.58694800  1
  H  795  1  0.14317800  0.68922800  0.56073300  1
  H  796  1  0.14727100  0.68053300  0.53332600  1
  H  797  1  0.12745100  0.63464700  0.54505300  1
  H  798  1  0.12302500  0.64336200  0.57207000  1
  H  799  1  0.09920900  0.66947500  0.57408200  1
  H  800  1  0.07400500  0.66219800  0.58616900  1
  H  801  1  0.09744600  0.65582600  0.63138700  1
  H  802  1  0.12285600  0.66296200  0.61925200  1
  H  803  1  0.14027200  0.68900500  0.61477400  1
  H  804  1  0.11414000  0.69760600  0.57137200  1
  H  805  1  0.10980800  0.72514100  0.57958100  1
  H  810  1  0.13617500  0.71634000  0.62275200  1
  H  836  1  0.66260000  0.88047300  0.40275100  1
  H  837  1  0.63707900  0.86861600  0.40991300  1
  H  838  1  0.68649800  0.83681800  0.41532900  1
  H  839  1  0.66113000  0.82500000  0.42262100  1
  H  840  1  0.64332100  0.82069600  0.44895700  1
  H  841  1  0.64742400  0.82940200  0.47635600  1
  H  842  1  0.62715700  0.87511900  0.46473300  1
  H  843  1  0.62273600  0.86639300  0.43772200  1
  H  844  1  0.59911700  0.84007200  0.43553900  1
  H  845  1  0.57391800  0.84733100  0.42342000  1
  H  846  1  0.59750700  0.85425300  0.37836100  1
  H  847  1  0.62290100  0.84711900  0.39052600  1
  H  848  1  0.64001600  0.82086500  0.39488400  1
  H  849  1  0.61427000  0.81214300  0.43848500  1
  H  850  1  0.60992700  0.78461500  0.43027200  1
  H  855  1  0.63591500  0.79353700  0.38689600  1
  H  881  1  0.34719500  0.38042300  0.10703400  1
  H  882  1  0.37271800  0.36858400  0.09984200  1
  H  883  1  0.32331000  0.33675200  0.09449000  1
  H  884  1  0.34867500  0.32495000  0.08716100  1
  H  885  1  0.36647500  0.32065600  0.06081100  1
  H  886  1  0.36237900  0.32935000  0.03340400  1
  H  887  1  0.38261500  0.37508400  0.04501300  1
  H  888  1  0.38703500  0.36637200  0.07203200  1
  H  889  1  0.41066400  0.34005100  0.07418100  1
  H  890  1  0.43587200  0.34733200  0.08627100  1
  H  891  1  0.41232900  0.35427300  0.13135300  1
  H  892  1  0.38692100  0.34711900  0.11922000  1
  H  893  1  0.36980500  0.32085700  0.11488900  1
  H  894  1  0.39550700  0.31210700  0.07126100  1
  H  895  1  0.39983400  0.28457400  0.07947800  1
  H  900  1  0.37389100  0.29352500  0.12287700  1
  H  926  1  0.62939700  0.60737200  0.16254800  1
  H  927  1  0.64128800  0.60016300  0.13706000  1
  H  928  1  0.67281400  0.59428800  0.18660600  1
  H  929  1  0.68467600  0.58695300  0.16126100  1
  H  930  1  0.68927000  0.56076200  0.14316500  1
  H  931  1  0.68058300  0.53335200  0.14725200  1
  H  932  1  0.63465700  0.54509300  0.12753300  1
  H  933  1  0.64336400  0.57211400  0.12310800  1
  H  934  1  0.66944200  0.57410000  0.09925500  1
  H  935  1  0.66216300  0.58617900  0.07404800  1
  H  936  1  0.65588100  0.63142500  0.09745900  1
  H  937  1  0.66301800  0.61929700  0.12287300  1
  H  938  1  0.68902900  0.61479900  0.14037400  1
  H  939  1  0.69760100  0.57146300  0.11413100  1
  H  940  1  0.72512700  0.57968500  0.10978200  1
  H  945  1  0.71636000  0.62278700  0.13626900  1
  H  971  1  0.12939000  0.90269500  0.84721400  1
  H  972  1  0.14123800  0.90988200  0.87273500  1
  H  973  1  0.17300300  0.91539100  0.82330300  1
  H  974  1  0.18481200  0.92271000  0.84866800  1
  H  975  1  0.18917500  0.94901300  0.86653800  1
  H  976  1  0.18047700  0.97641800  0.86243900  1
  H  977  1  0.13470000  0.96476400  0.88255200  1
  H  978  1  0.14341900  0.93774900  0.88697400  1
  H  979  1  0.16970100  0.93562800  0.91066000  1
  H  980  1  0.16244100  0.92353500  0.93586800  1
  H  981  1  0.15564600  0.87842000  0.91234600  1
  H  982  1  0.16277500  0.89056200  0.88693800  1
  H  983  1  0.18897000  0.89493700  0.86974200  1
  H  984  1  0.19768800  0.93848700  0.89557500  1
  H  985  1  0.22521500  0.93026000  0.89991500  1
  H  990  1  0.21629500  0.88693600  0.87384100  1
  H  1016  1  0.38036300  0.10722500  0.34726500  1
  H  1017  1  0.36850300  0.10001700  0.37277000  1
  H  1018  1  0.33684700  0.09432300  0.32328900  1
  H  1019  1  0.32501800  0.08698700  0.34864500  1
  H  1020  1  0.32054100  0.06074100  0.36662900  1
  H  1021  1  0.32923300  0.03333400  0.36252800  1
  H  1022  1  0.37509800  0.04503300  0.38240900  1
  H  1023  1  0.36638600  0.07205100  0.38684300  1
  H  1024  1  0.34022800  0.07408300  0.41063600  1
  H  1025  1  0.34752100  0.08615900  0.43584100  1
  H  1026  1  0.35402700  0.13135300  0.41239200  1
  H  1027  1  0.34687400  0.11922900  0.38698000  1
  H  1028  1  0.32078300  0.11480300  0.36963700  1
  H  1029  1  0.31212500  0.07134500  0.39565400  1
  H  1030  1  0.28459400  0.07956900  0.39998600  1
  H  1035  1  0.29345300  0.12279600  0.37373300  1
  H  1061  1  0.88040100  0.40260000  0.66259200  1
  H  1062  1  0.86853200  0.40977600  0.63708000  1
  H  1063  1  0.83685700  0.41543900  0.68655200  1
  H  1064  1  0.82502400  0.42274300  0.66119100  1
  H  1065  1  0.82056800  0.44899900  0.64324500  1
  H  1066  1  0.82926500  0.47640500  0.64734500  1
  H  1067  1  0.87509500  0.46471800  0.62737400  1
  H  1068  1  0.86638000  0.43770200  0.62294600  1
  H  1069  1  0.84019400  0.43563200  0.59918900  1
  H  1070  1  0.84747300  0.42353300  0.57398700  1
  H  1071  1  0.85405900  0.37837700  0.59748800  1
  H  1072  1  0.84691200  0.39052100  0.62289100  1
  H  1073  1  0.82077400  0.39494100  0.64020600  1
  H  1074  1  0.81214300  0.43840700  0.61419600  1
  H  1075  1  0.78461400  0.43019600  0.60985100  1
  H  1080  1  0.79344000  0.38696200  0.63610500  1
  H  1106  1  0.91250800  0.65205900  0.13087000  1
  H  1107  1  0.88702100  0.65923500  0.11898300  1
  H  1108  1  0.93656200  0.66531300  0.08750000  1
  H  1109  1  0.91120200  0.67253700  0.07561700  1
  H  1110  1  0.89314400  0.69863300  0.07107600  1
  H  1111  1  0.89711100  0.72605700  0.07976400  1
  H  1112  1  0.87716900  0.71429700  0.12558900  1
  H  1113  1  0.87286400  0.68725400  0.11687900  1
  H  1114  1  0.84914000  0.68517100  0.09050600  1
  H  1115  1  0.82391600  0.67305100  0.09765700  1
  H  1116  1  0.84746100  0.62796100  0.10454400  1
  H  1117  1  0.87286300  0.64011000  0.09745000  1
  H  1118  1  0.89027000  0.64456300  0.07129600  1
  H  1119  1  0.86421400  0.68799100  0.06259100  1
  H  1120  1  0.85998100  0.67979100  0.03504400  1
  H  1125  1  0.88626700  0.63658900  0.04394100  1
  H  1151  1  0.59721300  0.35748100  0.63084100  1
  H  1152  1  0.62273100  0.35034600  0.61899100  1
  H  1153  1  0.57329700  0.34460900  0.58728000  1
  H  1154  1  0.59868100  0.33741700  0.57544100  1
  H  1155  1  0.61655600  0.31119300  0.57112000  1
  H  1156  1  0.61257100  0.28378200  0.57984500  1
  H  1157  1  0.63286100  0.29551300  0.62552800  1
  H  1158  1  0.63716800  0.32253100  0.61678200  1
  H  1159  1  0.66076000  0.32473600  0.59028500  1
  H  1160  1  0.68596200  0.33689400  0.59746600  1
  H  1161  1  0.66226400  0.38184100  0.60475400  1
  H  1162  1  0.63689300  0.36965500  0.59762500  1
  H  1163  1  0.61977900  0.36532600  0.57131300  1
  H  1164  1  0.64547500  0.32170800  0.56248800  1
  H  1165  1  0.64968700  0.32990200  0.53493500  1
  H  1170  1  0.62377800  0.37330500  0.54395500  1
  H  1196  1  0.09723200  0.15223600  0.37895500  1
  H  1197  1  0.12273900  0.15937800  0.39082100  1
  H  1198  1  0.07326200  0.16529800  0.42242900  1
  H  1199  1  0.09863800  0.17249200  0.43428400  1
  H  1200  1  0.11659700  0.19865800  0.43869900  1
  H  1201  1  0.11262200  0.22607300  0.42999100  1
  H  1202  1  0.13275300  0.21432000  0.38424300  1
  H  1203  1  0.13705600  0.18729400  0.39297700  1
  H  1204  1  0.16069900  0.18514200  0.41944300  1
  H  1205  1  0.18592000  0.17300700  0.41231000  1
  H  1206  1  0.16230900  0.12798800  0.40518600  1
  H  1207  1  0.13691600  0.14015500  0.41226500  1
  H  1208  1  0.11966600  0.14454900  0.43851200  1
  H  1209  1  0.14552400  0.18807800  0.44727000  1
  H  1210  1  0.14977900  0.17987300  0.47481100  1
  H  1215  1  0.12369000  0.13656400  0.46585900  1
  H  1241  1  0.41261000  0.85759700  0.87900500  1
  H  1242  1  0.38710100  0.85042600  0.89085400  1
  H  1243  1  0.43656300  0.84458300  0.92250500  1
  H  1244  1  0.41118900  0.83735300  0.93434200  1
  H  1245  1  0.39325300  0.81116800  0.93873300  1
  H  1246  1  0.39723000  0.78374900  0.93003300  1
  H  1247  1  0.37710700  0.79547800  0.88427800  1
  H  1248  1  0.37279700  0.82251300  0.89299900  1
  H  1249  1  0.34915000  0.82463800  0.91945700  1
  H  1250  1  0.32392600  0.83674700  0.91229300  1
  H  1251  1  0.34749900  0.88178800  0.90516900  1
  H  1252  1  0.37290300  0.86964600  0.91227300  1
  H  1253  1  0.39014200  0.86527300  0.93853100  1
  H  1254  1  0.36433000  0.82171100  0.94729900  1
  H  1255  1  0.36009100  0.82990600  0.97484700  1
  H  1260  1  0.38613100  0.87324600  0.96588500  1
  H  1286  1  0.13077300  0.91251000  0.65205900  1
  H  1287  1  0.11889900  0.88701600  0.65923300  1
  H  1288  1  0.08740500  0.93654400  0.66535200  1
  H  1289  1  0.07553600  0.91117900  0.67257600  1
  H  1290  1  0.07098200  0.89309400  0.69866800  1
  H  1291  1  0.07968200  0.89708700  0.72608400  1
  H  1292  1  0.12553500  0.87722300  0.71429500  1
  H  1293  1  0.11681200  0.87289300  0.68726500  1
  H  1294  1  0.09049500  0.84912100  0.68520700  1
  H  1295  1  0.09766800  0.82390400  0.67308800  1
  H  1296  1  0.10445200  0.84744200  0.62797800  1
  H  1297  1  0.09734500  0.87283800  0.64013100  1
  H  1298  1  0.07122000  0.89026700  0.64458000  1
  H  1299  1  0.06253200  0.86416200  0.68798000  1
  H  1300  1  0.03498900  0.85991500  0.67977300  1
  H  1305  1  0.04386900  0.88624600  0.63659700  1
  H  1331  1  0.63073400  0.59718900  0.35764700  1
  H  1332  1  0.61888200  0.62270200  0.35049500  1
  H  1333  1  0.58730000  0.57322500  0.34444000  1
  H  1334  1  0.57545900  0.59860500  0.33723400  1
  H  1335  1  0.57099100  0.61664600  0.31110500  1
  H  1336  1  0.57969700  0.61268700  0.28368600  1
  H  1337  1  0.62551600  0.63262200  0.29549300  1
  H  1338  1  0.61678500  0.63691300  0.32252200  1
  H  1339  1  0.59037400  0.66064200  0.32460900  1
  H  1340  1  0.59753600  0.68586100  0.33672200  1
  H  1341  1  0.60449300  0.66230300  0.38179600  1
  H  1342  1  0.59739300  0.63690400  0.36964500  1
  H  1343  1  0.57120500  0.61957900  0.36522300  1
  H  1344  1  0.56247100  0.64555700  0.32176100  1
  H  1345  1  0.53493500  0.64981900  0.32998000  1
  H  1350  1  0.54386400  0.62361500  0.37322300  1
  H  1376  1  0.37901900  0.09723200  0.15209800  1
  H  1377  1  0.39088500  0.12272800  0.15927700  1
  H  1378  1  0.42239500  0.07320800  0.16538900  1
  H  1379  1  0.43425700  0.09857600  0.17261700  1
  H  1380  1  0.43878600  0.11665900  0.19871700  1
  H  1381  1  0.43008100  0.11269000  0.22613600  1
  H  1382  1  0.38423800  0.13256200  0.21432500  1
  H  1383  1  0.39296600  0.13687000  0.18729300  1
  H  1384  1  0.41929900  0.16063600  0.18523200  1
  H  1385  1  0.41212900  0.18584900  0.17310400  1
  H  1386  1  0.40533000  0.16229200  0.12800500  1
  H  1387  1  0.41243300  0.13690000  0.14016800  1
  H  1388  1  0.43855800  0.11950800  0.14462200  1
  H  1389  1  0.44725700  0.14557300  0.18804600  1
  H  1390  1  0.47480700  0.14980700  0.17984500  1
  H  1395  1  0.46591200  0.12352300  0.13664400  1
  H  1421  1  0.87903000  0.41253900  0.85759600  1
  H  1422  1  0.89088500  0.38702500  0.85045400  1
  H  1423  1  0.92250400  0.43649200  0.84449800  1
  H  1424  1  0.93434400  0.41111200  0.83729800  1
  H  1425  1  0.93878900  0.39313100  0.81114800  1
  H  1426  1  0.93007500  0.39712400  0.78373600  1
  H  1427  1  0.88429400  0.37708100  0.79550900  1
  H  1428  1  0.89303100  0.37275800  0.82253000  1
  H  1429  1  0.91944200  0.34905900  0.82464600  1
  H  1430  1  0.91226100  0.32384800  0.83677900  1
  H  1431  1  0.90522300  0.34745600  0.88181200  1
  H  1432  1  0.91234800  0.37284100  0.86965100  1
  H  1433  1  0.93857800  0.39012600  0.86526600  1
  H  1434  1  0.94731900  0.36420400  0.82176900  1
  H  1435  1  0.97486400  0.35996500  0.82996900  1
  H  1440  1  0.96593000  0.38611600  0.87324400  1
  H  1466  1  0.65222100  0.13081100  0.91254300  1
  H  1467  1  0.65938500  0.11896600  0.88702800  1
  H  1468  1  0.66528800  0.08732400  0.93648900  1
  H  1469  1  0.67251000  0.07549000  0.91111000  1
  H  1470  1  0.69867700  0.07108300  0.89313700  1
  H  1471  1  0.72609600  0.07979400  0.89709000  1
  H  1472  1  0.71432300  0.12555000  0.87698900  1
  H  1473  1  0.68729300  0.11681800  0.87270800  1
  H  1474  1  0.68515500  0.09034900  0.84906100  1
  H  1475  1  0.67301900  0.09751300  0.82384500  1
  H  1476  1  0.62800900  0.10465900  0.84746500  1
  H  1477  1  0.64017100  0.09754800  0.87285500  1
  H  1478  1  0.64455100  0.07129800  0.89009300  1
  H  1479  1  0.68808700  0.06250300  0.86424900  1
  H  1480  1  0.67987500  0.03495600  0.86002600  1
  H  1485  1  0.63656100  0.04394700  0.88609200  1
  H  1511  1  0.35773100  0.63078000  0.59719500  1
  H  1512  1  0.35055100  0.61892700  0.62269800  1
  H  1513  1  0.34441500  0.58740100  0.57319200  1
  H  1514  1  0.33718600  0.57555400  0.59856600  1
  H  1515  1  0.31108400  0.57104200  0.61665200  1
  H  1516  1  0.28366900  0.57975700  0.61269100  1
  H  1517  1  0.29550700  0.62560100  0.63255200  1
  H  1518  1  0.32253300  0.61686300  0.63684800  1
  H  1519  1  0.32457600  0.59052200  0.66061800  1
  H  1520  1  0.33670200  0.59767900  0.68583500  1
  H  1521  1  0.38180700  0.60447500  0.66229100  1
  H  1522  1  0.36964700  0.59738500  0.63689300  1
  H  1523  1  0.36518800  0.57125700  0.61950100  1
  H  1524  1  0.32175800  0.56256800  0.64555900  1
  H  1525  1  0.32995300  0.53501800  0.64979800  1
  H  1530  1  0.37316200  0.54390300  0.62352200  1
  H  1556  1  0.15226500  0.37898400  0.09719300  1
  H  1557  1  0.15941300  0.39083200  0.12270900  1
  H  1558  1  0.16519400  0.42252400  0.07327000  1
  H  1559  1  0.17240000  0.43435700  0.09865000  1
  H  1560  1  0.19860700  0.43870900  0.11653700  1
  H  1561  1  0.22601900  0.43000100  0.11254000  1
  H  1562  1  0.21430800  0.38428400  0.13276400  1
  H  1563  1  0.18728200  0.39301700  0.13708700  1
  H  1564  1  0.18510700  0.41951800  0.16069700  1
  H  1565  1  0.17297900  0.41237600  0.18591800  1
  H  1566  1  0.12798500  0.40513300  0.16230000  1
  H  1567  1  0.14014300  0.41222300  0.13690400  1
  H  1568  1  0.14448900  0.43852000  0.11973600  1
  H  1569  1  0.18808500  0.44731300  0.14547200  1
  H  1570  1  0.17988300  0.47485500  0.14972500  1
  H  1575  1  0.13650500  0.46586900  0.12376200  1
  H  1601  1  0.85739100  0.87894900  0.41258700  1
  H  1602  1  0.85024600  0.89080700  0.38707500  1
  H  1603  1  0.84469800  0.92256600  0.43650000  1
  H  1604  1  0.83749100  0.93440900  0.41112300  1
  H  1605  1  0.81121100  0.93865700  0.39333300  1
  H  1606  1  0.78379900  0.92994100  0.39730900  1
  H  1607  1  0.79547100  0.88432500  0.37683500  1
  H  1608  1  0.82249500  0.89306300  0.37254000  1
  H  1609  1  0.82475500  0.91964900  0.34904400  1
  H  1610  1  0.83691000  0.91247400  0.32383600  1
  H  1611  1  0.88180800  0.90496700  0.34755600  1
  H  1612  1  0.86963200  0.91209600  0.37293100  1
  H  1613  1  0.86534600  0.93848400  0.38996100  1
  H  1614  1  0.82165200  0.94736600  0.36441400  1
  H  1615  1  0.82985000  0.97491600  0.36020500  1
  H  1620  1  0.87332800  0.96584100  0.38597400  1
  H  1646  1  0.90252700  0.66254800  0.62943600  1
  H  1647  1  0.90973000  0.63703900  0.64129200  1
  H  1648  1  0.91550100  0.68652400  0.67293200  1
  H  1649  1  0.92283000  0.66116400  0.68475600  1
  H  1650  1  0.94905100  0.64314500  0.68925700  1
  H  1651  1  0.97645600  0.64724900  0.68056100  1
  H  1652  1  0.96473800  0.62742400  0.63467500  1
  H  1653  1  0.93772100  0.62298700  0.64339100  1
  H  1654  1  0.93569700  0.59917200  0.66951500  1
  H  1655  1  0.92360800  0.57397000  0.66222800  1
  H  1656  1  0.87840600  0.59742600  0.65580500  1
  H  1657  1  0.89054200  0.62283400  0.66295200  1
  H  1658  1  0.89499700  0.64022200  0.68902700  1
  H  1659  1  0.93840600  0.61410900  0.69763500  1
  H  1660  1  0.93018900  0.60976300  0.72516300  1
  H  1665  1  0.88701300  0.63611700  0.71635800  1
  H  1691  1  0.60708900  0.34721300  0.12940800  1
  H  1692  1  0.59991400  0.37273800  0.14125000  1
  H  1693  1  0.59438500  0.32331600  0.17302600  1
  H  1694  1  0.58707700  0.34868600  0.18483000  1
  H  1695  1  0.56077700  0.36656300  0.18918100  1
  H  1696  1  0.53337300  0.36247300  0.18047800  1
  H  1697  1  0.54504200  0.38258200  0.13470400  1
  H  1698  1  0.57205500  0.38699500  0.14342800  1
  H  1699  1  0.57418700  0.41068100  0.16971100  1
  H  1700  1  0.58629300  0.43588300  0.16245100  1
  H  1701  1  0.63139600  0.41233800  0.15565500  1
  H  1702  1  0.61924100  0.38693600  0.16278500  1
  H  1703  1  0.61485800  0.36975300  0.18898400  1
  H  1704  1  0.57131200  0.39559500  0.19769700  1
  H  1705  1  0.57954000  0.39994000  0.22522200  1
  H  1710  1  0.62285900  0.37385600  0.21630800  1
  H  1736  1  0.40255400  0.84720200  0.38037900  1
  H  1737  1  0.40976400  0.87271500  0.36853300  1
  H  1738  1  0.41550000  0.82324200  0.33686600  1
  H  1739  1  0.42283700  0.84860500  0.32505100  1
  H  1740  1  0.44907700  0.86661400  0.32058100  1
  H  1741  1  0.47648700  0.86253800  0.32927800  1
  H  1742  1  0.46475000  0.88238400  0.37515100  1
  H  1743  1  0.43773400  0.88679100  0.36643400  1
  H  1744  1  0.43570600  0.91059600  0.34028600  1
  H  1745  1  0.42361700  0.93579700  0.34757300  1
  H  1746  1  0.37842600  0.91233000  0.35404100  1
  H  1747  1  0.39056300  0.88692400  0.34689400  1
  H  1748  1  0.39501000  0.86958200  0.32080900  1
  H  1749  1  0.43845700  0.89562700  0.31217700  1
  H  1750  1  0.43024200  0.89996100  0.28464200  1
  H  1755  1  0.38702500  0.87368300  0.29347500  1
  H  1781  1  0.10714800  0.16259300  0.88036800  1
  H  1782  1  0.09996500  0.13707100  0.86852500  1
  H  1783  1  0.09439300  0.18650200  0.83677100  1
  H  1784  1  0.08707600  0.16113400  0.82496800  1
  H  1785  1  0.06078900  0.14323400  0.82056900  1
  H  1786  1  0.03338700  0.14734300  0.82927400  1
  H  1787  1  0.04506600  0.12731100  0.87508100  1
  H  1788  1  0.07207700  0.12287700  0.86635700  1
  H  1789  1  0.07416400  0.09914500  0.84013700  1
  H  1790  1  0.08626200  0.07394300  0.84742200  1
  H  1791  1  0.13139500  0.09746200  0.85410800  1
  H  1792  1  0.11925200  0.12286300  0.84695400  1
  H  1793  1  0.11486600  0.14010900  0.82077500  1
  H  1794  1  0.07135100  0.11419400  0.81211100  1
  H  1795  1  0.07956300  0.10985000  0.78458100  1
  H  1800  1  0.12284900  0.13600800  0.79344400  1
  H  1826  1  0.16255100  0.88044600  0.10733000  1
  H  1827  1  0.13705100  0.86857500  0.10011500  1
  H  1828  1  0.18656200  0.83697200  0.09434600  1
  H  1829  1  0.16121100  0.82513100  0.08700600  1
  H  1830  1  0.14319500  0.82061800  0.06078900  1
  H  1831  1  0.14727200  0.82930200  0.03337600  1
  H  1832  1  0.12742400  0.87518100  0.04508200  1
  H  1833  1  0.12301400  0.86647900  0.07211000  1
  H  1834  1  0.09922500  0.84031900  0.07412700  1
  H  1835  1  0.07401100  0.84758600  0.08619900  1
  H  1836  1  0.09743400  0.85404300  0.13141400  1
  H  1837  1  0.12285600  0.84691200  0.11929500  1
  H  1838  1  0.14026200  0.82083600  0.11482600  1
  H  1839  1  0.11416600  0.81222400  0.07140600  1
  H  1840  1  0.10982500  0.78469400  0.07961900  1
  H  1845  1  0.13616600  0.79350300  0.12280500  1
  H  1871  1  0.84727200  0.38041600  0.40251200  1
  H  1872  1  0.87276400  0.36853400  0.40972300  1
  H  1873  1  0.82324000  0.33696100  0.41551900  1
  H  1874  1  0.84858900  0.32510900  0.42285300  1
  H  1875  1  0.86663000  0.32057500  0.44906900  1
  H  1876  1  0.86253800  0.32927000  0.47647600  1
  H  1877  1  0.88235300  0.37515700  0.46474600  1
  H  1878  1  0.88677900  0.36644300  0.43772900  1
  H  1879  1  0.91059500  0.34032900  0.43571900  1
  H  1880  1  0.93579900  0.34760600  0.42363300  1
  H  1881  1  0.91236100  0.35397400  0.37841300  1
  H  1882  1  0.88695000  0.34683800  0.39054800  1
  H  1883  1  0.86953200  0.32079900  0.39502700  1
  H  1884  1  0.89566500  0.31219800  0.43842600  1
  H  1885  1  0.89999600  0.28466300  0.43021700  1
  H  1890  1  0.87362800  0.29346400  0.38704700  1
  H  1916  1  0.34719900  0.12933400  0.60704800  1
  H  1917  1  0.37272000  0.14119000  0.59988600  1
  H  1918  1  0.32330100  0.17299000  0.59447400  1
  H  1919  1  0.34866900  0.18480800  0.58718200  1
  H  1920  1  0.36647700  0.18911000  0.56084700  1
  H  1921  1  0.36237200  0.18040500  0.53344800  1
  H  1922  1  0.38264300  0.13468900  0.54507000  1
  H  1923  1  0.38706600  0.14341600  0.57208000  1
  H  1924  1  0.41068300  0.16974000  0.57426500  1
  H  1925  1  0.43588300  0.16248100  0.58638500  1
  H  1926  1  0.41229300  0.15555200  0.63144100  1
  H  1927  1  0.38689900  0.16268500  0.61927600  1
  H  1928  1  0.36978400  0.18893900  0.61492100  1
  H  1929  1  0.39552600  0.19766800  0.57131900  1
  H  1930  1  0.39986600  0.22519500  0.57953300  1
  H  1935  1  0.37388300  0.21626700  0.62291000  1
  H  1961  1  0.66260100  0.62938300  0.90276900  1
  H  1962  1  0.63708000  0.64122300  0.90996700  1
  H  1963  1  0.68648800  0.67305200  0.91532000  1
  H  1964  1  0.66112400  0.68485400  0.92265200  1
  H  1965  1  0.64331900  0.68915000  0.94900300  1
  H  1966  1  0.64741400  0.68045700  0.97640900  1
  H  1967  1  0.62718100  0.63472300  0.96479800  1
  H  1968  1  0.62276300  0.64343200  0.93777900  1
  H  1969  1  0.59913300  0.66975200  0.93562800  1
  H  1970  1  0.57392600  0.66247100  0.92353600  1
  H  1971  1  0.59747300  0.65553600  0.87845400  1
  H  1972  1  0.62288000  0.66269000  0.89059100  1
  H  1973  1  0.63999900  0.68894800  0.89492400  1
  H  1974  1  0.61428700  0.69769900  0.93854700  1
  H  1975  1  0.60996300  0.72523100  0.93032900  1
  H  1980  1  0.63591500  0.71628000  0.88693600  1
  H  2006  1  0.38038300  0.40243400  0.84727400  1
  H  2007  1  0.36849400  0.40964600  0.87276300  1
  H  2008  1  0.33697200  0.41553800  0.82321700  1
  H  2009  1  0.32511200  0.42287600  0.84856100  1
  H  2010  1  0.32051600  0.44905700  0.86666000  1
  H  2011  1  0.32920500  0.47646600  0.86257000  1
  H  2012  1  0.37513400  0.46472100  0.88227900  1
  H  2013  1  0.36642500  0.43770100  0.88670600  1
  H  2014  1  0.34035300  0.43571800  0.91056800  1
  H  2015  1  0.34763400  0.42363600  0.93577300  1
  H  2016  1  0.35389900  0.37838900  0.91236100  1
  H  2017  1  0.34676000  0.39052000  0.88694700  1
  H  2018  1  0.32075500  0.39502200  0.86944000  1
  H  2019  1  0.31218600  0.43835000  0.89569900  1
  H  2020  1  0.28466100  0.43012600  0.90004900  1
  H  2025  1  0.29342600  0.38703300  0.87354500  1
  H  2051  1  0.88041400  0.10711100  0.16258600  1
  H  2052  1  0.86856600  0.09992600  0.13706600  1
  H  2053  1  0.83680500  0.09440500  0.18649700  1
  H  2054  1  0.82499600  0.08708700  0.16113300  1
  H  2055  1  0.82062800  0.06079000  0.14325800  1
  H  2056  1  0.82932300  0.03338500  0.14735600  1
  H  2057  1  0.87510500  0.04503800  0.12725600  1
  H  2058  1  0.86638800  0.07205400  0.12283400  1
  H  2059  1  0.84011300  0.07417400  0.09914200  1
  H  2060  1  0.84737300  0.08626800  0.07393400  1
  H  2061  1  0.85415300  0.13138500  0.09745400  1
  H  2062  1  0.84702300  0.11924300  0.12286200  1
  H  2063  1  0.82083300  0.11486300  0.14006500  1
  H  2064  1  0.81211900  0.07132100  0.11421900  1
  H  2065  1  0.78459300  0.07954800  0.10987700  1
  H  2070  1  0.79350700  0.12286500  0.13596500  1
  H  2096  1  0.62943200  0.90258500  0.66254400  1
  H  2097  1  0.64129000  0.90979400  0.63703700  1
  H  2098  1  0.67295900  0.91546300  0.68651400  1
  H  2099  1  0.68478400  0.92280000  0.66115700  1
  H  2100  1  0.68924800  0.94905600  0.64319100  1
  H  2101  1  0.68055400  0.97646300  0.64729300  1
  H  2102  1  0.63469800  0.96477000  0.62738800  1
  H  2103  1  0.64341000  0.93775200  0.62295300  1
  H  2104  1  0.66957500  0.93571700  0.59916800  1
  H  2105  1  0.66228300  0.92364200  0.57396100  1
  H  2106  1  0.65576000  0.87845100  0.59741300  1
  H  2107  1  0.66291200  0.89057400  0.62282500  1
  H  2108  1  0.68901500  0.89499400  0.64015100  1
  H  2109  1  0.69766700  0.93847100  0.61416100  1
  H  2110  1  0.72519900  0.93025500  0.60982800  1
  H  2115  1  0.71634700  0.88700900  0.63605300  1
  H  2141  1  0.12942000  0.60720000  0.34721300  1
  H  2142  1  0.14128900  0.60002600  0.37272400  1
  H  2143  1  0.17296500  0.59436400  0.32325200  1
  H  2144  1  0.18479800  0.58706100  0.34861300  1
  H  2145  1  0.18925400  0.56080300  0.36656100  1
  H  2146  1  0.18055500  0.53339800  0.36246000  1
  H  2147  1  0.13472500  0.54508700  0.38242900  1
  H  2148  1  0.14344100  0.57210200  0.38685800  1
  H  2149  1  0.16962600  0.57417100  0.41061500  1
  H  2150  1  0.16234500  0.58627100  0.43581600  1
  H  2151  1  0.15576100  0.63142700  0.41231500  1
  H  2152  1  0.16290900  0.61928200  0.38691300  1
  H  2153  1  0.18904900  0.61486100  0.36959900  1
  H  2154  1  0.19767800  0.57139700  0.39561000  1
  H  2155  1  0.22520600  0.57960900  0.39996000  1
  H  2160  1  0.21638100  0.62284200  0.37370400  1
  H  2167  1  0.15775400  0.35245500  0.04335800  1
  H  2171  1  0.14062200  0.38055700  0.98852700  1
  H  2173  1  0.15776000  0.37011700  0.06823100  1
  H  2180  1  0.35205200  0.65735900  0.54334100  1
  H  2184  1  0.36900700  0.62924300  0.48858100  1
  H  2186  1  0.35199300  0.63967800  0.56825000  1
  H  2193  1  0.85189200  0.85246600  0.46641900  1
  H  2197  1  0.86913100  0.88052700  0.52123900  1
  H  2199  1  0.85192900  0.87012500  0.44154900  1
  H  2206  1  0.65778500  0.15737200  0.96636200  1
  H  2210  1  0.64067000  0.12928000  0.02120700  1
  H  2212  1  0.65774700  0.13971100  0.94149100  1
  H  2219  1  0.04336400  0.15785300  0.35243600  1
  H  2223  1  0.98858400  0.14081400  0.38054900  1
  H  2225  1  0.06827600  0.15792500  0.37011200  1
  H  2232  1  0.54340300  0.35212700  0.65741100  1
  H  2236  1  0.48852300  0.36888100  0.62929300  1
  H  2238  1  0.56829500  0.35202500  0.63968400  1
  H  2245  1  0.46641600  0.85215000  0.85241000  1
  H  2249  1  0.52124200  0.86897200  0.88050600  1
  H  2251  1  0.44156500  0.85208700  0.87010600  1
  H  2258  1  0.96644000  0.65819800  0.15730100  1
  H  2262  1  0.02110700  0.64061900  0.12927000  1
  H  2264  1  0.94156400  0.65802500  0.13977800  1
  H  2271  1  0.35245100  0.04338400  0.15792000  1
  H  2275  1  0.38051200  0.98857800  0.14068200  1
  H  2277  1  0.37011100  0.06830000  0.15785100  1
  H  2284  1  0.65738700  0.54340300  0.35218100  1
  H  2288  1  0.62930000  0.48854500  0.36892600  1
  H  2290  1  0.63965400  0.56828700  0.35210500  1
  H  2297  1  0.85246300  0.46636000  0.85195800  1
  H  2301  1  0.88053700  0.52121400  0.86905000  1
  H  2303  1  0.87011900  0.44148600  0.85204000  1
  H  2310  1  0.15734800  0.96636200  0.65788000  1
  H  2314  1  0.12927500  0.02117400  0.64070900  1
  H  2316  1  0.13968600  0.94144500  0.65780800  1
  H  2323  1  0.10223800  0.40881100  0.21626300  1
  H  2327  1  0.13015200  0.39083200  0.27079800  1
  H  2329  1  0.12002200  0.40928200  0.19143100  1
  H  2336  1  0.40755800  0.60103400  0.71620700  1
  H  2340  1  0.37966100  0.61883600  0.77080300  1
  H  2342  1  0.38977600  0.60059900  0.69141900  1
  H  2349  1  0.60224700  0.10101900  0.79353100  1
  H  2353  1  0.63012400  0.11897400  0.73901700  1
  H  2355  1  0.62005500  0.10053000  0.81834100  1
  H  2362  1  0.90749800  0.90907000  0.29354700  1
  H  2366  1  0.87964400  0.89064200  0.23910500  1
  H  2368  1  0.88981800  0.90940500  0.31831900  1
  H  2375  1  0.90887500  0.29348000  0.90751000  1
  H  2379  1  0.89054500  0.23898300  0.87962300  1
  H  2381  1  0.90931400  0.31832000  0.88974400  1
  H  2388  1  0.10105800  0.79352800  0.60223600  1
  H  2392  1  0.11899400  0.73900200  0.63012300  1
  H  2394  1  0.10058600  0.81831000  0.62001900  1
  H  2401  1  0.60090500  0.71624100  0.40751400  1
  H  2405  1  0.61910200  0.77079300  0.37963200  1
  H  2407  1  0.60056800  0.69143300  0.38977500  1
  H  2414  1  0.40886400  0.21620900  0.10227500  1
  H  2418  1  0.39070200  0.27078000  0.13013500  1
  H  2420  1  0.40921600  0.19141500  0.12003400  1
  H  2427  1  0.79349200  0.60228700  0.10099400  1
  H  2431  1  0.73899500  0.63019100  0.11913300  1
  H  2433  1  0.81831900  0.62007400  0.10047600  1
  H  2440  1  0.29358800  0.90758100  0.90867700  1
  H  2444  1  0.23897100  0.87965500  0.89096600  1
  H  2446  1  0.31837600  0.88980100  0.90911400  1
  H  2453  1  0.21625400  0.10222700  0.40877500  1
  H  2457  1  0.27077500  0.13013700  0.39095200  1
  H  2459  1  0.19144000  0.12003600  0.40929900  1
  H  2466  1  0.71629500  0.40748400  0.60071300  1
  H  2470  1  0.77069700  0.37963000  0.61927000  1
  H  2472  1  0.69151500  0.38981300  0.60036600  1
  H  2479  1  0.85199200  0.65733000  0.96644300  1
  H  2483  1  0.86925900  0.62924300  0.02125900  1
  H  2485  1  0.85202600  0.63967700  0.94156700  1
  H  2492  1  0.65778500  0.35242200  0.46641100  1
  H  2496  1  0.64098400  0.38053000  0.52120100  1
  H  2498  1  0.65782600  0.37011100  0.44150900  1
  H  2505  1  0.15791400  0.15733700  0.54338100  1
  H  2509  1  0.14067600  0.12927400  0.48856100  1
  H  2511  1  0.15787700  0.13967800  0.56825100  1
  H  2518  1  0.35199900  0.85242200  0.04342900  1
  H  2522  1  0.36913600  0.88051500  0.98859200  1
  H  2524  1  0.35203400  0.87008100  0.06830000  1
  H  2531  1  0.96644200  0.85194900  0.65736400  1
  H  2535  1  0.02122300  0.86898300  0.62925300  1
  H  2537  1  0.94152900  0.85187700  0.63968800  1
  H  2544  1  0.46645600  0.65804800  0.35247200  1
  H  2548  1  0.52115300  0.64076300  0.38053900  1
  H  2550  1  0.44154900  0.65802400  0.37007300  1
  H  2557  1  0.54339700  0.15765400  0.15739500  1
  H  2561  1  0.48856600  0.14084700  0.12930500  1
  H  2563  1  0.56824500  0.15771700  0.13969600  1
  H  2570  1  0.04335500  0.35160100  0.85251100  1
  H  2574  1  0.98868900  0.36918200  0.88054300  1
  H  2576  1  0.06823300  0.35177700  0.87003400  1
  H  2583  1  0.65739700  0.96642300  0.85203700  1
  H  2587  1  0.62928800  0.02126000  0.86886500  1
  H  2589  1  0.63970400  0.94152000  0.85198700  1
  H  2596  1  0.35239200  0.46641600  0.65762900  1
  H  2600  1  0.38049500  0.52126100  0.64087400  1
  H  2602  1  0.37011700  0.44152600  0.65770300  1
  H  2609  1  0.15733200  0.54343600  0.15785000  1
  H  2613  1  0.12925700  0.48858600  0.14074700  1
  H  2615  1  0.13967500  0.56831000  0.15776900  1
  H  2622  1  0.85245600  0.04344300  0.35192400  1
  H  2626  1  0.88052700  0.98862900  0.36909200  1
  H  2628  1  0.87011800  0.06836000  0.35199700  1
  H  2635  1  0.90756300  0.60099300  0.79354200  1
  H  2639  1  0.87965200  0.61897200  0.73900300  1
  H  2641  1  0.88977600  0.60052000  0.81837200  1
  H  2648  1  0.60225200  0.40877900  0.29357600  1
  H  2652  1  0.63014500  0.39097300  0.23898200  1
  H  2654  1  0.62003300  0.40921600  0.31836400  1
  H  2661  1  0.40755900  0.90875300  0.21626500  1
  H  2665  1  0.37967600  0.89083500  0.27078900  1
  H  2667  1  0.38975200  0.90924000  0.19145500  1
  H  2674  1  0.10230200  0.10073200  0.71625500  1
  H  2678  1  0.13015700  0.11916100  0.77069800  1
  H  2680  1  0.11998400  0.10039700  0.69148300  1
  H  2687  1  0.10087100  0.71631300  0.10230800  1
  H  2691  1  0.11933400  0.77079400  0.13017400  1
  H  2693  1  0.10047400  0.69147100  0.12006600  1
  H  2700  1  0.90874000  0.21627500  0.40756600  1
  H  2704  1  0.89080700  0.27080300  0.37967500  1
  H  2706  1  0.90921800  0.19149400  0.38978100  1
  H  2713  1  0.40888300  0.29356900  0.60230100  1
  H  2717  1  0.39069800  0.23901100  0.63017400  1
  H  2719  1  0.40921500  0.31837600  0.62004400  1
  H  2726  1  0.60094100  0.79359800  0.90753500  1
  H  2730  1  0.61910800  0.73902800  0.87967600  1
  H  2732  1  0.60058800  0.81839300  0.88977600  1
  H  2739  1  0.21629700  0.40751800  0.90883300  1
  H  2743  1  0.27079500  0.37962400  0.89068500  1
  H  2745  1  0.19147100  0.38972900  0.90934800  1
  H  2752  1  0.71621900  0.10222300  0.10112000  1
  H  2756  1  0.77083400  0.13014900  0.11883900  1
  H  2758  1  0.69143000  0.12000100  0.10068300  1
  H  2765  1  0.79355900  0.90756400  0.60098100  1
  H  2769  1  0.73905100  0.87967700  0.61892700  1
  H  2771  1  0.81837400  0.88976200  0.60049300  1
  H  2778  1  0.29350800  0.60233000  0.40915700  1
  H  2782  1  0.23912800  0.63017800  0.39052400  1
  H  2784  1  0.31828300  0.62000700  0.40953600  1
  H  2791  1  0.66069300  0.85349500  0.54276700  1
  H  2795  1  0.62689300  0.87671800  0.49281800  1
  H  2797  1  0.66120100  0.87098800  0.56782000  1
  H  2804  1  0.84897300  0.15630200  0.04275100  1
  H  2808  1  0.88284900  0.13310600  0.99283000  1
  H  2810  1  0.84846700  0.13881000  0.06784700  1
  H  2817  1  0.34906400  0.35346100  0.96699500  1
  H  2821  1  0.38293800  0.37663200  0.01691200  1
  H  2823  1  0.34852100  0.37097300  0.94195700  1
  H  2830  1  0.16087800  0.65630900  0.46702600  1
  H  2834  1  0.12702500  0.63308000  0.51695600  1
  H  2836  1  0.16138400  0.63882300  0.44192700  1
  H  2843  1  0.54279300  0.66073400  0.85348500  1
  H  2847  1  0.49285100  0.62689800  0.87668200  1
  H  2849  1  0.56787500  0.66125700  0.87099500  1
  H  2856  1  0.04280500  0.84909700  0.15636200  1
  H  2860  1  0.99283700  0.88289300  0.13317500  1
  H  2862  1  0.06784700  0.84859000  0.13885300  1
  H  2869  1  0.96699800  0.34904800  0.35347000  1
  H  2873  1  0.01695000  0.38289100  0.37663000  1
  H  2875  1  0.94195300  0.34855200  0.37097400  1
  H  2882  1  0.46709000  0.16103000  0.65624900  1
  H  2886  1  0.51698100  0.12711200  0.63299700  1
  H  2888  1  0.44203500  0.16146500  0.63887600  1
  H  2895  1  0.85345300  0.54278600  0.66075400  1
  H  2899  1  0.87661000  0.49283200  0.62691500  1
  H  2901  1  0.87095300  0.56783500  0.66123900  1
  H  2908  1  0.15631700  0.04276800  0.84899500  1
  H  2912  1  0.13312900  0.99286100  0.88288800  1
  H  2914  1  0.13881100  0.06785400  0.84845900  1
  H  2921  1  0.35345000  0.96695600  0.34908000  1
  H  2925  1  0.37656000  0.01690000  0.38295900  1
  H  2927  1  0.37096300  0.94191900  0.34858600  1
  H  2934  1  0.65632600  0.46704100  0.16087600  1
  H  2938  1  0.63313400  0.51698600  0.12702300  1
  H  2940  1  0.63883600  0.44194300  0.16135300  1
  H  2947  1  0.60361300  0.90984700  0.71713100  1
  H  2951  1  0.62723200  0.87684600  0.76741700  1
  H  2953  1  0.62095100  0.90994400  0.69192200  1
  H  2960  1  0.90627900  0.10007500  0.21711400  1
  H  2964  1  0.88264600  0.13300500  0.26742700  1
  H  2966  1  0.88892400  0.09996700  0.19195500  1
  H  2973  1  0.10359600  0.59998600  0.29263000  1
  H  2977  1  0.12726700  0.63293400  0.24233100  1
  H  2979  1  0.12094700  0.59985600  0.31783500  1
  H  2986  1  0.40610100  0.41008700  0.79257500  1
  H  2990  1  0.38247800  0.37694800  0.74235500  1
  H  2992  1  0.38892800  0.41004500  0.81776600  1
  H  2999  1  0.40979600  0.79259900  0.40619200  1
  H  3003  1  0.37690600  0.74229000  0.38245400  1
  H  3005  1  0.40990300  0.81782300  0.38886800  1
  H  3012  1  0.60010400  0.29269900  0.10352800  1
  H  3016  1  0.63303200  0.24239500  0.12716000  1
  H  3018  1  0.59995000  0.31788400  0.12092400  1
  H  3025  1  0.10008800  0.21712500  0.90623200  1
  H  3029  1  0.13306600  0.26741500  0.88262500  1
  H  3031  1  0.09997800  0.19196500  0.88887900  1
  H  3038  1  0.90978600  0.71714900  0.60360500  1
  H  3042  1  0.87688900  0.76745700  0.62733300  1
  H  3044  1  0.90989400  0.69192900  0.62093300  1
  H  3051  1  0.29259900  0.10359200  0.59998700  1
  H  3055  1  0.24232900  0.12733500  0.63292300  1
  H  3057  1  0.31780300  0.12093900  0.59979700  1
  H  3064  1  0.79256700  0.40610400  0.41008200  1
  H  3068  1  0.74232100  0.38240000  0.37703100  1
  H  3070  1  0.81781400  0.38890100  0.41006800  1
  H  3077  1  0.71714600  0.60356700  0.90975300  1
  H  3081  1  0.76743900  0.62721800  0.87680700  1
  H  3083  1  0.69198400  0.62091800  0.90987900  1
  H  3090  1  0.21726700  0.90610900  0.09979400  1
  H  3094  1  0.26748600  0.88236200  0.13285100  1
  H  3096  1  0.19206800  0.88894100  0.09978500  1
  H  3103  1  0.34910000  0.15630900  0.46703600  1
  H  3107  1  0.38290500  0.13309000  0.51698400  1
  H  3109  1  0.34859000  0.13881400  0.44198500  1
  H  3116  1  0.16082700  0.85350100  0.96705000  1
  H  3120  1  0.12695000  0.87669800  0.01696800  1
  H  3122  1  0.16133400  0.87099300  0.94195300  1
  H  3129  1  0.66072000  0.65635300  0.04282200  1
  H  3133  1  0.62686800  0.63316600  0.99289700  1
  H  3135  1  0.66126100  0.63884200  0.06786300  1
  H  3142  1  0.84893700  0.35349400  0.54277600  1
  H  3146  1  0.88278100  0.37672500  0.49284300  1
  H  3148  1  0.84843300  0.37098000  0.56787600  1
  H  3155  1  0.46701100  0.34907400  0.15631800  1
  H  3159  1  0.51695200  0.38290500  0.13311100  1
  H  3161  1  0.44192700  0.34855200  0.13881000  1
  H  3168  1  0.96699400  0.16070500  0.85344000  1
  H  3172  1  0.01696100  0.12691000  0.87662600  1
  H  3174  1  0.94195200  0.16121200  0.87094700  1
  H  3181  1  0.04281100  0.66075500  0.65633300  1
  H  3185  1  0.99285800  0.62691000  0.63317700  1
  H  3187  1  0.06785500  0.66125100  0.63882800  1
  H  3194  1  0.54270800  0.84877700  0.35355400  1
  H  3198  1  0.49281600  0.88269100  0.37680900  1
  H  3200  1  0.56776400  0.84834300  0.37092600  1
  H  3207  1  0.15636200  0.46701500  0.34905200  1
  H  3211  1  0.13320700  0.51697500  0.38288500  1
  H  3213  1  0.13885900  0.44196900  0.34856500  1
  H  3220  1  0.85348400  0.96703400  0.16080800  1
  H  3224  1  0.87667000  0.01693900  0.12690800  1
  H  3226  1  0.87098800  0.94194800  0.16134300  1
  H  3233  1  0.65634300  0.04284100  0.66073200  1
  H  3237  1  0.63323600  0.99290200  0.62684500  1
  H  3239  1  0.63883300  0.06788000  0.66122400  1
  H  3246  1  0.35347100  0.54276900  0.84892900  1
  H  3250  1  0.37666000  0.49282800  0.88278800  1
  H  3252  1  0.37096400  0.56786500  0.84844400  1
  H  3259  1  0.40619200  0.09996300  0.29268000  1
  H  3263  1  0.38257300  0.13295900  0.24239200  1
  H  3265  1  0.38885200  0.09986300  0.31788900  1
  H  3272  1  0.10352500  0.90972300  0.79268600  1
  H  3276  1  0.12716700  0.87680400  0.74237100  1
  H  3278  1  0.12088200  0.90983700  0.81784400  1
  H  3285  1  0.90622100  0.40981100  0.71717900  1
  H  3289  1  0.88254100  0.37686400  0.76747400  1
  H  3291  1  0.88887400  0.40994200  0.69197200  1
  H  3298  1  0.60367300  0.59972300  0.21724200  1
  H  3302  1  0.62728500  0.63286200  0.26746700  1
  H  3304  1  0.62085400  0.59976200  0.19205500  1
  H  3311  1  0.60004200  0.21719500  0.60360200  1
  H  3315  1  0.63289800  0.26750900  0.62737200  1
  H  3317  1  0.59990800  0.19197700  0.62093600  1
  H  3324  1  0.40970600  0.71710400  0.90626100  1
  H  3328  1  0.37677000  0.76740700  0.88263600  1
  H  3330  1  0.40985800  0.69191900  0.88886500  1
  H  3337  1  0.90971100  0.79267100  0.10357600  1
  H  3341  1  0.87673100  0.74238500  0.12718500  1
  H  3343  1  0.90982000  0.81783300  0.12092700  1
  H  3350  1  0.10002400  0.29265400  0.40619800  1
  H  3354  1  0.13291000  0.24234200  0.38246100  1
  H  3356  1  0.09991400  0.31787400  0.38886900  1
  H  3363  1  0.71720200  0.90621500  0.40981300  1
  H  3367  1  0.76747300  0.88246800  0.37688100  1
  H  3369  1  0.69199600  0.88886800  0.41000200  1
  H  3376  1  0.21724700  0.60371200  0.59970000  1
  H  3380  1  0.26749200  0.62741400  0.63275400  1
  H  3382  1  0.19199700  0.62091000  0.59972400  1
  H  3389  1  0.29265000  0.40623600  0.10004900  1
  H  3393  1  0.24235900  0.38258500  0.13299800  1
  H  3395  1  0.31781200  0.38888400  0.09992200  1
  H  3402  1  0.79254200  0.10368100  0.90999800  1
  H  3406  1  0.74231500  0.12742300  0.87694800  1
  H  3408  1  0.81773700  0.12085100  0.91000500  1
  C  1  1  0.13702600  0.35235800  0.97315400  1
  C  2  1  0.14300900  0.33733700  0.96730500  1
  C  3  1  0.14034300  0.33244800  0.95102800  1
  C  4  1  0.13106000  0.34200700  0.93995100  1
  C  5  1  0.12545400  0.35725800  0.94601600  1
  C  6  1  0.12804600  0.36219000  0.96222500  1
  C  7  1  0.12972500  0.33784400  0.92177900  1
  C  8  1  0.14561400  0.34547600  0.91553300  1
  C  9  1  0.14698800  0.36236600  0.91189500  1
  C  10  1  0.16204700  0.36967000  0.90792300  1
  C  11  1  0.17659100  0.36043300  0.90784200  1
  C  12  1  0.17555400  0.34375700  0.91175900  1
  C  13  1  0.16051500  0.33658800  0.91582800  1
  C  14  1  0.12839900  0.31975100  0.91728100  1
  C  15  1  0.11377500  0.34408600  0.91427200  1
  C  16  1  0.11258000  0.34969800  0.89792100  1
  C  17  1  0.09747500  0.35369600  0.89073000  1
  C  18  1  0.08276300  0.35193800  0.89952300  1
  C  19  1  0.08365600  0.34615300  0.91565400  1
  C  20  1  0.09873800  0.34200300  0.92267700  1
  C  21  1  0.12084900  0.30794700  0.92746900  1
  C  22  1  0.11827600  0.29174200  0.92228100  1
  C  23  1  0.12285600  0.28660000  0.90651700  1
  C  24  1  0.12978800  0.29836400  0.89600400  1
  C  25  1  0.13232500  0.31447700  0.90123800  1
  C  46  1  0.37278800  0.65744000  0.47316500  1
  C  47  1  0.36681500  0.67246500  0.46731700  1
  C  48  1  0.36948300  0.67735300  0.45104000  1
  C  49  1  0.37873800  0.66777500  0.43995400  1
  C  50  1  0.38432100  0.65251600  0.44601500  1
  C  51  1  0.38173700  0.64758800  0.46222700  1
  C  52  1  0.38007500  0.67193600  0.42178100  1
  C  53  1  0.36419000  0.66429400  0.41553500  1
  C  54  1  0.36284800  0.64740800  0.41186700  1
  C  55  1  0.34780200  0.64008200  0.40788600  1
  C  56  1  0.33323900  0.64928900  0.40782400  1
  C  57  1  0.33424300  0.66595700  0.41177800  1
  C  58  1  0.34927100  0.67314700  0.41585500  1
  C  59  1  0.38138000  0.69003100  0.41729100  1
  C  60  1  0.39603600  0.66570800  0.41428600  1
  C  61  1  0.39724000  0.66012200  0.39792500  1
  C  62  1  0.41234900  0.65613600  0.39073300  1
  C  63  1  0.42705800  0.65788200  0.39953400  1
  C  64  1  0.42615600  0.66364100  0.41567300  1
  C  65  1  0.41107000  0.66776900  0.42269900  1
  C  66  1  0.38897500  0.70183400  0.42744500  1
  C  67  1  0.39154900  0.71803400  0.42224500  1
  C  68  1  0.38695500  0.72316900  0.40648300  1
  C  69  1  0.37998100  0.71140600  0.39599700  1
  C  70  1  0.37744000  0.69529800  0.40124900  1
  C  91  1  0.87271900  0.85232200  0.53662900  1
  C  92  1  0.86680400  0.83726800  0.54246200  1
  C  93  1  0.86948900  0.83237800  0.55873500  1
  C  94  1  0.87871900  0.84197000  0.56983000  1
  C  95  1  0.88423700  0.85725800  0.56377900  1
  C  96  1  0.88164100  0.86219100  0.54757100  1
  C  97  1  0.88005900  0.83781500  0.58800200  1
  C  98  1  0.86418100  0.84545600  0.59425700  1
  C  99  1  0.86282300  0.86233500  0.59795700  1
  C  100  1  0.84776800  0.86965000  0.60192200  1
  C  101  1  0.83320800  0.86043900  0.60192800  1
  C  102  1  0.83422300  0.84378100  0.59793900  1
  C  103  1  0.84926000  0.83660600  0.59387500  1
  C  104  1  0.88137100  0.81972600  0.59250500  1
  C  105  1  0.89601600  0.84406100  0.59548600  1
  C  106  1  0.89724900  0.84958500  0.61186600  1
  C  107  1  0.91236500  0.85357300  0.61904300  1
  C  108  1  0.92705700  0.85186300  0.61020900  1
  C  109  1  0.92613300  0.84614600  0.59405800  1
  C  110  1  0.91104000  0.84201900  0.58704900  1
  C  111  1  0.88900200  0.80793200  0.58236600  1
  C  112  1  0.89157500  0.79173000  0.58756400  1
  C  113  1  0.88695000  0.78658600  0.60331300  1
  C  114  1  0.87994600  0.79834000  0.61378900  1
  C  115  1  0.87740300  0.81444700  0.60853700  1
  C  136  1  0.63705300  0.15747700  0.03659800  1
  C  137  1  0.64296500  0.17253300  0.04243100  1
  C  138  1  0.64028500  0.17742200  0.05870500  1
  C  139  1  0.63107900  0.16781100  0.06980200  1
  C  140  1  0.62556100  0.15252100  0.06375600  1
  C  141  1  0.62814900  0.14759700  0.04754500  1
  C  142  1  0.62972200  0.17197600  0.08797200  1
  C  143  1  0.64560700  0.16434500  0.09422600  1
  C  144  1  0.64696700  0.14747300  0.09795100  1
  C  145  1  0.66202800  0.14017400  0.10192500  1
  C  146  1  0.67658000  0.14939900  0.10193000  1
  C  147  1  0.67555300  0.16605200  0.09792200  1
  C  148  1  0.66051400  0.17321700  0.09385700  1
  C  149  1  0.62839000  0.19006500  0.09247700  1
  C  150  1  0.61376000  0.16573200  0.09544700  1
  C  151  1  0.61252900  0.16020100  0.11182500  1
  C  152  1  0.59741200  0.15620200  0.11899400  1
  C  153  1  0.58272500  0.15788900  0.11014700  1
  C  154  1  0.58365100  0.16360200  0.09399500  1
  C  155  1  0.59874300  0.16774100  0.08699200  1
  C  156  1  0.62077300  0.20185300  0.08232100  1
  C  157  1  0.61818800  0.21805200  0.08751900  1
  C  158  1  0.62282100  0.22320600  0.10326300  1
  C  159  1  0.62980900  0.21145300  0.11375000  1
  C  160  1  0.63237100  0.19534800  0.10850300  1
  C  181  1  0.97321100  0.13707700  0.35235700  1
  C  182  1  0.96735600  0.14306700  0.33734000  1
  C  183  1  0.95108200  0.14038900  0.33244900  1
  C  184  1  0.94000800  0.13109400  0.34200500  1
  C  185  1  0.94608000  0.12549000  0.35725200  1
  C  186  1  0.96228700  0.12808700  0.36218500  1
  C  187  1  0.92183900  0.12975400  0.33782700  1
  C  188  1  0.91558200  0.14564400  0.34544600  1
  C  189  1  0.91195900  0.14701800  0.36234100  1
  C  190  1  0.90797800  0.16207700  0.36964500  1
  C  191  1  0.90787100  0.17661500  0.36040200  1
  C  192  1  0.91177600  0.17557800  0.34372400  1
  C  193  1  0.91585400  0.16054200  0.33655800  1
  C  194  1  0.91735800  0.12842600  0.31973300  1
  C  195  1  0.91434600  0.11379900  0.34406700  1
  C  196  1  0.89799800  0.11259600  0.34968900  1
  C  197  1  0.89081400  0.09748700  0.35369000  1
  C  198  1  0.89961200  0.08278100  0.35191800  1
  C  199  1  0.91573800  0.08368000  0.34612400  1
  C  200  1  0.92275600  0.09876600  0.34198300  1
  C  201  1  0.92754100  0.12087600  0.30792600  1
  C  202  1  0.92234400  0.11827800  0.29172700  1
  C  203  1  0.90656900  0.12282800  0.28659400  1
  C  204  1  0.89605600  0.12975600  0.29835900  1
  C  205  1  0.90129900  0.13231000  0.31446700  1
  C  226  1  0.47320100  0.37273900  0.65748700  1
  C  227  1  0.46736000  0.36679200  0.67252600  1
  C  228  1  0.45108800  0.36948200  0.67742400  1
  C  229  1  0.44000400  0.37875100  0.66785800  1
  C  230  1  0.44606200  0.38430400  0.65258400  1
  C  231  1  0.46226500  0.38169800  0.64764300  1
  C  232  1  0.42183300  0.38009700  0.67201800  1
  C  233  1  0.41556800  0.36421800  0.66438600  1
  C  234  1  0.41191300  0.36284300  0.64749800  1
  C  235  1  0.40794100  0.34778500  0.64019300  1
  C  236  1  0.40787900  0.33324000  0.64942500  1
  C  237  1  0.41182300  0.33427100  0.66609400  1
  C  238  1  0.41589800  0.34931000  0.67325800  1
  C  239  1  0.41732600  0.38141500  0.69010700  1
  C  240  1  0.41435300  0.39605300  0.66576900  1
  C  241  1  0.39799000  0.39728900  0.66019300  1
  C  242  1  0.39082200  0.41240800  0.65620400  1
  C  243  1  0.39965100  0.42709800  0.65794900  1
  C  244  1  0.41578400  0.42617300  0.66371900  1
  C  245  1  0.42278200  0.41107700  0.66785100  1
  C  246  1  0.42749100  0.38898500  0.70191800  1
  C  247  1  0.42229300  0.39155100  0.71812200  1
  C  248  1  0.40652800  0.38696700  0.72325500  1
  C  249  1  0.39602700  0.38003800  0.71148100  1
  C  250  1  0.40127700  0.37750100  0.69537200  1
  C  271  1  0.53661800  0.87278900  0.85230500  1
  C  272  1  0.54247400  0.86679800  0.83729000  1
  C  273  1  0.55875000  0.86947200  0.83240100  1
  C  274  1  0.56982200  0.87876000  0.84196100  1
  C  275  1  0.56375200  0.88436700  0.85721000  1
  C  276  1  0.54754300  0.88177400  0.86213800  1
  C  277  1  0.58799300  0.88010700  0.83779800  1
  C  278  1  0.59424900  0.86422100  0.84542400  1
  C  279  1  0.59786800  0.86285100  0.86232000  1
  C  280  1  0.60184600  0.84779700  0.86963200  1
  C  281  1  0.60195200  0.83325400  0.86039400  1
  C  282  1  0.59804300  0.83428400  0.84371700  1
  C  283  1  0.59397900  0.84931900  0.83654200  1
  C  284  1  0.59248300  0.88142900  0.81970400  1
  C  285  1  0.59548000  0.89606700  0.84403600  1
  C  286  1  0.61182500  0.89727500  0.84966800  1
  C  287  1  0.61900800  0.91238700  0.85365800  1
  C  288  1  0.61020700  0.92709100  0.85188000  1
  C  289  1  0.59408400  0.92618600  0.84608000  1
  C  290  1  0.58706800  0.91109700  0.84194400  1
  C  291  1  0.58230900  0.88898600  0.80789400  1
  C  292  1  0.58750500  0.89155700  0.79169000  1
  C  293  1  0.60327600  0.88699200  0.78655900  1
  C  294  1  0.61378800  0.88008300  0.79833500  1
  C  295  1  0.60854200  0.87754100  0.81444500  1
  C  316  1  0.03656200  0.63711300  0.15746600  1
  C  317  1  0.04240400  0.64304700  0.17250900  1
  C  318  1  0.05868000  0.64037100  0.17739800  1
  C  319  1  0.06977100  0.63113600  0.16780600  1
  C  320  1  0.06371300  0.62559000  0.15253100  1
  C  321  1  0.04750300  0.62818000  0.14760300  1
  C  322  1  0.08793900  0.62978900  0.17198200  1
  C  323  1  0.09419800  0.64567100  0.16435200  1
  C  324  1  0.09790500  0.64701900  0.14747400  1
  C  325  1  0.10189000  0.66207000  0.14016000  1
  C  326  1  0.10192700  0.67662700  0.14937600  1
  C  327  1  0.09794000  0.67561600  0.16603500  1
  C  328  1  0.09385900  0.66058500  0.17321100  1
  C  329  1  0.09243200  0.62847000  0.19007400  1
  C  330  1  0.09542100  0.61383200  0.16573500  1
  C  331  1  0.11179800  0.61259100  0.16020300  1
  C  332  1  0.11896900  0.59747200  0.15622000  1
  C  333  1  0.11012700  0.58278500  0.15793100  1
  C  334  1  0.09397700  0.58371500  0.16365200  1
  C  335  1  0.08698000  0.59881000  0.16778700  1
  C  336  1  0.08228400  0.62085900  0.20187200  1
  C  337  1  0.08749300  0.61826600  0.21806800  1
  C  338  1  0.10325200  0.62286500  0.22320500  1
  C  339  1  0.11373300  0.62985400  0.21144600  1
  C  340  1  0.10847600  0.63240800  0.19534200  1
  C  361  1  0.35231200  0.97316600  0.13710100  1
  C  362  1  0.33724500  0.96734400  0.14299800  1
  C  363  1  0.33235900  0.95106500  0.14033500  1
  C  364  1  0.34197300  0.93996000  0.13114100  1
  C  365  1  0.35726700  0.94599900  0.12562900  1
  C  366  1  0.36219700  0.96220900  0.12821600  1
  C  367  1  0.33780800  0.92179100  0.12979100  1
  C  368  1  0.34545100  0.91554100  0.14567200  1
  C  369  1  0.36231900  0.91179400  0.14701500  1
  C  370  1  0.36963100  0.90781700  0.16206900  1
  C  371  1  0.36042500  0.90783600  0.17663200  1
  C  372  1  0.34377400  0.91186100  0.17562300  1
  C  373  1  0.33659800  0.91593100  0.16059000  1
  C  374  1  0.31971800  0.91728000  0.12847500  1
  C  375  1  0.34404600  0.91430900  0.11382900  1
  C  376  1  0.34956600  0.89792900  0.11259200  1
  C  377  1  0.35355800  0.89076500  0.09747200  1
  C  378  1  0.35188200  0.89962100  0.08278900  1
  C  379  1  0.34618300  0.91578000  0.08372300  1
  C  380  1  0.34203500  0.92277300  0.09881700  1
  C  381  1  0.30792600  0.92742000  0.12084400  1
  C  382  1  0.29172200  0.92222100  0.11828700  1
  C  383  1  0.28657400  0.90647800  0.12293300  1
  C  384  1  0.29833100  0.89600700  0.12994100  1
  C  385  1  0.31444100  0.90125700  0.13247300  1
  C  406  1  0.65750300  0.47318700  0.37277900  1
  C  407  1  0.67252300  0.46733600  0.36679400  1
  C  408  1  0.67741600  0.45106200  0.36947100  1
  C  409  1  0.66785100  0.43998400  0.37874700  1
  C  410  1  0.65259600  0.44604900  0.38434300  1
  C  411  1  0.64766600  0.46225700  0.38175300  1
  C  412  1  0.67201400  0.42181200  0.38009200  1
  C  413  1  0.66438700  0.41556100  0.36420400  1
  C  414  1  0.64749300  0.41193100  0.36283200  1
  C  415  1  0.64018300  0.40796400  0.34777600  1
  C  416  1  0.64942000  0.40787000  0.33323200  1
  C  417  1  0.66609700  0.41177500  0.33426500  1
  C  418  1  0.67326900  0.41584600  0.34930200  1
  C  419  1  0.69010700  0.41731700  0.38141300  1
  C  420  1  0.66577500  0.41432700  0.39605200  1
  C  421  1  0.66014300  0.39798200  0.39726100  1
  C  422  1  0.65614900  0.39080200  0.41237400  1
  C  423  1  0.65792700  0.39960600  0.42707700  1
  C  424  1  0.66372500  0.41573000  0.42616900  1
  C  425  1  0.66786600  0.42274100  0.41108100  1
  C  426  1  0.70192400  0.42748900  0.38896000  1
  C  427  1  0.71812400  0.42228500  0.39153400  1
  C  428  1  0.72324400  0.40650400  0.38698500  1
  C  429  1  0.71146700  0.39600400  0.38005900  1
  C  430  1  0.69536000  0.40125700  0.37751900  1
  C  451  1  0.85233900  0.53660000  0.87270500  1
  C  452  1  0.83726700  0.54242300  0.86683000  1
  C  453  1  0.83237900  0.55869900  0.86951300  1
  C  454  1  0.84199600  0.56980400  0.87870400  1
  C  455  1  0.85730400  0.56376300  0.88418000  1
  C  456  1  0.86223200  0.54755400  0.88158700  1
  C  457  1  0.83783800  0.58797400  0.88005500  1
  C  458  1  0.84547500  0.59423500  0.86417700  1
  C  459  1  0.86234400  0.59797900  0.86282500  1
  C  460  1  0.86965600  0.60194800  0.84776800  1
  C  461  1  0.86045000  0.60191800  0.83320400  1
  C  462  1  0.84380200  0.59788900  0.83421700  1
  C  463  1  0.83663000  0.59381900  0.84925500  1
  C  464  1  0.81974900  0.59247700  0.88137200  1
  C  465  1  0.84408800  0.59544700  0.89601300  1
  C  466  1  0.84957000  0.61184000  0.89726400  1
  C  467  1  0.85356300  0.61900400  0.91238500  1
  C  468  1  0.85190100  0.61014100  0.92706400  1
  C  469  1  0.84622000  0.59397900  0.92612600  1
  C  470  1  0.84208600  0.58698400  0.91102900  1
  C  471  1  0.80796800  0.58235000  0.88904200  1
  C  472  1  0.79176900  0.58754800  0.89162700  1
  C  473  1  0.78661500  0.60328700  0.88697600  1
  C  474  1  0.79835600  0.61375200  0.87993600  1
  C  475  1  0.81446100  0.60849900  0.87738100  1
  C  496  1  0.15746700  0.03659100  0.63707500  1
  C  497  1  0.17256100  0.04239800  0.64291800  1
  C  498  1  0.17745200  0.05867400  0.64025100  1
  C  499  1  0.16779900  0.06980200  0.63112900  1
  C  500  1  0.15247300  0.06378500  0.62568200  1
  C  501  1  0.14754700  0.04757100  0.62825500  1
  C  502  1  0.17196500  0.08797200  0.62977700  1
  C  503  1  0.16430700  0.09422000  0.64565200  1
  C  504  1  0.14745700  0.09805800  0.64696100  1
  C  505  1  0.14013400  0.10204600  0.66200500  1
  C  506  1  0.14930200  0.10194800  0.67659300  1
  C  507  1  0.16593200  0.09782400  0.67561600  1
  C  508  1  0.17312200  0.09375000  0.66058900  1
  C  509  1  0.19005500  0.09248100  0.62847300  1
  C  510  1  0.16573800  0.09544600  0.61380700  1
  C  511  1  0.16031400  0.11185800  0.61255800  1
  C  512  1  0.15633000  0.11902700  0.59743800  1
  C  513  1  0.15792900  0.11014600  0.58276200  1
  C  514  1  0.16353500  0.09395600  0.58370400  1
  C  515  1  0.16767200  0.08695700  0.59879900  1
  C  516  1  0.20182400  0.08237600  0.62075900  1
  C  517  1  0.21802000  0.08758600  0.61817500  1
  C  518  1  0.22318800  0.10329900  0.62289700  1
  C  519  1  0.21145300  0.11373800  0.62999000  1
  C  520  1  0.19535200  0.10847600  0.63255200  1
  C  541  1  0.10194700  0.38723100  0.28620500  1
  C  542  1  0.08692700  0.39319500  0.29208000  1
  C  543  1  0.08203000  0.39046000  0.30834500  1
  C  544  1  0.09158700  0.38113500  0.31939300  1
  C  545  1  0.10683900  0.37556000  0.31330200  1
  C  546  1  0.11177500  0.37821000  0.29710500  1
  C  547  1  0.08741000  0.37974600  0.33755900  1
  C  548  1  0.09501500  0.39562400  0.34385400  1
  C  549  1  0.11192200  0.39701200  0.34741800  1
  C  550  1  0.11921700  0.41206800  0.35141600  1
  C  551  1  0.10993800  0.42657900  0.35163200  1
  C  552  1  0.09323900  0.42552900  0.34783300  1
  C  553  1  0.08609200  0.41050300  0.34369100  1
  C  554  1  0.06931600  0.37836800  0.34203400  1
  C  555  1  0.09368500  0.36379800  0.34503200  1
  C  556  1  0.09924500  0.36258400  0.36140300  1
  C  557  1  0.10326000  0.34747300  0.36857400  1
  C  558  1  0.10159000  0.33278800  0.35972500  1
  C  559  1  0.09589600  0.33369600  0.34356600  1
  C  560  1  0.09169500  0.34877700  0.33657900  1
  C  561  1  0.05753600  0.37079000  0.33184200  1
  C  562  1  0.04134500  0.36812900  0.33703600  1
  C  563  1  0.03619300  0.37264200  0.35281500  1
  C  564  1  0.04793400  0.37959700  0.36333700  1
  C  565  1  0.06403400  0.38221200  0.35809700  1
  C  586  1  0.40786500  0.62254800  0.78618000  1
  C  587  1  0.42292700  0.61665800  0.79202400  1
  C  588  1  0.42783200  0.61939500  0.80828800  1
  C  589  1  0.41824200  0.62864800  0.81936500  1
  C  590  1  0.40294500  0.63413900  0.81330500  1
  C  591  1  0.39800300  0.63149300  0.79710900  1
  C  592  1  0.42240400  0.63003800  0.83753200  1
  C  593  1  0.41477600  0.61417400  0.84383000  1
  C  594  1  0.39788600  0.61280900  0.84748100  1
  C  595  1  0.39057800  0.59775800  0.85147300  1
  C  596  1  0.39982300  0.58322300  0.85158400  1
  C  597  1  0.41650200  0.58424600  0.84769000  1
  C  598  1  0.42365700  0.59927000  0.84355300  1
  C  599  1  0.44049500  0.63139300  0.84202800  1
  C  600  1  0.41612900  0.64598800  0.84500100  1
  C  601  1  0.41067500  0.64723600  0.86140400  1
  C  602  1  0.40667200  0.66235500  0.86856500  1
  C  603  1  0.40827100  0.67702200  0.85967400  1
  C  604  1  0.41389000  0.67608700  0.84349100  1
  C  605  1  0.41807100  0.66099700  0.83651300  1
  C  606  1  0.45226200  0.63904700  0.83187600  1
  C  607  1  0.46845400  0.64169400  0.83707500  1
  C  608  1  0.47362100  0.63709300  0.85282400  1
  C  609  1  0.46189000  0.63007200  0.86331200  1
  C  610  1  0.44579200  0.62746400  0.85806400  1
  C  631  1  0.60190800  0.12261100  0.72358300  1
  C  632  1  0.58688300  0.11665400  0.71771200  1
  C  633  1  0.58198400  0.11938800  0.70144800  1
  C  634  1  0.59154700  0.12869900  0.69039800  1
  C  635  1  0.60680700  0.13426600  0.69648000  1
  C  636  1  0.61174400  0.13161700  0.71267800  1
  C  637  1  0.58738000  0.13009800  0.67223000  1
  C  638  1  0.59498700  0.11422100  0.66593500  1
  C  639  1  0.61189400  0.11283400  0.66236600  1
  C  640  1  0.61918800  0.09777900  0.65836500  1
  C  641  1  0.60991100  0.08326600  0.65815800  1
  C  642  1  0.59321500  0.08431200  0.66197000  1
  C  643  1  0.58606500  0.09934000  0.66610200  1
  C  644  1  0.56928600  0.13147300  0.66774700  1
  C  645  1  0.59365600  0.14604800  0.66476100  1
  C  646  1  0.59922200  0.14726600  0.64839400  1
  C  647  1  0.60323300  0.16237800  0.64122500  1
  C  648  1  0.60156800  0.17706000  0.65008100  1
  C  649  1  0.59586900  0.17614700  0.66623700  1
  C  650  1  0.59166800  0.16106500  0.67322100  1
  C  651  1  0.55750200  0.13905100  0.67793400  1
  C  652  1  0.54130800  0.14169200  0.67273900  1
  C  653  1  0.53615600  0.13716700  0.65696200  1
  C  654  1  0.54790700  0.13022700  0.64644300  1
  C  655  1  0.56400900  0.12762500  0.65168300  1
  C  676  1  0.90785000  0.88724100  0.22363000  1
  C  677  1  0.92290000  0.89314800  0.21777000  1
  C  678  1  0.92779600  0.89040900  0.20150400  1
  C  679  1  0.91820100  0.88114500  0.19044000  1
  C  680  1  0.90292300  0.87562900  0.19651500  1
  C  681  1  0.89799000  0.87827500  0.21271500  1
  C  682  1  0.92237900  0.87974900  0.17227500  1
  C  683  1  0.91476900  0.89562300  0.16597900  1
  C  684  1  0.89787800  0.89699000  0.16233700  1
  C  685  1  0.89057800  0.91204300  0.15833900  1
  C  686  1  0.89983400  0.92657100  0.15819600  1
  C  687  1  0.91651700  0.92554000  0.16206900  1
  C  688  1  0.92367000  0.91051600  0.16620800  1
  C  689  1  0.94047300  0.87837600  0.16779400  1
  C  690  1  0.91609500  0.86380200  0.16480700  1
  C  691  1  0.91062300  0.86255800  0.14840900  1
  C  692  1  0.90661900  0.84744000  0.14124700  1
  C  693  1  0.90822300  0.83277200  0.15013500  1
  C  694  1  0.91384700  0.83370400  0.16631700  1
  C  695  1  0.91804700  0.84879200  0.17328900  1
  C  696  1  0.95224000  0.87073800  0.17795700  1
  C  697  1  0.96842900  0.86807800  0.17275800  1
  C  698  1  0.97359200  0.87264600  0.15699700  1
  C  699  1  0.96186200  0.87965800  0.14650200  1
  C  700  1  0.94576400  0.88227500  0.15174700  1
  C  721  1  0.88716500  0.22354400  0.90783600  1
  C  722  1  0.89313200  0.21767100  0.92285600  1
  C  723  1  0.89040500  0.20140600  0.92775300  1
  C  724  1  0.88107700  0.19036000  0.91819900  1
  C  725  1  0.87549100  0.19644600  0.90294900  1
  C  726  1  0.87814000  0.21264400  0.89801200  1
  C  727  1  0.87969400  0.17219000  0.92236500  1
  C  728  1  0.89557800  0.16590800  0.91475700  1
  C  729  1  0.89698000  0.16235200  0.89785000  1
  C  730  1  0.91204300  0.15836000  0.89056800  1
  C  731  1  0.92654800  0.15815000  0.89985900  1
  C  732  1  0.92548400  0.16195100  0.91655700  1
  C  733  1  0.91044900  0.16607400  0.92369600  1
  C  734  1  0.87830800  0.16769600  0.94045500  1
  C  735  1  0.86375700  0.16469800  0.91607700  1
  C  736  1  0.86256100  0.14833200  0.91050400  1
  C  737  1  0.84745800  0.14115000  0.90648400  1
  C  738  1  0.83276300  0.14998400  0.90815400  1
  C  739  1  0.83365500  0.16614000  0.91385900  1
  C  740  1  0.84872900  0.17313700  0.91807700  1
  C  741  1  0.87075400  0.17790400  0.95223800  1
  C  742  1  0.86811800  0.17271900  0.96843600  1
  C  743  1  0.87264200  0.15694300  0.97359300  1
  C  744  1  0.87957900  0.14641400  0.96184900  1
  C  745  1  0.88217500  0.15164300  0.94574200  1
  C  766  1  0.12262800  0.72357800  0.60190800  1
  C  767  1  0.11664700  0.71769900  0.58689500  1
  C  768  1  0.11938300  0.70143500  0.58199700  1
  C  769  1  0.12870900  0.69039100  0.59155300  1
  C  770  1  0.13429600  0.69648000  0.60680200  1
  C  771  1  0.13165300  0.71268000  0.61173400  1
  C  772  1  0.13009700  0.67222100  0.58739000  1
  C  773  1  0.11421300  0.66593500  0.59499400  1
  C  774  1  0.11281900  0.66239000  0.61190500  1
  C  775  1  0.09776100  0.65839900  0.61919800  1
  C  776  1  0.08325300  0.65816700  0.60991300  1
  C  777  1  0.08430900  0.66194800  0.59321000  1
  C  778  1  0.09933700  0.66608600  0.58606500  1
  C  779  1  0.13147500  0.66774200  0.56929600  1
  C  780  1  0.14603700  0.66473800  0.59367000  1
  C  781  1  0.14723200  0.64837300  0.59925100  1
  C  782  1  0.16233400  0.64118600  0.60326500  1
  C  783  1  0.17703200  0.65001500  0.60158500  1
  C  784  1  0.17614300  0.66617000  0.59587600  1
  C  785  1  0.16106700  0.67317300  0.59167300  1
  C  786  1  0.13905100  0.67793500  0.55751400  1
  C  787  1  0.14169400  0.67274500  0.54131900  1
  C  788  1  0.13718800  0.65696200  0.53617100  1
  C  789  1  0.13024100  0.64643900  0.54791500  1
  C  790  1  0.12763100  0.65167900  0.56401600  1
  C  811  1  0.62255900  0.78623400  0.40784200  1
  C  812  1  0.61670100  0.79207700  0.42291700  1
  C  813  1  0.61943700  0.80834100  0.42781200  1
  C  814  1  0.62865900  0.81942200  0.41819800  1
  C  815  1  0.63411700  0.81336500  0.40289000  1
  C  816  1  0.63147800  0.79716500  0.39795800  1
  C  817  1  0.63004900  0.83759100  0.42235400  1
  C  818  1  0.61418400  0.84388200  0.41472100  1
  C  819  1  0.61283300  0.84757000  0.39783800  1
  C  820  1  0.59778600  0.85156300  0.39052600  1
  C  821  1  0.58323800  0.85163600  0.39975300  1
  C  822  1  0.58424700  0.84769600  0.41642100  1
  C  823  1  0.59927100  0.84356800  0.42358600  1
  C  824  1  0.63140200  0.84208500  0.44044500  1
  C  825  1  0.64599900  0.84506000  0.41607900  1
  C  826  1  0.64724800  0.86147700  0.41066700  1
  C  827  1  0.66236500  0.86864400  0.40667000  1
  C  828  1  0.67703200  0.85974700  0.40823500  1
  C  829  1  0.67609700  0.84354800  0.41380700  1
  C  830  1  0.66100700  0.83656300  0.41798700  1
  C  831  1  0.63910900  0.83195300  0.45219600  1
  C  832  1  0.64175500  0.83715000  0.46838800  1
  C  833  1  0.63712400  0.85288500  0.47356500  1
  C  834  1  0.63004100  0.86335500  0.46185300  1
  C  835  1  0.62743000  0.85810500  0.44575500  1
  C  856  1  0.38723400  0.28621200  0.10192500  1
  C  857  1  0.39309400  0.29205000  0.08684800  1
  C  858  1  0.39036000  0.30831400  0.08194600  1
  C  859  1  0.38115700  0.31940000  0.09157200  1
  C  860  1  0.37569700  0.31335300  0.10688300  1
  C  861  1  0.37833200  0.29715200  0.11181500  1
  C  862  1  0.37975300  0.33756600  0.08740100  1
  C  863  1  0.39562400  0.34385700  0.09502200  1
  C  864  1  0.39698200  0.34757100  0.11189700  1
  C  865  1  0.41203600  0.35157000  0.11919200  1
  C  866  1  0.42657300  0.35163800  0.10994800  1
  C  867  1  0.42555000  0.34768700  0.09328200  1
  C  868  1  0.41052200  0.34355500  0.08613200  1
  C  869  1  0.37837800  0.34205900  0.06931100  1
  C  870  1  0.36379800  0.34502500  0.09367500  1
  C  871  1  0.36255200  0.36143800  0.09910100  1
  C  872  1  0.34743400  0.36859700  0.10311100  1
  C  873  1  0.33277200  0.35968800  0.10156600  1
  C  874  1  0.33371000  0.34348500  0.09600300  1
  C  875  1  0.34879600  0.33651400  0.09179600  1
  C  876  1  0.37069700  0.33190700  0.05756200  1
  C  877  1  0.36804200  0.33710300  0.04137100  1
  C  878  1  0.37267200  0.35283800  0.03618700  1
  C  879  1  0.37972800  0.36332100  0.04790200  1
  C  880  1  0.38235600  0.35807800  0.06399900  1
  C  901  1  0.72358300  0.60197900  0.12266000  1
  C  902  1  0.71769900  0.58697700  0.11665800  1
  C  903  1  0.70143500  0.58207600  0.11939600  1
  C  904  1  0.69039800  0.59160800  0.12875900  1
  C  905  1  0.69649800  0.60684100  0.13437400  1
  C  906  1  0.71269500  0.61178200  0.13172100  1
  C  907  1  0.67223100  0.58743100  0.13013300  1
  C  908  1  0.66594600  0.59502800  0.11424800  1
  C  909  1  0.66242700  0.61194400  0.11284200  1
  C  910  1  0.65843300  0.61923200  0.09778200  1
  C  911  1  0.65817700  0.60993600  0.08328100  1
  C  912  1  0.66193500  0.59322800  0.08434700  1
  C  913  1  0.66607000  0.58608800  0.09937800  1
  C  914  1  0.66775800  0.56933600  0.13151500  1
  C  915  1  0.66473700  0.59371200  0.14607100  1
  C  916  1  0.64837800  0.59931000  0.14725500  1
  C  917  1  0.64118500  0.60332900  0.16235300  1
  C  918  1  0.64999700  0.60162900  0.17705800  1
  C  919  1  0.66614400  0.59589700  0.17617900  1
  C  920  1  0.67315600  0.59169400  0.16110900  1
  C  921  1  0.67796500  0.55754800  0.13906200  1
  C  922  1  0.67277900  0.54135300  0.14170800  1
  C  923  1  0.65699000  0.53620500  0.13722200  1
  C  924  1  0.64645400  0.54795400  0.13030400  1
  C  925  1  0.65168800  0.56405800  0.12769600  1
  C  946  1  0.22359700  0.90785800  0.88723700  1
  C  947  1  0.21775400  0.92292100  0.89312400  1
  C  948  1  0.20149100  0.92782400  0.89038900  1
  C  949  1  0.19041200  0.91823300  0.88113900  1
  C  950  1  0.19646900  0.90293500  0.87565200  1
  C  951  1  0.21266600  0.89799100  0.87829600  1
  C  952  1  0.17224500  0.92239600  0.87975000  1
  C  953  1  0.16595000  0.91477800  0.89562000  1
  C  954  1  0.16229800  0.89788900  0.89699400  1
  C  955  1  0.15830700  0.89059000  0.91205000  1
  C  956  1  0.15819700  0.89984300  0.92657900  1
  C  957  1  0.16209100  0.91652100  0.92554700  1
  C  958  1  0.16622700  0.92366800  0.91051800  1
  C  959  1  0.16775200  0.94048700  0.87838600  1
  C  960  1  0.16477200  0.91611500  0.86380500  1
  C  961  1  0.14836900  0.91066100  0.86256300  1
  C  962  1  0.14120400  0.90665600  0.84744700  1
  C  963  1  0.15009300  0.90824300  0.83277800  1
  C  964  1  0.16627600  0.91386200  0.83370700  1
  C  965  1  0.17325800  0.91805100  0.84879400  1
  C  966  1  0.17790700  0.95224800  0.87072500  1
  C  967  1  0.17271400  0.96844200  0.86807900  1
  C  968  1  0.15696600  0.97361500  0.87268000  1
  C  969  1  0.14647500  0.96188900  0.87970200  1
  C  970  1  0.15171800  0.94579000  0.88231400  1
  C  991  1  0.28618400  0.10192500  0.38722300  1
  C  992  1  0.29204700  0.08689300  0.39317200  1
  C  993  1  0.30831100  0.08199000  0.39044000  1
  C  994  1  0.31936900  0.09155700  0.38114200  1
  C  995  1  0.31329600  0.10682200  0.37558500  1
  C  996  1  0.29709800  0.11176100  0.37822700  1
  C  997  1  0.33753700  0.08738400  0.37974800  1
  C  998  1  0.34383000  0.09498300  0.39562900  1
  C  999  1  0.34741500  0.11188500  0.39702100  1
  C  1000  1  0.35141900  0.11917200  0.41207900  1
  C  1001  1  0.35161500  0.10989100  0.42659000  1
  C  1002  1  0.34778500  0.09319900  0.42553800  1
  C  1003  1  0.34365000  0.08605800  0.41050600  1
  C  1004  1  0.34201300  0.06929000  0.37836700  1
  C  1005  1  0.34501300  0.09366300  0.36380100  1
  C  1006  1  0.36138700  0.09921300  0.36259000  1
  C  1007  1  0.36856300  0.10322300  0.34748200  1
  C  1008  1  0.35970900  0.10157400  0.33279500  1
  C  1009  1  0.34354600  0.09589200  0.33370200  1
  C  1010  1  0.33655400  0.09169200  0.34878100  1
  C  1011  1  0.33183000  0.05751700  0.37076400  1
  C  1012  1  0.33701900  0.04132400  0.36811300  1
  C  1013  1  0.35278700  0.03616200  0.37265500  1
  C  1014  1  0.36330900  0.04790200  0.37961100  1
  C  1015  1  0.35807100  0.06400300  0.38222500  1
  C  1036  1  0.78618600  0.40783600  0.62261200  1
  C  1037  1  0.79205600  0.42287100  0.61667600  1
  C  1038  1  0.80832100  0.42776600  0.61941500  1
  C  1039  1  0.81937600  0.41818800  0.62870700  1
  C  1040  1  0.81329200  0.40292400  0.63425200  1
  C  1041  1  0.79709200  0.39799200  0.63160600  1
  C  1042  1  0.83754300  0.42236300  0.63009400  1
  C  1043  1  0.84383200  0.41475400  0.61421700  1
  C  1044  1  0.84744200  0.39785500  0.61284200  1
  C  1045  1  0.85143600  0.39055500  0.59778900  1
  C  1046  1  0.85160600  0.39981800  0.58326600  1
  C  1047  1  0.84776300  0.41650800  0.58430200  1
  C  1048  1  0.84362900  0.42366100  0.59932800  1
  C  1049  1  0.84202100  0.44045700  0.63146600  1
  C  1050  1  0.84502400  0.41607900  0.64603400  1
  C  1051  1  0.86141400  0.41058200  0.64726000  1
  C  1052  1  0.86859300  0.40658200  0.66237100  1
  C  1053  1  0.85973100  0.40821500  0.67705200  1
  C  1054  1  0.84355600  0.41385800  0.67613800  1
  C  1055  1  0.83656600  0.41805200  0.66105600  1
  C  1056  1  0.83184800  0.45222800  0.63908500  1
  C  1057  1  0.83704200  0.46841800  0.64174200  1
  C  1058  1  0.85280700  0.47358000  0.63718600  1
  C  1059  1  0.86331200  0.46184800  0.63019300  1
  C  1060  1  0.85807100  0.44574800  0.62758100  1
  C  1081  1  0.87276700  0.65744800  0.03665900  1
  C  1082  1  0.86679300  0.67247300  0.04250800  1
  C  1083  1  0.86945700  0.67735800  0.05878600  1
  C  1084  1  0.87873200  0.66779100  0.06986300  1
  C  1085  1  0.88433000  0.65253800  0.06379700  1
  C  1086  1  0.88173800  0.64760800  0.04758800  1
  C  1087  1  0.88006900  0.67195400  0.08803500  1
  C  1088  1  0.86417900  0.66432300  0.09428000  1
  C  1089  1  0.86280500  0.64743500  0.09792500  1
  C  1090  1  0.84774500  0.64013300  0.10189700  1
  C  1091  1  0.83320100  0.64937000  0.10197200  1
  C  1092  1  0.83423900  0.66604400  0.09804800  1
  C  1093  1  0.84927900  0.67321100  0.09397800  1
  C  1094  1  0.88139900  0.69004600  0.09253300  1
  C  1095  1  0.89601900  0.66570800  0.09554000  1
  C  1096  1  0.89721500  0.66010400  0.11189400  1
  C  1097  1  0.91232100  0.65610500  0.11908500  1
  C  1098  1  0.92703100  0.65785700  0.11028800  1
  C  1099  1  0.92613700  0.66363400  0.09415500  1
  C  1100  1  0.91105600  0.66778400  0.08713200  1
  C  1101  1  0.88895700  0.70184700  0.08234900  1
  C  1102  1  0.89153100  0.71805100  0.08753700  1
  C  1103  1  0.88694300  0.72319600  0.10329700  1
  C  1104  1  0.88000300  0.71143600  0.11380800  1
  C  1105  1  0.87746700  0.69532100  0.10857400  1
  C  1126  1  0.63708500  0.35234500  0.53660900  1
  C  1127  1  0.64296800  0.33727200  0.54243000  1
  C  1128  1  0.64030000  0.33238400  0.55870800  1
  C  1129  1  0.63113700  0.34201600  0.56982200  1
  C  1130  1  0.62565000  0.35732100  0.56379100  1
  C  1131  1  0.62822800  0.36224600  0.54757700  1
  C  1132  1  0.62978100  0.33785000  0.58799200  1
  C  1133  1  0.64565800  0.34549600  0.59424800  1
  C  1134  1  0.64697500  0.36236000  0.59802900  1
  C  1135  1  0.66201800  0.36968800  0.60201800  1
  C  1136  1  0.67659800  0.36050700  0.60198100  1
  C  1137  1  0.67561400  0.34386200  0.59792300  1
  C  1138  1  0.66059200  0.33667200  0.59383500  1
  C  1139  1  0.62848000  0.31975600  0.59248600  1
  C  1140  1  0.61380800  0.34407400  0.59546300  1
  C  1141  1  0.61256200  0.34955700  0.61185600  1
  C  1142  1  0.59743800  0.35353100  0.61902500  1
  C  1143  1  0.58275900  0.35187400  0.61015900  1
  C  1144  1  0.58370100  0.34622000  0.59398600  1
  C  1145  1  0.59879900  0.34209200  0.58698900  1
  C  1146  1  0.62079500  0.30797500  0.58237500  1
  C  1147  1  0.61822200  0.29177500  0.58758000  1
  C  1148  1  0.62288500  0.28662700  0.60331700  1
  C  1149  1  0.62993800  0.29837200  0.61376800  1
  C  1150  1  0.63248900  0.31447600  0.60850800  1
  C  1171  1  0.13708800  0.15747900  0.47317200  1
  C  1172  1  0.14300100  0.17253400  0.46733800  1
  C  1173  1  0.14031600  0.17742300  0.45106400  1
  C  1174  1  0.13108800  0.16783000  0.43996900  1
  C  1175  1  0.12557100  0.15254200  0.44602100  1
  C  1176  1  0.12816700  0.14761000  0.46222800  1
  C  1177  1  0.12974800  0.17198500  0.42179900  1
  C  1178  1  0.14562700  0.16434500  0.41554400  1
  C  1179  1  0.14698600  0.14746700  0.41184200  1
  C  1180  1  0.16204100  0.14015100  0.40787900  1
  C  1181  1  0.17660200  0.14936100  0.40787500  1
  C  1182  1  0.17558400  0.16601900  0.41186400  1
  C  1183  1  0.16054800  0.17319400  0.41592600  1
  C  1184  1  0.12843700  0.19007400  0.41729400  1
  C  1185  1  0.11379200  0.16573900  0.41431300  1
  C  1186  1  0.11255800  0.16021700  0.39793300  1
  C  1187  1  0.09744200  0.15622900  0.39075600  1
  C  1188  1  0.08275000  0.15793800  0.39959100  1
  C  1189  1  0.08367400  0.16365500  0.41574200  1
  C  1190  1  0.09876800  0.16778200  0.42275000  1
  C  1191  1  0.12080500  0.20186900  0.42743300  1
  C  1192  1  0.11823200  0.21807000  0.42223500  1
  C  1193  1  0.12285600  0.22321400  0.40648600  1
  C  1194  1  0.12986200  0.21146200  0.39601000  1
  C  1195  1  0.13240600  0.19535400  0.40126300  1
  C  1216  1  0.37275000  0.85232000  0.97319800  1
  C  1217  1  0.36683600  0.83726500  0.96736400  1
  C  1218  1  0.36951800  0.83237700  0.95108900  1
  C  1219  1  0.37872500  0.84198700  0.93999300  1
  C  1220  1  0.38424300  0.85727700  0.94604100  1
  C  1221  1  0.38165400  0.86220100  0.96225200  1
  C  1222  1  0.38008300  0.83782500  0.92182400  1
  C  1223  1  0.36420000  0.84545600  0.91556900  1
  C  1224  1  0.36283900  0.86232900  0.91184500  1
  C  1225  1  0.34777800  0.86962800  0.90787200  1
  C  1226  1  0.33322700  0.86040300  0.90786500  1
  C  1227  1  0.33425300  0.84374900  0.91187100  1
  C  1228  1  0.34929300  0.83658400  0.91593700  1
  C  1229  1  0.38141500  0.81973600  0.91731800  1
  C  1230  1  0.39604600  0.84406900  0.91435000  1
  C  1231  1  0.39727900  0.84960200  0.89797300  1
  C  1232  1  0.41239700  0.85360100  0.89080600  1
  C  1233  1  0.42708300  0.85191400  0.89965400  1
  C  1234  1  0.42615600  0.84619800  0.91580500  1
  C  1235  1  0.41106200  0.84205900  0.92280600  1
  C  1236  1  0.38903100  0.80794800  0.92747400  1
  C  1237  1  0.39161800  0.79174700  0.92227600  1
  C  1238  1  0.38698500  0.78659600  0.90653100  1
  C  1239  1  0.37999800  0.79834800  0.89604300  1
  C  1240  1  0.37743600  0.81445300  0.90129200  1
  C  1261  1  0.03659300  0.87272600  0.65744500  1
  C  1262  1  0.04244700  0.86673800  0.67246300  1
  C  1263  1  0.05872300  0.86941600  0.67735300  1
  C  1264  1  0.06979700  0.87870900  0.66779700  1
  C  1265  1  0.06372600  0.88430900  0.65254900  1
  C  1266  1  0.04751900  0.88171200  0.64761400  1
  C  1267  1  0.08796500  0.88004900  0.67197400  1
  C  1268  1  0.09422200  0.86415900  0.66435400  1
  C  1269  1  0.09785000  0.86278400  0.64746000  1
  C  1270  1  0.10183000  0.84772800  0.64015500  1
  C  1271  1  0.10193300  0.83318900  0.64939700  1
  C  1272  1  0.09802500  0.83422500  0.66607400  1
  C  1273  1  0.09394700  0.84926000  0.67324100  1
  C  1274  1  0.09244800  0.88137600  0.69006900  1
  C  1275  1  0.09545800  0.89600400  0.66573400  1
  C  1276  1  0.11180800  0.89720800  0.66011600  1
  C  1277  1  0.11899200  0.91231600  0.65611400  1
  C  1278  1  0.11019300  0.92702200  0.65788300  1
  C  1279  1  0.09406600  0.92612200  0.66367400  1
  C  1280  1  0.08704800  0.91103700  0.66781500  1
  C  1281  1  0.08226700  0.88893200  0.70187300  1
  C  1282  1  0.08746100  0.89152000  0.71807400  1
  C  1283  1  0.10323600  0.88697200  0.72320700  1
  C  1284  1  0.11374800  0.88004200  0.71144300  1
  C  1285  1  0.10850400  0.87748800  0.69533400  1
  C  1306  1  0.53655900  0.63706800  0.35234100  1
  C  1307  1  0.54240000  0.64301500  0.33730300  1
  C  1308  1  0.55867200  0.64032600  0.33240300  1
  C  1309  1  0.56975800  0.63105700  0.34196700  1
  C  1310  1  0.56370100  0.62550600  0.35724200  1
  C  1311  1  0.54749700  0.62811100  0.36218400  1
  C  1312  1  0.58792900  0.62971100  0.33780500  1
  C  1313  1  0.59419500  0.64559000  0.34543700  1
  C  1314  1  0.59785300  0.64696400  0.36232300  1
  C  1315  1  0.60183000  0.66202200  0.36962700  1
  C  1316  1  0.60189100  0.67656700  0.36039400  1
  C  1317  1  0.59794200  0.67553500  0.34372700  1
  C  1318  1  0.59386300  0.66049900  0.33656400  1
  C  1319  1  0.59243600  0.62839200  0.31971500  1
  C  1320  1  0.59541100  0.61375500  0.34405300  1
  C  1321  1  0.61177600  0.61252000  0.34962400  1
  C  1322  1  0.61894600  0.59740100  0.35361100  1
  C  1323  1  0.61011800  0.58271000  0.35186600  1
  C  1324  1  0.59398400  0.58363500  0.34610100  1
  C  1325  1  0.58698200  0.59873100  0.34197300  1
  C  1326  1  0.58227000  0.62082600  0.30790300  1
  C  1327  1  0.58747000  0.61825500  0.29170000  1
  C  1328  1  0.60323500  0.62284000  0.28656700  1
  C  1329  1  0.61373500  0.62977100  0.29834200  1
  C  1330  1  0.60848500  0.63230800  0.31445000  1
  C  1351  1  0.47319200  0.13701800  0.15750500  1
  C  1352  1  0.46734000  0.14300400  0.17252400  1
  C  1353  1  0.45106400  0.14033000  0.17741400  1
  C  1354  1  0.43998900  0.13104900  0.16785000  1
  C  1355  1  0.44605600  0.12545000  0.15259800  1
  C  1356  1  0.46226600  0.12804000  0.14766900  1
  C  1357  1  0.42181800  0.12970300  0.17201300  1
  C  1358  1  0.41556300  0.14558900  0.16438600  1
  C  1359  1  0.41193900  0.14695800  0.14749100  1
  C  1360  1  0.40795900  0.16201200  0.14018100  1
  C  1361  1  0.40785900  0.17655600  0.14941700  1
  C  1362  1  0.41177400  0.17552600  0.16609200  1
  C  1363  1  0.41584000  0.16049100  0.17326900  1
  C  1364  1  0.41732700  0.12838000  0.19010600  1
  C  1365  1  0.41433000  0.11374500  0.16577300  1
  C  1366  1  0.39798200  0.11253900  0.16014800  1
  C  1367  1  0.39080000  0.09742800  0.15615200  1
  C  1368  1  0.39960300  0.08272400  0.15792200  1
  C  1369  1  0.41572800  0.08362700  0.16371700  1
  C  1370  1  0.42274300  0.09871400  0.16785700  1
  C  1371  1  0.42749800  0.12081700  0.20191500  1
  C  1372  1  0.42230100  0.11824300  0.21811800  1
  C  1373  1  0.40653200  0.12281500  0.22325000  1
  C  1374  1  0.39602200  0.12973200  0.21147500  1
  C  1375  1  0.40127100  0.13227400  0.19536500  1
  C  1396  1  0.97323400  0.37268500  0.85234800  1
  C  1397  1  0.96739300  0.36674800  0.83730400  1
  C  1398  1  0.95111700  0.36942500  0.83241500  1
  C  1399  1  0.94002600  0.37866100  0.84200700  1
  C  1400  1  0.94608500  0.38421100  0.85727800  1
  C  1401  1  0.96229300  0.38161900  0.86220800  1
  C  1402  1  0.92185800  0.38000800  0.83782900  1
  C  1403  1  0.91559900  0.36412600  0.84545800  1
  C  1404  1  0.91189300  0.36277500  0.86233600  1
  C  1405  1  0.90790900  0.34772400  0.86964900  1
  C  1406  1  0.90787200  0.33316700  0.86043300  1
  C  1407  1  0.91185600  0.33418000  0.84377300  1
  C  1408  1  0.91593700  0.34921100  0.83659600  1
  C  1409  1  0.91736800  0.38132800  0.81973600  1
  C  1410  1  0.91437600  0.39596500  0.84407400  1
  C  1411  1  0.89799900  0.39720500  0.84960800  1
  C  1412  1  0.89082700  0.41232500  0.85359000  1
  C  1413  1  0.89966900  0.42701100  0.85187700  1
  C  1414  1  0.91581700  0.42608300  0.84615500  1
  C  1415  1  0.92281600  0.41098700  0.84202100  1
  C  1416  1  0.92751900  0.38893300  0.80793800  1
  C  1417  1  0.92231100  0.39153100  0.79174300  1
  C  1418  1  0.90655200  0.38693300  0.78660400  1
  C  1419  1  0.89606900  0.37994700  0.79836200  1
  C  1420  1  0.90132400  0.37739100  0.81446700  1
  C  1441  1  0.65747600  0.03661600  0.87270700  1
  C  1442  1  0.67253400  0.04244000  0.86678900  1
  C  1443  1  0.67742700  0.05871800  0.86945000  1
  C  1444  1  0.66782900  0.06982100  0.87866200  1
  C  1445  1  0.65254100  0.06378100  0.88419600  1
  C  1446  1  0.64760700  0.04757400  0.88161000  1
  C  1447  1  0.67199700  0.08799200  0.88000900  1
  C  1448  1  0.66435300  0.09424300  0.86412900  1
  C  1449  1  0.64748000  0.09797000  0.86278400  1
  C  1450  1  0.64016700  0.10195000  0.84773100  1
  C  1451  1  0.64937600  0.10195000  0.83316900  1
  C  1452  1  0.66603000  0.09793600  0.83418000  1
  C  1453  1  0.67321000  0.09387100  0.84921300  1
  C  1454  1  0.69008600  0.09250100  0.88132500  1
  C  1455  1  0.66576200  0.09547600  0.89597200  1
  C  1456  1  0.66022000  0.11184900  0.89720500  1
  C  1457  1  0.65622700  0.11901400  0.91232600  1
  C  1458  1  0.65792500  0.11016500  0.92701100  1
  C  1459  1  0.66364500  0.09401500  0.92608000  1
  C  1460  1  0.66779200  0.08702100  0.91098600  1
  C  1461  1  0.70188500  0.08235200  0.88893200  1
  C  1462  1  0.71809000  0.08755100  0.89148800  1
  C  1463  1  0.72323100  0.10330200  0.88686300  1
  C  1464  1  0.71146900  0.11378100  0.87987700  1
  C  1465  1  0.69535900  0.10853100  0.87734500  1
  C  1486  1  0.35229700  0.53662600  0.63701300  1
  C  1487  1  0.33727700  0.54248300  0.64299500  1
  C  1488  1  0.33238800  0.55875800  0.64031300  1
  C  1489  1  0.34195800  0.56983200  0.63103700  1
  C  1490  1  0.35721400  0.56376300  0.62544800  1
  C  1491  1  0.36213900  0.54755300  0.62804100  1
  C  1492  1  0.33780000  0.58800400  0.62968800  1
  C  1493  1  0.34542500  0.59425800  0.64557600  1
  C  1494  1  0.36231900  0.59788500  0.64694700  1
  C  1495  1  0.36963000  0.60185200  0.66200700  1
  C  1496  1  0.36039100  0.60194800  0.67654800  1
  C  1497  1  0.34371300  0.59804500  0.67551300  1
  C  1498  1  0.33654200  0.59397500  0.66047700  1
  C  1499  1  0.31970800  0.59250200  0.62836400  1
  C  1500  1  0.34404100  0.59548300  0.61372700  1
  C  1501  1  0.34967600  0.61182700  0.61251300  1
  C  1502  1  0.35367500  0.61899900  0.59739800  1
  C  1503  1  0.35189900  0.61019100  0.58269800  1
  C  1504  1  0.34609900  0.59406900  0.58360900  1
  C  1505  1  0.34195200  0.58706500  0.59869900  1
  C  1506  1  0.30789000  0.58233100  0.62081500  1
  C  1507  1  0.29169000  0.58753400  0.61824500  1
  C  1508  1  0.28657100  0.60331500  0.62279300  1
  C  1509  1  0.29834900  0.61381600  0.62971500  1
  C  1510  1  0.31445600  0.60856200  0.63225500  1
  C  1531  1  0.15745500  0.47319800  0.13709500  1
  C  1532  1  0.17252800  0.46737400  0.14297500  1
  C  1533  1  0.17741500  0.45109900  0.14029000  1
  C  1534  1  0.16780000  0.43999500  0.13109600  1
  C  1535  1  0.15249300  0.44603700  0.12561700  1
  C  1536  1  0.14756600  0.46224600  0.12820900  1
  C  1537  1  0.17195700  0.42182500  0.12974500  1
  C  1538  1  0.16432200  0.41556300  0.14562200  1
  C  1539  1  0.14745200  0.41182300  0.14697700  1
  C  1540  1  0.14014000  0.40785300  0.16203400  1
  C  1541  1  0.14934600  0.40788100  0.17659600  1
  C  1542  1  0.16599600  0.41190800  0.17558200  1
  C  1543  1  0.17316600  0.41597600  0.16054600  1
  C  1544  1  0.19004600  0.41732200  0.12842800  1
  C  1545  1  0.16570700  0.41435100  0.11378600  1
  C  1546  1  0.16022400  0.39795900  0.11253600  1
  C  1547  1  0.15623200  0.39079400  0.09741500  1
  C  1548  1  0.15789900  0.39965600  0.08273500  1
  C  1549  1  0.16358100  0.41581800  0.08367400  1
  C  1550  1  0.16771300  0.42281400  0.09877100  1
  C  1551  1  0.20182700  0.42745100  0.12076100  1
  C  1552  1  0.21802700  0.42225300  0.11817600  1
  C  1553  1  0.22318200  0.40651500  0.12282600  1
  C  1554  1  0.21144100  0.39604800  0.12986200  1
  C  1555  1  0.19533500  0.40130000  0.13241700  1
  C  1576  1  0.85233600  0.97321200  0.37272800  1
  C  1577  1  0.83724100  0.96740700  0.36688600  1
  C  1578  1  0.83235000  0.95113100  0.36955300  1
  C  1579  1  0.84200300  0.94000200  0.37867300  1
  C  1580  1  0.85733000  0.94601900  0.38412000  1
  C  1581  1  0.86225500  0.96223200  0.38154700  1
  C  1582  1  0.83783700  0.92183200  0.38002600  1
  C  1583  1  0.84549500  0.91558500  0.36415100  1
  C  1584  1  0.86234400  0.91174500  0.36284200  1
  C  1585  1  0.86966800  0.90775600  0.34779600  1
  C  1586  1  0.86049800  0.90785500  0.33321000  1
  C  1587  1  0.84387000  0.91198200  0.33418600  1
  C  1588  1  0.83667900  0.91605600  0.34921400  1
  C  1589  1  0.81974700  0.91732400  0.38132900  1
  C  1590  1  0.84406300  0.91435700  0.39599400  1
  C  1591  1  0.84948600  0.89794500  0.39724400  1
  C  1592  1  0.85347200  0.89077500  0.41236400  1
  C  1593  1  0.85187300  0.89965600  0.42703900  1
  C  1594  1  0.84626100  0.91584400  0.42609800  1
  C  1595  1  0.84213100  0.92284600  0.41100300  1
  C  1596  1  0.80797900  0.92742600  0.38904700  1
  C  1597  1  0.79178200  0.92221800  0.39162700  1
  C  1598  1  0.78661300  0.90650600  0.38690500  1
  C  1599  1  0.79834700  0.89606700  0.37981000  1
  C  1600  1  0.81444900  0.90132800  0.37724800  1
  C  1621  1  0.90785800  0.62257500  0.72360000  1
  C  1622  1  0.92287900  0.61661000  0.71772600  1
  C  1623  1  0.92777600  0.61934700  0.70146100  1
  C  1624  1  0.91822000  0.62867200  0.69041300  1
  C  1625  1  0.90296800  0.63424600  0.69650300  1
  C  1626  1  0.89803200  0.63159700  0.71269900  1
  C  1627  1  0.92239800  0.63006000  0.67224800  1
  C  1628  1  0.91479400  0.61418300  0.66595200  1
  C  1629  1  0.89788500  0.61279300  0.66238800  1
  C  1630  1  0.89059200  0.59773800  0.65838900  1
  C  1631  1  0.89987200  0.58322700  0.65817300  1
  C  1632  1  0.91657100  0.58427600  0.66197200  1
  C  1633  1  0.92371600  0.59930400  0.66611400  1
  C  1634  1  0.94049200  0.63143700  0.66777100  1
  C  1635  1  0.91612200  0.64600800  0.66477300  1
  C  1636  1  0.91056200  0.64722100  0.64840200  1
  C  1637  1  0.90654600  0.66233100  0.64123100  1
  C  1638  1  0.90821700  0.67701600  0.65008000  1
  C  1639  1  0.91391100  0.67610900  0.66623700  1
  C  1640  1  0.91811200  0.66102900  0.67322500  1
  C  1641  1  0.95227300  0.63901500  0.67796400  1
  C  1642  1  0.96846300  0.64167600  0.67277100  1
  C  1643  1  0.97361500  0.63716300  0.65699000  1
  C  1644  1  0.96187400  0.63021000  0.64646800  1
  C  1645  1  0.94577400  0.62759400  0.65170800  1
  C  1666  1  0.60194100  0.38725800  0.22360700  1
  C  1667  1  0.58687900  0.39314600  0.21776300  1
  C  1668  1  0.58197400  0.39040700  0.20150100  1
  C  1669  1  0.59156400  0.38115400  0.19042300  1
  C  1670  1  0.60686100  0.37566600  0.19648200  1
  C  1671  1  0.61180500  0.37831200  0.21267800  1
  C  1672  1  0.58740100  0.37976500  0.17225600  1
  C  1673  1  0.59502800  0.39563000  0.16595800  1
  C  1674  1  0.61191800  0.39699600  0.16230700  1
  C  1675  1  0.61922500  0.41204700  0.15831700  1
  C  1676  1  0.60997900  0.42658200  0.15820800  1
  C  1677  1  0.59330100  0.42555800  0.16210100  1
  C  1678  1  0.58614600  0.41053300  0.16623600  1
  C  1679  1  0.56931200  0.37840900  0.16776100  1
  C  1680  1  0.59367700  0.36381600  0.16478700  1
  C  1681  1  0.59913100  0.36256700  0.14838500  1
  C  1682  1  0.60312900  0.34744900  0.14122200  1
  C  1683  1  0.60153500  0.33278200  0.15011500  1
  C  1684  1  0.59591800  0.33371700  0.16629800  1
  C  1685  1  0.59173500  0.34880700  0.17327600  1
  C  1686  1  0.55754600  0.37075100  0.17791200  1
  C  1687  1  0.54135300  0.36810900  0.17271700  1
  C  1688  1  0.53618300  0.37271100  0.15696700  1
  C  1689  1  0.54791400  0.37973100  0.14647900  1
  C  1690  1  0.56401300  0.38233800  0.15172500  1
  C  1711  1  0.40789100  0.88718700  0.28622200  1
  C  1712  1  0.42291700  0.89314200  0.29209200  1
  C  1713  1  0.42781600  0.89040800  0.30835600  1
  C  1714  1  0.41824900  0.88110200  0.31940700  1
  C  1715  1  0.40298900  0.87553800  0.31332700  1
  C  1716  1  0.39805300  0.87818600  0.29712900  1
  C  1717  1  0.42241600  0.87970400  0.33757600  1
  C  1718  1  0.41481000  0.89558100  0.34387100  1
  C  1719  1  0.39790400  0.89696600  0.34744300  1
  C  1720  1  0.39060900  0.91202200  0.35144400  1
  C  1721  1  0.39988500  0.92653500  0.35164800  1
  C  1722  1  0.41658000  0.92549000  0.34783200  1
  C  1723  1  0.42373000  0.91046200  0.34370000  1
  C  1724  1  0.44051100  0.87832800  0.34205900  1
  C  1725  1  0.41614000  0.86375300  0.34504400  1
  C  1726  1  0.41057800  0.86253600  0.36141400  1
  C  1727  1  0.40656700  0.84742400  0.36858300  1
  C  1728  1  0.40822700  0.83274100  0.35972600  1
  C  1729  1  0.41392300  0.83365400  0.34356800  1
  C  1730  1  0.41812400  0.84873700  0.33658500  1
  C  1731  1  0.45229400  0.87074200  0.33187700  1
  C  1732  1  0.46848800  0.86810600  0.33706900  1
  C  1733  1  0.47364100  0.87263500  0.35284500  1
  C  1734  1  0.46189000  0.87957800  0.36336300  1
  C  1735  1  0.44578800  0.88218000  0.35812100  1
  C  1756  1  0.10194900  0.12256200  0.78617200  1
  C  1757  1  0.08690000  0.11665500  0.79203100  1
  C  1758  1  0.08200300  0.11939300  0.80829600  1
  C  1759  1  0.09159700  0.12865700  0.81936200  1
  C  1760  1  0.10687600  0.13417400  0.81328700  1
  C  1761  1  0.11180800  0.13152900  0.79708800  1
  C  1762  1  0.08741900  0.13005300  0.83752600  1
  C  1763  1  0.09502900  0.11417800  0.84382100  1
  C  1764  1  0.11192100  0.11281100  0.84746400  1
  C  1765  1  0.11922100  0.09775800  0.85146200  1
  C  1766  1  0.10996400  0.08323100  0.85160400  1
  C  1767  1  0.09328100  0.08426100  0.84773000  1
  C  1768  1  0.08612900  0.09928600  0.84359200  1
  C  1769  1  0.06932500  0.13142500  0.84200800  1
  C  1770  1  0.09370300  0.14600000  0.84499600  1
  C  1771  1  0.09917600  0.14724300  0.86139400  1
  C  1772  1  0.10317900  0.16235900  0.86855700  1
  C  1773  1  0.10157500  0.17702900  0.85967000  1
  C  1774  1  0.09595300  0.17609700  0.84348700  1
  C  1775  1  0.09175200  0.16101000  0.83651500  1
  C  1776  1  0.05755900  0.13906500  0.83184400  1
  C  1777  1  0.04137000  0.14172500  0.83704400  1
  C  1778  1  0.03620700  0.13715600  0.85280400  1
  C  1779  1  0.04793600  0.13014200  0.86330000  1
  C  1780  1  0.06403400  0.12752500  0.85805400  1
  C  1801  1  0.12262800  0.78626100  0.10195600  1
  C  1802  1  0.11666800  0.79213300  0.08693300  1
  C  1803  1  0.11939700  0.80840000  0.08203900  1
  C  1804  1  0.12871600  0.81944600  0.09159900  1
  C  1805  1  0.13429400  0.81335900  0.10685100  1
  C  1806  1  0.13164600  0.79716000  0.11178600  1
  C  1807  1  0.13010300  0.83761500  0.08743500  1
  C  1808  1  0.11422000  0.84389800  0.09504200  1
  C  1809  1  0.11281800  0.84745900  0.11194700  1
  C  1810  1  0.09775500  0.85145000  0.11923000  1
  C  1811  1  0.08325000  0.85165700  0.10994000  1
  C  1812  1  0.08431400  0.84786300  0.09324000  1
  C  1813  1  0.09934800  0.84372700  0.08610500  1
  C  1814  1  0.13149000  0.84210900  0.06934500  1
  C  1815  1  0.14604100  0.84510300  0.09372300  1
  C  1816  1  0.14723900  0.86147100  0.09928900  1
  C  1817  1  0.16234300  0.86865000  0.10330900  1
  C  1818  1  0.17703700  0.85981200  0.10164500  1
  C  1819  1  0.17614100  0.84365400  0.09594600  1
  C  1820  1  0.16106700  0.83666000  0.09172900  1
  C  1821  1  0.13905000  0.83190400  0.05756300  1
  C  1822  1  0.14168900  0.83709000  0.04136600  1
  C  1823  1  0.13716000  0.85286300  0.03620800  1
  C  1824  1  0.13021500  0.86339000  0.04795000  1
  C  1825  1  0.12761800  0.85816000  0.06405700  1
  C  1846  1  0.88717500  0.28622600  0.40789100  1
  C  1847  1  0.89315700  0.29210500  0.42290300  1
  C  1848  1  0.89042200  0.30836900  0.42780100  1
  C  1849  1  0.88109400  0.31941300  0.41824600  1
  C  1850  1  0.87550500  0.31332400  0.40299900  1
  C  1851  1  0.87815000  0.29712400  0.39806600  1
  C  1852  1  0.87970800  0.33758300  0.42240900  1
  C  1853  1  0.89559200  0.34386800  0.41480600  1
  C  1854  1  0.89698700  0.34741100  0.39789400  1
  C  1855  1  0.91204500  0.35140300  0.39060100  1
  C  1856  1  0.92655200  0.35163400  0.39988800  1
  C  1857  1  0.92549600  0.34785600  0.41659100  1
  C  1858  1  0.91046700  0.34371800  0.42373500  1
  C  1859  1  0.87832900  0.34206200  0.44050300  1
  C  1860  1  0.86376800  0.34506700  0.41612800  1
  C  1861  1  0.86257600  0.36143200  0.41054500  1
  C  1862  1  0.84747400  0.36862000  0.40653100  1
  C  1863  1  0.83277500  0.35979400  0.40821200  1
  C  1864  1  0.83366300  0.34363900  0.41392200  1
  C  1865  1  0.84873700  0.33663500  0.41812600  1
  C  1866  1  0.87075200  0.33187200  0.45228500  1
  C  1867  1  0.86811300  0.33705900  0.46848200  1
  C  1868  1  0.87261900  0.35284200  0.47362900  1
  C  1869  1  0.87956300  0.36336500  0.46188400  1
  C  1870  1  0.88217300  0.35812600  0.44578300  1
  C  1891  1  0.38723700  0.22357300  0.60196400  1
  C  1892  1  0.39309600  0.21773200  0.58688900  1
  C  1893  1  0.39036000  0.20146800  0.58199200  1
  C  1894  1  0.38114000  0.19038400  0.59160600  1
  C  1895  1  0.37568300  0.19643900  0.60691500  1
  C  1896  1  0.37832300  0.21263900  0.61185000  1
  C  1897  1  0.37975000  0.17221700  0.58744700  1
  C  1898  1  0.39561500  0.16592500  0.59508200  1
  C  1899  1  0.39696600  0.16223500  0.61196300  1
  C  1900  1  0.41201400  0.15824200  0.61927600  1
  C  1901  1  0.42656200  0.15817000  0.61005000  1
  C  1902  1  0.42555200  0.16210700  0.59337900  1
  C  1903  1  0.41053000  0.16624100  0.58621800  1
  C  1904  1  0.37839900  0.16772300  0.56935800  1
  C  1905  1  0.36380100  0.16474700  0.59372300  1
  C  1906  1  0.36255200  0.14833000  0.59913300  1
  C  1907  1  0.34743600  0.14116200  0.60312900  1
  C  1908  1  0.33276700  0.15005900  0.60156600  1
  C  1909  1  0.33370300  0.16625900  0.59599500  1
  C  1910  1  0.34879200  0.17324300  0.59181500  1
  C  1911  1  0.37069100  0.17785500  0.55760700  1
  C  1912  1  0.36804800  0.17266000  0.54141400  1
  C  1913  1  0.37267700  0.15692200  0.53623800  1
  C  1914  1  0.37975900  0.14645400  0.54794900  1
  C  1915  1  0.38237200  0.15170200  0.56404800  1
  C  1936  1  0.62256700  0.72359300  0.90788600  1
  C  1937  1  0.61670600  0.71775500  0.92296100  1
  C  1938  1  0.61943800  0.70149200  0.92786300  1
  C  1939  1  0.62864200  0.69040500  0.91823900  1
  C  1940  1  0.63410500  0.69645200  0.90292900  1
  C  1941  1  0.63147200  0.71265300  0.89799600  1
  C  1942  1  0.63004600  0.67223900  0.92241000  1
  C  1943  1  0.61417500  0.66594800  0.91478800  1
  C  1944  1  0.61281900  0.66223700  0.89791200  1
  C  1945  1  0.59776300  0.65823800  0.89061700  1
  C  1946  1  0.58322700  0.65816900  0.89986000  1
  C  1947  1  0.58424800  0.66211700  0.91652600  1
  C  1948  1  0.59927700  0.66624900  0.92367600  1
  C  1949  1  0.63141900  0.66774600  0.94050000  1
  C  1950  1  0.64600100  0.66477900  0.91613900  1
  C  1951  1  0.64724600  0.64836600  0.91071100  1
  C  1952  1  0.66236400  0.64120800  0.90669800  1
  C  1953  1  0.67702700  0.65011500  0.90824600  1
  C  1954  1  0.67609000  0.66631300  0.91382500  1
  C  1955  1  0.66100300  0.67328900  0.91802000  1
  C  1956  1  0.63909800  0.67789800  0.95225100  1
  C  1957  1  0.64175300  0.67270400  0.96844100  1
  C  1958  1  0.63712300  0.65696800  0.97362600  1
  C  1959  1  0.63006800  0.64648400  0.96190900  1
  C  1960  1  0.62744200  0.65172900  0.94581300  1
  C  1981  1  0.28620400  0.40783600  0.88716300  1
  C  1982  1  0.29208800  0.42283700  0.89316900  1
  C  1983  1  0.30835200  0.42773900  0.89043100  1
  C  1984  1  0.31938800  0.41820900  0.88106400  1
  C  1985  1  0.31328800  0.40297900  0.87544400  1
  C  1986  1  0.29709100  0.39803700  0.87809600  1
  C  1987  1  0.33755500  0.42238700  0.87968900  1
  C  1988  1  0.34384100  0.41478800  0.89557500  1
  C  1989  1  0.34735500  0.39787100  0.89697900  1
  C  1990  1  0.35135000  0.39058300  0.91203800  1
  C  1991  1  0.35161100  0.39987900  0.92653900  1
  C  1992  1  0.34785800  0.41658700  0.92547400  1
  C  1993  1  0.34372200  0.42372800  0.91044400  1
  C  1994  1  0.34202800  0.44048300  0.87830800  1
  C  1995  1  0.34504800  0.41610800  0.86375100  1
  C  1996  1  0.36140500  0.41050400  0.86256700  1
  C  1997  1  0.36859700  0.40648200  0.84746900  1
  C  1998  1  0.35978600  0.40818700  0.83276400  1
  C  1999  1  0.34364000  0.41392500  0.83364300  1
  C  2000  1  0.33663100  0.41813100  0.84871400  1
  C  2001  1  0.33181600  0.45227300  0.87077400  1
  C  2002  1  0.33700800  0.46846500  0.86811700  1
  C  2003  1  0.35279800  0.47361000  0.87259700  1
  C  2004  1  0.36333500  0.46186100  0.87951300  1
  C  2005  1  0.35810000  0.44575900  0.88212300  1
  C  2026  1  0.78620800  0.10194700  0.12256200  1
  C  2027  1  0.79205200  0.08688600  0.11667100  1
  C  2028  1  0.80831600  0.08198200  0.11940700  1
  C  2029  1  0.81939300  0.09157100  0.12866100  1
  C  2030  1  0.81333500  0.10686700  0.13415200  1
  C  2031  1  0.79713800  0.11181000  0.13150800  1
  C  2032  1  0.83756000  0.08740600  0.13005100  1
  C  2033  1  0.84385700  0.09502500  0.11418100  1
  C  2034  1  0.84750400  0.11191500  0.11280600  1
  C  2035  1  0.85149500  0.11921400  0.09775100  1
  C  2036  1  0.85160900  0.10996100  0.08322100  1
  C  2037  1  0.84771900  0.09328200  0.08425400  1
  C  2038  1  0.84358400  0.08613400  0.09928300  1
  C  2039  1  0.84205200  0.06931600  0.13141400  1
  C  2040  1  0.84503300  0.09368700  0.14599600  1
  C  2041  1  0.86143500  0.09914500  0.14723800  1
  C  2042  1  0.86859900  0.10315400  0.16235300  1
  C  2043  1  0.85971200  0.10156000  0.17702400  1
  C  2044  1  0.84353000  0.09593700  0.17609500  1
  C  2045  1  0.83654900  0.09174800  0.16100800  1
  C  2046  1  0.83189300  0.05755300  0.13906700  1
  C  2047  1  0.83708600  0.04136000  0.14171800  1
  C  2048  1  0.85283500  0.03618700  0.13712100  1
  C  2049  1  0.86332900  0.04791300  0.13010200  1
  C  2050  1  0.85808700  0.06401300  0.12749000  1
  C  2071  1  0.72361100  0.90788900  0.62257600  1
  C  2072  1  0.71774800  0.92292400  0.61663600  1
  C  2073  1  0.70148200  0.92782200  0.61936900  1
  C  2074  1  0.69042500  0.91824800  0.62865900  1
  C  2075  1  0.69650100  0.90298000  0.63420800  1
  C  2076  1  0.71269900  0.89804500  0.63156500  1
  C  2077  1  0.67225800  0.92241700  0.63005700  1
  C  2078  1  0.66596400  0.91481900  0.61417500  1
  C  2079  1  0.66237500  0.89791700  0.61278300  1
  C  2080  1  0.65837100  0.89063100  0.59772500  1
  C  2081  1  0.65818100  0.89991200  0.58321400  1
  C  2082  1  0.66201500  0.91660200  0.58426600  1
  C  2083  1  0.66614900  0.92374300  0.59929800  1
  C  2084  1  0.66778000  0.94051100  0.63143900  1
  C  2085  1  0.66478500  0.91613600  0.64600300  1
  C  2086  1  0.64840900  0.91059400  0.64721700  1
  C  2087  1  0.64123400  0.90658300  0.66232600  1
  C  2088  1  0.65009000  0.90822400  0.67701000  1
  C  2089  1  0.66625600  0.91389900  0.67610200  1
  C  2090  1  0.67324600  0.91810000  0.66102200  1
  C  2091  1  0.67795900  0.95228100  0.63905100  1
  C  2092  1  0.67277000  0.96847500  0.64170300  1
  C  2093  1  0.65700300  0.97363800  0.63715300  1
  C  2094  1  0.64648500  0.96190000  0.63019000  1
  C  2095  1  0.65172400  0.94579800  0.62757600  1
  C  2116  1  0.22363500  0.60196900  0.38720000  1
  C  2117  1  0.21776400  0.58693400  0.39313300  1
  C  2118  1  0.20150100  0.58203700  0.39039200  1
  C  2119  1  0.19044500  0.59161600  0.38109800  1
  C  2120  1  0.19653000  0.60688000  0.37555300  1
  C  2121  1  0.21272900  0.61181200  0.37820300  1
  C  2122  1  0.17227900  0.58744000  0.37971000  1
  C  2123  1  0.16598900  0.59505000  0.39558700  1
  C  2124  1  0.16237900  0.61194700  0.39696100  1
  C  2125  1  0.15838400  0.61924800  0.41201400  1
  C  2126  1  0.15821300  0.60998500  0.42653700  1
  C  2127  1  0.16205700  0.59329500  0.42550100  1
  C  2128  1  0.16619100  0.58614200  0.41047600  1
  C  2129  1  0.16780000  0.56934600  0.37833800  1
  C  2130  1  0.16479800  0.59372500  0.36377000  1
  C  2131  1  0.14840700  0.59922100  0.36254400  1
  C  2132  1  0.14122800  0.60322000  0.34743300  1
  C  2133  1  0.15009000  0.60158600  0.33275200  1
  C  2134  1  0.16626600  0.59594500  0.33366600  1
  C  2135  1  0.17325600  0.59175200  0.34874800  1
  C  2136  1  0.17797300  0.55757500  0.37071900  1
  C  2137  1  0.17277700  0.54138500  0.36806200  1
  C  2138  1  0.15701200  0.53622400  0.37261700  1
  C  2139  1  0.14650800  0.54795600  0.37961000  1
  C  2140  1  0.15175000  0.56405600  0.38222300  1
  C  2161  1  0.14255400  0.37311500  0.01222600  1
  C  2163  1  0.15275400  0.36220800  0.03743700  1
  C  2164  1  0.14955400  0.37701900  0.04563200  1
  C  2166  1  0.13911700  0.38795500  0.02050500  1
  C  2168  1  0.13238400  0.40066700  0.01379900  1
  C  2170  1  0.13963000  0.37081200  0.99565900  1
  C  2172  1  0.15260700  0.37925200  0.06214700  1
  C  2174  1  0.36730100  0.63670100  0.51223100  1
  C  2176  1  0.35707000  0.64760800  0.53743000  1
  C  2177  1  0.36031100  0.63281700  0.54564300  1
  C  2179  1  0.37078300  0.62188300  0.52053100  1
  C  2181  1  0.37754800  0.60918200  0.51383500  1
  C  2183  1  0.37025900  0.63899800  0.49566200  1
  C  2185  1  0.35730500  0.63063700  0.56217000  1
  C  2187  1  0.86715600  0.87308200  0.49754600  1
  C  2189  1  0.85692800  0.86220200  0.47233800  1
  C  2190  1  0.86017100  0.87700300  0.46414200  1
  C  2192  1  0.87063900  0.88791100  0.48926700  1
  C  2194  1  0.87740900  0.90060200  0.49597500  1
  C  2196  1  0.87004100  0.87076400  0.51411700  1
  C  2198  1  0.85711700  0.87924400  0.44762800  1
  C  2200  1  0.64261200  0.13672300  0.99751100  1
  C  2202  1  0.65278500  0.14762300  0.97228900  1
  C  2203  1  0.64956900  0.13281200  0.96410100  1
  C  2205  1  0.63915300  0.12188600  0.98924000  1
  C  2207  1  0.63242800  0.10917700  0.99595900  1
  C  2209  1  0.63973400  0.13904000  0.01408400  1
  C  2211  1  0.65260800  0.13057300  0.94758500  1
  C  2213  1  0.01227200  0.14256900  0.37309300  1
  C  2215  1  0.03745900  0.15282400  0.36218400  1
  C  2216  1  0.04568100  0.14957300  0.37696900  1
  C  2218  1  0.02057900  0.13907700  0.38790400  1
  C  2220  1  0.01389200  0.13229700  0.40060300  1
  C  2222  1  0.99570300  0.13961300  0.37081900  1
  C  2224  1  0.06220700  0.15258300  0.37914300  1
  C  2226  1  0.51222900  0.36718500  0.63670800  1
  C  2228  1  0.53746500  0.35707000  0.64763800  1
  C  2229  1  0.54563600  0.36019400  0.63280000  1
  C  2231  1  0.52048700  0.37054600  0.62183900  1
  C  2233  1  0.51375700  0.37720300  0.60909900  1
  C  2235  1  0.49566200  0.37013800  0.63900200  1
  C  2237  1  0.56214400  0.35713100  0.63056800  1
  C  2239  1  0.49757900  0.86727300  0.87308100  1
  C  2241  1  0.47235000  0.85711600  0.86217300  1
  C  2242  1  0.46417300  0.86027500  0.87700200  1
  C  2244  1  0.48931600  0.87067400  0.88793800  1
  C  2246  1  0.49604100  0.87736100  0.90066400  1
  C  2248  1  0.51414300  0.87023800  0.87076400  1
  C  2250  1  0.44765900  0.85722400  0.87924400  1
  C  2252  1  0.99743200  0.64254600  0.13678200  1
  C  2254  1  0.97229800  0.65300000  0.14761400  1
  C  2255  1  0.96400300  0.64948600  0.13292800  1
  C  2257  1  0.98906200  0.63879000  0.12207200  1
  C  2259  1  0.99569500  0.63178100  0.10947300  1
  C  2261  1  0.01401100  0.63966900  0.13904800  1
  C  2263  1  0.94743800  0.65240400  0.13079400  1
  C  2265  1  0.37305200  0.01226700  0.14261700  1
  C  2267  1  0.36217900  0.03747100  0.15286300  1
  C  2268  1  0.37695200  0.04568600  0.14954300  1
  C  2270  1  0.38785200  0.02056400  0.13905700  1
  C  2272  1  0.40052100  0.01386500  0.13223800  1
  C  2274  1  0.37074400  0.99569100  0.13975900  1
  C  2276  1  0.37914100  0.06221400  0.15252600  1
  C  2278  1  0.63670800  0.51221400  0.36724200  1
  C  2280  1  0.64762000  0.53745800  0.35712200  1
  C  2281  1  0.63277400  0.54561600  0.36024500  1
  C  2283  1  0.62183400  0.52046300  0.37060600  1
  C  2285  1  0.60909700  0.51372300  0.37725800  1
  C  2287  1  0.63903500  0.49565100  0.37020600  1
  C  2289  1  0.63053100  0.56212200  0.35718300  1
  C  2291  1  0.87309400  0.49751600  0.86714400  1
  C  2293  1  0.86220400  0.47228800  0.85697200  1
  C  2294  1  0.87701100  0.46410100  0.86020800  1
  C  2296  1  0.88792800  0.48924500  0.87062100  1
  C  2298  1  0.90062800  0.49596500  0.87736400  1
  C  2300  1  0.87077700  0.51409000  0.87000300  1
  C  2302  1  0.87925400  0.44758300  0.85717800  1
  C  2304  1  0.13674000  0.99748300  0.64259500  1
  C  2306  1  0.14761800  0.97227500  0.65282700  1
  C  2307  1  0.13284500  0.96406100  0.64950500  1
  C  2309  1  0.12194200  0.98918600  0.63903000  1
  C  2311  1  0.10926900  0.99588800  0.63222100  1
  C  2313  1  0.13904300  0.01406200  0.63975000  1
  C  2315  1  0.13065600  0.94753100  0.65248500  1
  C  2317  1  0.12267800  0.39282600  0.24714200  1
  C  2319  1  0.11190800  0.40354500  0.22208800  1
  C  2320  1  0.12662000  0.40013500  0.21379800  1
  C  2322  1  0.13741400  0.38917700  0.23876700  1
  C  2324  1  0.15001300  0.38212800  0.24536500  1
  C  2326  1  0.12039900  0.38976200  0.26369000  1
  C  2328  1  0.12880700  0.40335100  0.19730600  1
  C  2330  1  0.38711100  0.61692100  0.74713400  1
  C  2332  1  0.39788200  0.60626800  0.72205200  1
  C  2333  1  0.38314100  0.60962300  0.71379200  1
  C  2335  1  0.37234400  0.62051200  0.73879100  1
  C  2337  1  0.35972800  0.62750800  0.74541300  1
  C  2339  1  0.38939800  0.61996900  0.76368500  1
  C  2341  1  0.38089200  0.60637300  0.69731000  1
  C  2343  1  0.62266300  0.11701100  0.76263900  1
  C  2345  1  0.61191300  0.10628400  0.78769700  1
  C  2346  1  0.62663100  0.10969600  0.79597800  1
  C  2348  1  0.63740400  0.12066200  0.77100100  1
  C  2350  1  0.64999500  0.12771300  0.76439500  1
  C  2352  1  0.62035000  0.12008900  0.74609300  1
  C  2354  1  0.62883100  0.10647300  0.81246700  1
  C  2356  1  0.88716100  0.89280900  0.26275100  1
  C  2358  1  0.89787600  0.90367800  0.28775900  1
  C  2359  1  0.88324500  0.90006300  0.29611200  1
  C  2361  1  0.87251000  0.88895400  0.27117900  1
  C  2363  1  0.85998900  0.88172800  0.26462500  1
  C  2365  1  0.88943600  0.88981200  0.24619300  1
  C  2367  1  0.88110200  0.90319400  0.31264500  1
  C  2369  1  0.89277900  0.26263600  0.88710600  1
  C  2371  1  0.90356700  0.28766800  0.89785500  1
  C  2372  1  0.90011200  0.29597100  0.88316200  1
  C  2374  1  0.88908900  0.27102100  0.87238700  1
  C  2376  1  0.88198400  0.26444200  0.85981200  1
  C  2378  1  0.88973200  0.24609000  0.88940400  1
  C  2380  1  0.90334800  0.31246000  0.88097200  1
  C  2382  1  0.11700700  0.76262500  0.62267000  1
  C  2384  1  0.10630200  0.78768900  0.61191000  1
  C  2385  1  0.10965000  0.79595200  0.62665100  1
  C  2387  1  0.12059300  0.77097200  0.63743600  1
  C  2389  1  0.12760000  0.76435900  0.65004900  1
  C  2391  1  0.12010300  0.74608300  0.62035100  1
  C  2393  1  0.10637300  0.81242900  0.62890200  1
  C  2395  1  0.61689700  0.74713700  0.38710700  1
  C  2397  1  0.60618700  0.72207400  0.39785700  1
  C  2398  1  0.60960100  0.71379900  0.38313700  1
  C  2400  1  0.62055100  0.73878200  0.37236300  1
  C  2402  1  0.62760100  0.74538900  0.35977200  1
  C  2404  1  0.61989100  0.76369000  0.38942000  1
  C  2406  1  0.60634700  0.69731800  0.38089100  1
  C  2408  1  0.39288900  0.24712100  0.12267100  1
  C  2410  1  0.40359000  0.22204900  0.11193200  1
  C  2411  1  0.40017200  0.21378200  0.12665500  1
  C  2413  1  0.38923000  0.23877200  0.13741800  1
  C  2415  1  0.38218800  0.24539000  0.15000900  1
  C  2417  1  0.38989800  0.26367300  0.12035100  1
  C  2419  1  0.40342400  0.19730200  0.12891100  1
  C  2421  1  0.76264500  0.62271500  0.11705800  1
  C  2423  1  0.78767700  0.61195300  0.10628100  1
  C  2424  1  0.79597800  0.62665900  0.10969400  1
  C  2426  1  0.77102900  0.63744600  0.12070900  1
  C  2428  1  0.76444800  0.65003900  0.12778100  1
  C  2430  1  0.74610200  0.62043300  0.12015400  1
  C  2432  1  0.81246600  0.62884500  0.10645000  1
  C  2434  1  0.26264200  0.88710300  0.89286800  1
  C  2436  1  0.28773600  0.89789300  0.90347100  1
  C  2437  1  0.29598900  0.88314200  0.90014300  1
  C  2439  1  0.27097900  0.87232500  0.88930200  1
  C  2441  1  0.26434800  0.85969600  0.88234000  1
  C  2443  1  0.24609100  0.88938900  0.88982200  1
  C  2445  1  0.31247500  0.88089800  0.90338100  1
  C  2447  1  0.24714400  0.12267300  0.39281600  1
  C  2449  1  0.22208600  0.11190300  0.40352500  1
  C  2450  1  0.21380400  0.12662500  0.40013800  1
  C  2452  1  0.23877800  0.13741900  0.38919100  1
  C  2454  1  0.24538200  0.15002500  0.38216000  1
  C  2456  1  0.26369200  0.12038600  0.38972000  1
  C  2458  1  0.19731300  0.12881800  0.40336300  1
  C  2460  1  0.74705800  0.38715700  0.61704700  1
  C  2462  1  0.72207000  0.39786600  0.60612900  1
  C  2463  1  0.71370300  0.38324800  0.60975700  1
  C  2465  1  0.73861800  0.37251700  0.62091800  1
  C  2467  1  0.74515300  0.36000500  0.62817200  1
  C  2469  1  0.76361300  0.38942800  0.62006400  1
  C  2471  1  0.69717300  0.38110900  0.60661000  1
  C  2473  1  0.86723100  0.63669200  0.99757000  1
  C  2475  1  0.85701100  0.64758500  0.97236200  1
  C  2476  1  0.86024000  0.63278300  0.96416400  1
  C  2478  1  0.87069800  0.62186100  0.98928800  1
  C  2480  1  0.87745400  0.60916100  0.99599300  1
  C  2482  1  0.87013200  0.63901200  0.01413800  1
  C  2484  1  0.85718800  0.63054600  0.94765000  1
  C  2486  1  0.64258600  0.37307900  0.49754500  1
  C  2488  1  0.65277800  0.36217200  0.47233100  1
  C  2489  1  0.64953300  0.37696800  0.46412600  1
  C  2491  1  0.63909800  0.38790000  0.48925300  1
  C  2493  1  0.63234700  0.40060100  0.49596300  1
  C  2495  1  0.63966000  0.37078600  0.51411900  1
  C  2497  1  0.65252300  0.37915100  0.44759800  1
  C  2499  1  0.14265000  0.13672000  0.51225400  1
  C  2501  1  0.15287800  0.14760000  0.53746300  1
  C  2502  1  0.14963400  0.13279900  0.54565900  1
  C  2504  1  0.13916600  0.12189200  0.52053400  1
  C  2506  1  0.13239700  0.10920000  0.51382500  1
  C  2508  1  0.13976400  0.13903800  0.49568400  1
  C  2510  1  0.15268800  0.13055900  0.56217200  1
  C  2512  1  0.36719000  0.87306900  0.01228600  1
  C  2514  1  0.35700400  0.86217000  0.03750400  1
  C  2515  1  0.36022700  0.87697700  0.04569600  1
  C  2517  1  0.37065500  0.88790400  0.02056200  1
  C  2519  1  0.37738700  0.90060900  0.01384600  1
  C  2521  1  0.37007000  0.87075400  0.99571500  1
  C  2523  1  0.35718500  0.87921500  0.06221200  1
  C  2525  1  0.99753500  0.86723200  0.63670800  1
  C  2527  1  0.97234600  0.85697900  0.64761600  1
  C  2528  1  0.96412500  0.86023000  0.63283100  1
  C  2530  1  0.98922700  0.87072400  0.62189600  1
  C  2532  1  0.99591500  0.87750200  0.60919800  1
  C  2534  1  0.01410400  0.87018700  0.63898100  1
  C  2536  1  0.94759800  0.85721800  0.63065700  1
  C  2538  1  0.49747700  0.64252700  0.37305200  1
  C  2540  1  0.47232800  0.65291700  0.36218700  1
  C  2541  1  0.46405500  0.64950500  0.37690800  1
  C  2543  1  0.48912400  0.63887800  0.38779900  1
  C  2545  1  0.49576900  0.63193700  0.40043200  1
  C  2547  1  0.51405000  0.63958600  0.37079500  1
  C  2549  1  0.44749800  0.65244000  0.37902900  1
  C  2551  1  0.51223000  0.14253700  0.13672700  1
  C  2553  1  0.53746000  0.15269100  0.14763300  1
  C  2554  1  0.54563600  0.14953000  0.13280300  1
  C  2556  1  0.52049200  0.13913500  0.12186900  1
  C  2558  1  0.51376400  0.13244800  0.10914300  1
  C  2560  1  0.49566400  0.13957400  0.13904500  1
  C  2562  1  0.56215000  0.15258000  0.13055900  1
  C  2564  1  0.01236400  0.36725400  0.87303200  1
  C  2566  1  0.03749700  0.35679900  0.86219800  1
  C  2567  1  0.04579300  0.36031300  0.87688500  1
  C  2569  1  0.02073500  0.37101100  0.88774000  1
  C  2571  1  0.01410200  0.37802100  0.90034000  1
  C  2573  1  0.99578600  0.37013200  0.87076600  1
  C  2575  1  0.06235900  0.35739700  0.87901700  1
  C  2577  1  0.63673000  0.99756100  0.86721200  1
  C  2579  1  0.64764200  0.97234500  0.85703300  1
  C  2580  1  0.63284600  0.96414100  0.86027100  1
  C  2582  1  0.62190400  0.98927400  0.87068700  1
  C  2584  1  0.60920100  0.99598100  0.87743500  1
  C  2586  1  0.63900600  0.01413600  0.87013500  1
  C  2588  1  0.63066200  0.94761100  0.85728600  1
  C  2590  1  0.37307900  0.49759500  0.64255600  1
  C  2592  1  0.36216100  0.47235700  0.65268300  1
  C  2593  1  0.37700300  0.46419300  0.64955900  1
  C  2595  1  0.38794900  0.48934100  0.63919100  1
  C  2597  1  0.40068800  0.49607600  0.63253600  1
  C  2599  1  0.37075800  0.51415900  0.63959200  1
  C  2601  1  0.37924100  0.44768700  0.65262400  1
  C  2603  1  0.13670000  0.51228200  0.14265800  1
  C  2605  1  0.14759000  0.53750900  0.15283400  1
  C  2606  1  0.13278300  0.54569700  0.14959900  1
  C  2608  1  0.12186700  0.52055400  0.13918000  1
  C  2610  1  0.10916800  0.51383400  0.13243600  1
  C  2612  1  0.13901700  0.49570800  0.13979600  1
  C  2614  1  0.13054200  0.56221400  0.15263000  1
  C  2616  1  0.87306200  0.01232000  0.36720800  1
  C  2618  1  0.86218600  0.03752800  0.35697700  1
  C  2619  1  0.87696000  0.04574200  0.36029700  1
  C  2621  1  0.88786200  0.02061700  0.37077200  1
  C  2623  1  0.90053500  0.01391400  0.37758100  1
  C  2625  1  0.87076100  0.99574200  0.37005300  1
  C  2627  1  0.87914900  0.06227200  0.35731700  1
  C  2629  1  0.88712400  0.61697700  0.76266100  1
  C  2631  1  0.89789300  0.60625800  0.78771500  1
  C  2632  1  0.88318000  0.60966700  0.79600500  1
  C  2634  1  0.87238600  0.62062500  0.77103400  1
  C  2636  1  0.85978700  0.62767200  0.76443600  1
  C  2638  1  0.88940400  0.62004300  0.74611200  1
  C  2640  1  0.88099100  0.60645100  0.81249600  1
  C  2642  1  0.62269700  0.39288800  0.26265200  1
  C  2644  1  0.61192700  0.40354500  0.28773100  1
  C  2645  1  0.62666800  0.40018800  0.29599200  1
  C  2647  1  0.63746400  0.38929700  0.27099500  1
  C  2649  1  0.65007800  0.38229900  0.26437300  1
  C  2651  1  0.62040900  0.38983800  0.24610100  1
  C  2653  1  0.62891800  0.40344100  0.31247300  1
  C  2655  1  0.38713700  0.89278600  0.24716500  1
  C  2657  1  0.39789100  0.90349500  0.22210200  1
  C  2658  1  0.38317200  0.90008900  0.21382500  1
  C  2660  1  0.37239300  0.88914100  0.23880500  1
  C  2662  1  0.35979800  0.88209800  0.24541500  1
  C  2664  1  0.38945000  0.88971200  0.26371200  1
  C  2666  1  0.38097000  0.90330700  0.19733400  1
  C  2668  1  0.12263900  0.11699400  0.74705100  1
  C  2670  1  0.11192500  0.10612500  0.72204300  1
  C  2671  1  0.12655500  0.10973900  0.71368900  1
  C  2673  1  0.13729000  0.12085000  0.73862400  1
  C  2675  1  0.14981100  0.12807500  0.74517600  1
  C  2677  1  0.12036500  0.11999100  0.76360800  1
  C  2679  1  0.12870000  0.10660900  0.69715600  1
  C  2681  1  0.11700700  0.74715300  0.12268500  1
  C  2683  1  0.10619900  0.72212400  0.11195400  1
  C  2684  1  0.10968200  0.71381800  0.12663900  1
  C  2686  1  0.12072500  0.73876700  0.13739700  1
  C  2688  1  0.12785400  0.74534300  0.14995900  1
  C  2690  1  0.12003200  0.76370100  0.12037300  1
  C  2692  1  0.10644700  0.69733100  0.12883300  1
  C  2694  1  0.89279800  0.24717900  0.38712800  1
  C  2696  1  0.90349900  0.22211400  0.39789000  1
  C  2697  1  0.90015500  0.21385200  0.38314700  1
  C  2699  1  0.88921600  0.23883300  0.37236000  1
  C  2701  1  0.88221300  0.24544800  0.35974500  1
  C  2703  1  0.88970000  0.26372100  0.38944700  1
  C  2705  1  0.90343200  0.19737500  0.38089700  1
  C  2707  1  0.39289500  0.26266800  0.62270300  1
  C  2709  1  0.40360100  0.28773500  0.61195700  1
  C  2710  1  0.40018200  0.29600800  0.62667600  1
  C  2712  1  0.38923700  0.27102100  0.63744800  1
  C  2714  1  0.38218700  0.26441100  0.65003700  1
  C  2716  1  0.38990400  0.24611500  0.62038700  1
  C  2718  1  0.40343400  0.31248900  0.62892600  1
  C  2720  1  0.61691600  0.76268600  0.88713900  1
  C  2722  1  0.60621400  0.78775700  0.89787700  1
  C  2723  1  0.60963300  0.79602500  0.88315500  1
  C  2725  1  0.62057600  0.77103500  0.87239200  1
  C  2727  1  0.62762000  0.76441900  0.85980300  1
  C  2729  1  0.61990800  0.74613400  0.88946000  1
  C  2731  1  0.60638100  0.81250600  0.88090000  1
  C  2733  1  0.24714300  0.38709600  0.89276200  1
  C  2735  1  0.22211100  0.39785400  0.90354200  1
  C  2736  1  0.21381200  0.38314800  0.90012600  1
  C  2738  1  0.23876100  0.37236600  0.88910700  1
  C  2740  1  0.24534300  0.35977600  0.88203000  1
  C  2742  1  0.26368700  0.38938000  0.88966600  1
  C  2744  1  0.19732400  0.38096100  0.90337000  1
  C  2746  1  0.74716300  0.12270100  0.11693300  1
  C  2748  1  0.72207100  0.11191000  0.10632600  1
  C  2749  1  0.71381600  0.12666100  0.10965500  1
  C  2751  1  0.73882500  0.13747800  0.12049900  1
  C  2753  1  0.74545600  0.15010700  0.12746200  1
  C  2755  1  0.76371400  0.12041400  0.11998000  1
  C  2757  1  0.69733200  0.12890500  0.10641600  1
  C  2759  1  0.76267100  0.88714300  0.61697400  1
  C  2761  1  0.78772800  0.89789800  0.60624700  1
  C  2762  1  0.79601100  0.88318200  0.60965800  1
  C  2764  1  0.77103700  0.87240300  0.62062500  1
  C  2766  1  0.76443300  0.85981100  0.62767700  1
  C  2768  1  0.74612500  0.88945100  0.62005100  1
  C  2770  1  0.81250000  0.88098300  0.60643600  1
  C  2772  1  0.26276400  0.62264700  0.39277300  1
  C  2774  1  0.28773900  0.61194200  0.40372600  1
  C  2775  1  0.29611400  0.62655700  0.40009100  1
  C  2777  1  0.27121000  0.63728100  0.38889700  1
  C  2779  1  0.26468400  0.64978900  0.38162700  1
  C  2781  1  0.24621100  0.62037600  0.38974400  1
  C  2783  1  0.31264000  0.62869300  0.40325500  1
  C  2785  1  0.64015000  0.87237000  0.51361300  1
  C  2787  1  0.65415500  0.86268800  0.53748300  1
  C  2788  1  0.65017200  0.87702000  0.54616700  1
  C  2790  1  0.63618300  0.88683200  0.52233700  1
  C  2792  1  0.62782400  0.89896900  0.51644800  1
  C  2794  1  0.63514100  0.86930900  0.49765300  1
  C  2796  1  0.65441100  0.87944000  0.56239200  1
  C  2798  1  0.86962900  0.13747300  0.01364700  1
  C  2800  1  0.85555800  0.14712900  0.03748900  1
  C  2801  1  0.85963300  0.13284900  0.04621400  1
  C  2803  1  0.87369000  0.12306200  0.02241300  1
  C  2805  1  0.88213000  0.11096500  0.01655900  1
  C  2807  1  0.87461600  0.14052400  0.99767700  1
  C  2809  1  0.85543800  0.13048700  0.06245400  1
  C  2811  1  0.36963100  0.37232100  0.99614100  1
  C  2813  1  0.35560000  0.36265500  0.97228000  1
  C  2814  1  0.35958700  0.37698500  0.96359700  1
  C  2816  1  0.37359700  0.38678400  0.98742000  1
  C  2818  1  0.38196400  0.39891600  0.99330900  1
  C  2820  1  0.37466000  0.36924600  0.01209300  1
  C  2822  1  0.35533700  0.37941000  0.94737500  1
  C  2824  1  0.14019700  0.63748600  0.49611600  1
  C  2826  1  0.15427900  0.64714300  0.47228100  1
  C  2827  1  0.15019500  0.63286900  0.46354900  1
  C  2829  1  0.13612600  0.62308200  0.48734200  1
  C  2831  1  0.12767300  0.61098900  0.49318900  1
  C  2833  1  0.13522300  0.64052500  0.51209300  1
  C  2835  1  0.15439600  0.63050900  0.44731000  1
  C  2837  1  0.51366200  0.64012900  0.87232700  1
  C  2839  1  0.53752000  0.65417100  0.86266600  1
  C  2840  1  0.54622800  0.65012200  0.87696500  1
  C  2842  1  0.52241200  0.63609300  0.88675400  1
  C  2844  1  0.51654300  0.62767700  0.89886200  1
  C  2846  1  0.49769700  0.63513100  0.86926500  1
  C  2848  1  0.56247100  0.65430900  0.87932900  1
  C  2850  1  0.01363500  0.86963300  0.13750300  1
  C  2852  1  0.03751300  0.85562900  0.14716800  1
  C  2853  1  0.04619000  0.85962200  0.13283500  1
  C  2855  1  0.02235100  0.87360700  0.12304000  1
  C  2857  1  0.01645400  0.88196900  0.11090900  1
  C  2859  1  0.99767600  0.87464000  0.14057700  1
  C  2861  1  0.06241600  0.85538900  0.13040900  1
  C  2863  1  0.99614800  0.36963700  0.37230200  1
  C  2865  1  0.97228100  0.35560500  0.36265100  1
  C  2866  1  0.96360000  0.35960900  0.37697800  1
  C  2868  1  0.98742600  0.37362600  0.38675800  1
  C  2870  1  0.99331600  0.38200500  0.39888000  1
  C  2872  1  0.01210900  0.37463900  0.36923100  1
  C  2874  1  0.94737800  0.35536500  0.37941000  1
  C  2876  1  0.49609600  0.14018600  0.63748000  1
  C  2878  1  0.47230400  0.15435900  0.64711200  1
  C  2879  1  0.46349300  0.15012600  0.63292600  1
  C  2881  1  0.48724900  0.13596700  0.62316400  1
  C  2883  1  0.49302900  0.12738300  0.61113300  1
  C  2885  1  0.51209200  0.13525000  0.64049000  1
  C  2887  1  0.44720300  0.15423700  0.63063900  1
  C  2889  1  0.87228700  0.51363000  0.64017700  1
  C  2891  1  0.86263400  0.53750000  0.65420000  1
  C  2892  1  0.87696100  0.54618200  0.65019400  1
  C  2894  1  0.88674500  0.52235100  0.63618700  1
  C  2896  1  0.89886700  0.51646000  0.62780700  1
  C  2898  1  0.86921600  0.49766900  0.63517500  1
  C  2900  1  0.87939200  0.56240500  0.65443300  1
  C  2902  1  0.13748100  0.01366200  0.86964100  1
  C  2904  1  0.14714000  0.03750500  0.85557300  1
  C  2905  1  0.13285400  0.04622500  0.85963500  1
  C  2907  1  0.12306600  0.02242400  0.87369000  1
  C  2909  1  0.11096400  0.01656700  0.88212300  1
  C  2911  1  0.14053900  0.99769800  0.87464300  1
  C  2913  1  0.13049000  0.06246400  0.85543500  1
  C  2915  1  0.37227300  0.99611800  0.36965900  1
  C  2917  1  0.36263300  0.97224800  0.35562600  1
  C  2918  1  0.37696400  0.96357200  0.35963100  1
  C  2920  1  0.38673500  0.98740500  0.37364400  1
  C  2922  1  0.39885500  0.99330200  0.38202300  1
  C  2924  1  0.36918600  0.01207200  0.37467400  1
  C  2926  1  0.37940100  0.94735100  0.35539200  1
  C  2928  1  0.63751900  0.49614700  0.14020200  1
  C  2930  1  0.64716300  0.47230300  0.15427600  1
  C  2931  1  0.63288500  0.46357900  0.15018900  1
  C  2933  1  0.62311100  0.48738300  0.13612700  1
  C  2935  1  0.61102200  0.49323600  0.12767500  1
  C  2937  1  0.64056700  0.51212400  0.13523300  1
  C  2939  1  0.63051700  0.44733800  0.15438100  1
  C  2941  1  0.62275200  0.88986800  0.74650500  1
  C  2943  1  0.61289200  0.90349200  0.72248900  1
  C  2944  1  0.62726300  0.89957200  0.71384400  1
  C  2946  1  0.63724900  0.88596100  0.73781400  1
  C  2948  1  0.64947100  0.87778300  0.74377900  1
  C  2950  1  0.61974300  0.88497500  0.76250900  1
  C  2952  1  0.62958200  0.90355800  0.69755100  1
  C  2954  1  0.88709700  0.11993400  0.24654100  1
  C  2956  1  0.89697700  0.10637300  0.22249900  1
  C  2957  1  0.88255400  0.11019600  0.21389600  1
  C  2959  1  0.87254300  0.12373500  0.23789700  1
  C  2961  1  0.86028100  0.13182500  0.24390100  1
  C  2963  1  0.89011900  0.12485100  0.26253400  1
  C  2965  1  0.88016900  0.10615700  0.19762200  1
  C  2967  1  0.12275200  0.61994100  0.26325300  1
  C  2969  1  0.11287900  0.60633400  0.28727300  1
  C  2970  1  0.12725700  0.61023400  0.29591400  1
  C  2972  1  0.13725800  0.62382600  0.27194000  1
  C  2974  1  0.14949100  0.63198500  0.26597200  1
  C  2976  1  0.11975100  0.62483400  0.24724600  1
  C  2978  1  0.12957900  0.60624100  0.31220400  1
  C  2980  1  0.38705200  0.38984900  0.76332300  1
  C  2982  1  0.39686900  0.40361800  0.78727300  1
  C  2983  1  0.38260800  0.39950500  0.79601600  1
  C  2985  1  0.37266200  0.38575300  0.77210400  1
  C  2987  1  0.36051900  0.37739700  0.76622400  1
  C  2989  1  0.39002500  0.38500500  0.74729500  1
  C  2991  1  0.38035600  0.40340600  0.81235500  1
  C  2993  1  0.38986400  0.76322700  0.38700300  1
  C  2995  1  0.40345300  0.78724700  0.39690200  1
  C  2996  1  0.39955100  0.79589900  0.38253200  1
  C  2998  1  0.38597700  0.77192500  0.37250500  1
  C  3000  1  0.37781900  0.76596500  0.36026600  1
  C  3002  1  0.38498400  0.74721400  0.38998800  1
  C  3004  1  0.40353400  0.81219300  0.38022500  1
  C  3006  1  0.61991300  0.26325500  0.12273700  1
  C  3008  1  0.60638100  0.28730700  0.11284000  1
  C  3009  1  0.61016500  0.29589400  0.12728000  1
  C  3011  1  0.62367700  0.27188700  0.13730600  1
  C  3013  1  0.63172800  0.26586700  0.14958600  1
  C  3015  1  0.62484800  0.24727000  0.11970700  1
  C  3017  1  0.60610900  0.31215800  0.12966100  1
  C  3019  1  0.11995800  0.24654600  0.88705300  1
  C  3021  1  0.10638800  0.22250800  0.89693100  1
  C  3022  1  0.11021200  0.21390400  0.88250900  1
  C  3024  1  0.12375900  0.23790100  0.87250100  1
  C  3026  1  0.13185400  0.24390200  0.86024100  1
  C  3028  1  0.12488800  0.26253400  0.89008000  1
  C  3030  1  0.10617000  0.19763100  0.88012500  1
  C  3032  1  0.88985500  0.74652600  0.62279100  1
  C  3034  1  0.90344400  0.72250500  0.61289300  1
  C  3035  1  0.89954300  0.71385500  0.62726600  1
  C  3037  1  0.88597100  0.73783100  0.63729200  1
  C  3039  1  0.87781700  0.74379300  0.64953100  1
  C  3041  1  0.88497500  0.76253800  0.61980400  1
  C  3043  1  0.90352500  0.69756100  0.62957600  1
  C  3045  1  0.26323600  0.12279900  0.61991600  1
  C  3047  1  0.28724600  0.11289100  0.60631500  1
  C  3048  1  0.29589700  0.12727000  0.61019200  1
  C  3050  1  0.27193200  0.13730500  0.62377700  1
  C  3052  1  0.26597400  0.14955200  0.63192200  1
  C  3054  1  0.24723300  0.11980700  0.62482700  1
  C  3056  1  0.31218900  0.12957200  0.60619500  1
  C  3058  1  0.76330800  0.38702000  0.38988300  1
  C  3060  1  0.78726400  0.39686200  0.40362900  1
  C  3061  1  0.79600200  0.38259400  0.39953900  1
  C  3063  1  0.77209100  0.37262500  0.38580500  1
  C  3065  1  0.76621100  0.36047300  0.37746300  1
  C  3067  1  0.74727500  0.38998000  0.38504700  1
  C  3069  1  0.81233400  0.38036000  0.40344500  1
  C  3071  1  0.74656000  0.62275900  0.88988400  1
  C  3073  1  0.72252200  0.61286800  0.90344600  1
  C  3074  1  0.71391300  0.62728700  0.89962600  1
  C  3076  1  0.73790800  0.63730700  0.88608100  1
  C  3078  1  0.74390500  0.64957400  0.87799500  1
  C  3080  1  0.76255300  0.61974300  0.88496400  1
  C  3082  1  0.69764000  0.62966600  0.90367100  1
  C  3084  1  0.24650900  0.88699800  0.11998800  1
  C  3086  1  0.22256200  0.89685900  0.10624300  1
  C  3087  1  0.21381000  0.88259700  0.11033000  1
  C  3089  1  0.23771700  0.87260500  0.12405800  1
  C  3091  1  0.24358900  0.86044300  0.13239100  1
  C  3093  1  0.26254100  0.88994700  0.12483500  1
  C  3095  1  0.19747000  0.88036300  0.10642400  1
  C  3097  1  0.36964500  0.13743600  0.49619000  1
  C  3099  1  0.35563900  0.14711600  0.47232100  1
  C  3100  1  0.35962200  0.13278400  0.46363700  1
  C  3102  1  0.37361300  0.12297400  0.48746700  1
  C  3104  1  0.38197200  0.11083800  0.49335600  1
  C  3106  1  0.37465700  0.14049900  0.51215000  1
  C  3108  1  0.35538200  0.13036300  0.44741400  1
  C  3110  1  0.14017600  0.87233400  0.99615400  1
  C  3112  1  0.15424300  0.86267500  0.97231200  1
  C  3113  1  0.15017100  0.87695600  0.96358700  1
  C  3115  1  0.13611600  0.88674500  0.98738800  1
  C  3117  1  0.12767600  0.89884200  0.99324200  1
  C  3119  1  0.13518500  0.86928200  0.01212300  1
  C  3121  1  0.15436700  0.87931700  0.94734600  1
  C  3123  1  0.64016600  0.63748500  0.01367100  1
  C  3125  1  0.65418700  0.64715700  0.03753600  1
  C  3126  1  0.65020400  0.63282500  0.04621900  1
  C  3128  1  0.63620400  0.62302000  0.02239200  1
  C  3130  1  0.62784200  0.61088600  0.01650300  1
  C  3132  1  0.63514000  0.64055700  0.99771900  1
  C  3134  1  0.65445000  0.63040200  0.06244200  1
  C  3136  1  0.86961300  0.37231800  0.51368400  1
  C  3138  1  0.85553500  0.36266100  0.53752200  1
  C  3139  1  0.85961900  0.37693400  0.54625400  1
  C  3141  1  0.87368500  0.38672100  0.52245700  1
  C  3143  1  0.88213600  0.39881500  0.51661000  1
  C  3145  1  0.87458500  0.36927900  0.49770700  1
  C  3147  1  0.85542100  0.37929300  0.56249300  1
  C  3149  1  0.49614000  0.36967700  0.13747000  1
  C  3151  1  0.47228300  0.35563700  0.14713500  1
  C  3152  1  0.46357200  0.35968600  0.13283800  1
  C  3154  1  0.48738900  0.37371300  0.12304500  1
  C  3156  1  0.49325600  0.38212800  0.11093600  1
  C  3158  1  0.51210600  0.37467300  0.14053000  1
  C  3160  1  0.44733100  0.35549900  0.13047600  1
  C  3162  1  0.99616300  0.14016900  0.87229800  1
  C  3164  1  0.97228600  0.15417400  0.86263200  1
  C  3165  1  0.96360700  0.15018000  0.87696500  1
  C  3167  1  0.98744500  0.13619400  0.88676200  1
  C  3169  1  0.99334300  0.12783100  0.89889200  1
  C  3171  1  0.01212200  0.13516200  0.86922400  1
  C  3173  1  0.94738300  0.15441300  0.87939200  1
  C  3175  1  0.01366000  0.64016700  0.63750300  1
  C  3177  1  0.03752700  0.65419800  0.64715300  1
  C  3178  1  0.04620800  0.65019400  0.63282500  1
  C  3180  1  0.02238100  0.63617700  0.62304700  1
  C  3182  1  0.01648900  0.62779800  0.61092500  1
  C  3184  1  0.99769900  0.63516500  0.64057500  1
  C  3186  1  0.06242900  0.65443800  0.63039200  1
  C  3188  1  0.51370200  0.86961800  0.37232600  1
  C  3190  1  0.53749400  0.85544700  0.36269200  1
  C  3191  1  0.54630600  0.85968000  0.37687700  1
  C  3193  1  0.52254900  0.87383900  0.38664000  1
  C  3195  1  0.51676900  0.88242300  0.39867200  1
  C  3197  1  0.49770400  0.87455300  0.36931600  1
  C  3199  1  0.56259600  0.85557000  0.37916400  1
  C  3201  1  0.13752800  0.49617500  0.36962500  1
  C  3203  1  0.14718100  0.47230300  0.35560400  1
  C  3204  1  0.13285100  0.46362200  0.35960900  1
  C  3206  1  0.12306900  0.48745600  0.37361300  1
  C  3208  1  0.11094700  0.49335000  0.38198900  1
  C  3210  1  0.14060200  0.51213500  0.37462700  1
  C  3212  1  0.13041900  0.44739900  0.35537100  1
  C  3214  1  0.87231700  0.99613800  0.14015500  1
  C  3216  1  0.86265900  0.97229700  0.15422800  1
  C  3217  1  0.87694400  0.96357600  0.15016400  1
  C  3219  1  0.88673200  0.98737600  0.13610700  1
  C  3221  1  0.89883400  0.99323200  0.12767300  1
  C  3223  1  0.86926000  0.01210300  0.13515500  1
  C  3225  1  0.87930700  0.94733800  0.15436500  1
  C  3227  1  0.63752100  0.01368200  0.64014800  1
  C  3229  1  0.64716100  0.03755100  0.65418300  1
  C  3230  1  0.63283100  0.04622800  0.65017700  1
  C  3232  1  0.62305900  0.02239700  0.63616100  1
  C  3234  1  0.61094200  0.01650100  0.62777900  1
  C  3236  1  0.64060700  0.99772800  0.63513200  1
  C  3238  1  0.63039500  0.06245000  0.65441600  1
  C  3240  1  0.37227700  0.51366400  0.86960500  1
  C  3242  1  0.36263400  0.53750900  0.85552800  1
  C  3243  1  0.37691400  0.54623000  0.85961100  1
  C  3245  1  0.38668700  0.52242800  0.87367400  1
  C  3247  1  0.39877700  0.51657400  0.88212500  1
  C  3249  1  0.36922600  0.49769000  0.87457700  1
  C  3251  1  0.37928400  0.56247000  0.85541400  1
  C  3253  1  0.38705200  0.11993500  0.26330300  1
  C  3255  1  0.39691300  0.10631500  0.28732000  1
  C  3256  1  0.38254000  0.11023100  0.29596400  1
  C  3258  1  0.37255200  0.12383700  0.27199200  1
  C  3260  1  0.36032800  0.13201200  0.26602400  1
  C  3262  1  0.39006300  0.12482900  0.24730000  1
  C  3264  1  0.38022000  0.10624600  0.31225700  1
  C  3266  1  0.12271100  0.88987100  0.76325800  1
  C  3268  1  0.11282800  0.90342800  0.78730100  1
  C  3269  1  0.12725200  0.89960800  0.79590400  1
  C  3271  1  0.13726500  0.88607300  0.77190200  1
  C  3273  1  0.14952900  0.87798500  0.76589800  1
  C  3275  1  0.11969000  0.88495400  0.74726500  1
  C  3277  1  0.12963600  0.90364500  0.81217800  1
  C  3279  1  0.88705900  0.38985800  0.74655400  1
  C  3281  1  0.89693700  0.40346400  0.72253500  1
  C  3282  1  0.88255900  0.39956500  0.71389100  1
  C  3284  1  0.87255400  0.38597400  0.73786400  1
  C  3286  1  0.86031900  0.37781500  0.74383000  1
  C  3288  1  0.89005700  0.38496600  0.76256000  1
  C  3290  1  0.88024100  0.40355800  0.69760000  1
  C  3292  1  0.62271700  0.61995600  0.24650100  1
  C  3294  1  0.61290500  0.60619000  0.22254500  1
  C  3295  1  0.62716900  0.61030200  0.21380800  1
  C  3297  1  0.63711000  0.62405100  0.23772300  1
  C  3299  1  0.64925300  0.63240600  0.24360700  1
  C  3301  1  0.61974000  0.62480200  0.26252800  1
  C  3303  1  0.62942500  0.60640200  0.19746800  1
  C  3305  1  0.61994000  0.24657600  0.62281300  1
  C  3307  1  0.60636900  0.22255300  0.61289900  1
  C  3308  1  0.61025100  0.21390400  0.62727800  1
  C  3310  1  0.62380600  0.23788300  0.63732000  1
  C  3312  1  0.63194500  0.24384600  0.64957000  1
  C  3314  1  0.62482700  0.26258700  0.61982900  1
  C  3316  1  0.60626900  0.19760900  0.62958300  1
  C  3318  1  0.38989200  0.74654600  0.88705700  1
  C  3320  1  0.40342800  0.72249600  0.89694900  1
  C  3321  1  0.39964000  0.71390900  0.88250900  1
  C  3323  1  0.38612600  0.73791500  0.87248700  1
  C  3325  1  0.37807200  0.74393300  0.86020800  1
  C  3327  1  0.38495600  0.76253100  0.89008600  1
  C  3329  1  0.40369700  0.69764500  0.88012900  1
  C  3331  1  0.88984100  0.76325200  0.12275900  1
  C  3333  1  0.90341100  0.78728900  0.11287800  1
  C  3334  1  0.89958700  0.79589500  0.12729800  1
  C  3336  1  0.88604000  0.77189800  0.13731000  1
  C  3338  1  0.87794600  0.76589800  0.14956900  1
  C  3340  1  0.88491100  0.74726400  0.11973100  1
  C  3342  1  0.90362800  0.81216800  0.12968100  1
  C  3344  1  0.11994900  0.26327600  0.38700800  1
  C  3346  1  0.10636400  0.28729700  0.39690800  1
  C  3347  1  0.11026300  0.29594800  0.38253400  1
  C  3349  1  0.12383200  0.27197100  0.37250700  1
  C  3351  1  0.13198400  0.26600800  0.36026600  1
  C  3353  1  0.12482800  0.24726200  0.38999300  1
  C  3355  1  0.10628200  0.31224200  0.38022700  1
  C  3357  1  0.74656500  0.88700700  0.38988600  1
  C  3359  1  0.72255500  0.89691500  0.40348500  1
  C  3360  1  0.71390200  0.88253600  0.39960800  1
  C  3362  1  0.73786700  0.87250200  0.38602400  1
  C  3364  1  0.74382500  0.86025300  0.37787800  1
  C  3366  1  0.76256700  0.88999700  0.38497400  1
  C  3368  1  0.69761100  0.88023500  0.40360400  1
  C  3370  1  0.24650400  0.62279600  0.61990000  1
  C  3372  1  0.22254900  0.61295300  0.60615600  1
  C  3373  1  0.21380900  0.62721800  0.61025200  1
  C  3375  1  0.23771900  0.63718600  0.62398700  1
  C  3377  1  0.24359600  0.64933600  0.63233500  1
  C  3379  1  0.26253700  0.61983700  0.62473600  1
  C  3381  1  0.19747600  0.62945000  0.60634800  1
  C  3383  1  0.26323800  0.38704500  0.11992000  1
  C  3385  1  0.28727400  0.39693500  0.10635700  1
  C  3386  1  0.29588300  0.38251600  0.11017800  1
  C  3388  1  0.27189000  0.37249700  0.12372300  1
  C  3390  1  0.26589300  0.36023200  0.13181200  1
  C  3392  1  0.24724500  0.39005900  0.12484000  1
  C  3394  1  0.31215700  0.38013800  0.10613300  1
  C  3396  1  0.76329500  0.12278800  0.88980600  1
  C  3398  1  0.78724400  0.11292900  0.90354900  1
  C  3399  1  0.79599400  0.12719500  0.89946400  1
  C  3401  1  0.77208400  0.13718200  0.88573800  1
  C  3403  1  0.76620900  0.14934400  0.87740600  1
  C  3405  1  0.74726300  0.11983500  0.88496000  1
  C  3407  1  0.81233400  0.12943100  0.90337000  1
  N  41  1  0.06798300  0.35542000  0.89368800  1
  N  42  1  0.11956300  0.27121800  0.90205500  1
  N  43  1  0.14021800  0.35658500  0.98860900  1
  N  44  1  0.19135100  0.36631700  0.90433900  1
  N  86  1  0.44184300  0.65441700  0.39369600  1
  N  87  1  0.39022000  0.73856000  0.40202400  1
  N  88  1  0.36961500  0.65322300  0.48862800  1
  N  89  1  0.31849400  0.64337500  0.40429700  1
  N  131  1  0.94184900  0.85532700  0.61601800  1
  N  132  1  0.89021600  0.77119400  0.60777300  1
  N  133  1  0.86951800  0.85654100  0.52117200  1
  N  134  1  0.81845100  0.86633500  0.60542300  1
  N  176  1  0.56793200  0.15440900  0.11593800  1
  N  177  1  0.61952600  0.23858600  0.10773300  1
  N  178  1  0.64024100  0.15326500  0.02113700  1
  N  179  1  0.69134000  0.14352800  0.10543700  1
  N  221  1  0.89379300  0.06799500  0.35539200  1
  N  222  1  0.90211000  0.11954600  0.27120800  1
  N  223  1  0.98866900  0.14026800  0.35658700  1
  N  224  1  0.90435600  0.19137400  0.36627600  1
  N  266  1  0.39386000  0.44189400  0.65447900  1
  N  267  1  0.40207500  0.39022500  0.73865000  1
  N  268  1  0.48865400  0.36953900  0.65325000  1
  N  269  1  0.40437200  0.31848100  0.64355000  1
  N  311  1  0.61602300  0.94188000  0.85534700  1
  N  312  1  0.60773600  0.89026300  0.77117200  1
  N  313  1  0.52115900  0.86960700  0.85653000  1
  N  314  1  0.60546300  0.81849900  0.86627400  1
  N  356  1  0.11591900  0.56799100  0.15446400  1
  N  357  1  0.10772000  0.61958800  0.23859200  1
  N  358  1  0.02109900  0.64029800  0.15325400  1
  N  359  1  0.10544600  0.69137900  0.14348300  1
  N  401  1  0.35535900  0.89383500  0.06799500  1
  N  402  1  0.27118000  0.90202300  0.11966800  1
  N  403  1  0.35652400  0.98862900  0.14028200  1
  N  404  1  0.36631900  0.90433300  0.19138800  1
  N  446  1  0.65446000  0.39379100  0.44186600  1
  N  447  1  0.73864300  0.40205300  0.39023200  1
  N  448  1  0.65327500  0.48864500  0.36959400  1
  N  449  1  0.64354100  0.40436600  0.31847400  1
  N  491  1  0.85537500  0.61592700  0.94186000  1
  N  492  1  0.77123200  0.60775500  0.89026300  1
  N  493  1  0.85655200  0.52114100  0.86951200  1
  N  494  1  0.86634200  0.60541600  0.81844600  1
  N  536  1  0.15445800  0.11593600  0.56796600  1
  N  537  1  0.23857000  0.10777400  0.61960300  1
  N  538  1  0.15326400  0.02112400  0.64024300  1
  N  539  1  0.14338600  0.10547600  0.69133500  1
  N  581  1  0.10517500  0.31803200  0.36553000  1
  N  582  1  0.02082400  0.36929100  0.35728800  1
  N  583  1  0.10618300  0.39047600  0.27075700  1
  N  584  1  0.11581200  0.44130300  0.35525600  1
  N  626  1  0.40469300  0.69178500  0.86545700  1
  N  627  1  0.48898800  0.64045400  0.85730600  1
  N  628  1  0.40362600  0.61930600  0.77073200  1
  N  629  1  0.39392700  0.56850400  0.85519600  1
  N  671  1  0.60515300  0.19181900  0.64427900  1
  N  672  1  0.52077600  0.14049600  0.65250100  1
  N  673  1  0.60613900  0.11937500  0.73903400  1
  N  674  1  0.61578700  0.06854300  0.65453100  1
  N  716  1  0.90463500  0.81801000  0.14435300  1
  N  717  1  0.98895900  0.86929100  0.15251900  1
  N  718  1  0.90363000  0.89048600  0.23908200  1
  N  719  1  0.89394600  0.94129000  0.15457200  1
  N  761  1  0.81801500  0.14415900  0.90455900  1
  N  762  1  0.86928900  0.15247700  0.98896400  1
  N  763  1  0.89041700  0.23899000  0.90360400  1
  N  764  1  0.94127700  0.15452700  0.89399500  1
  N  806  1  0.19178100  0.64418100  0.60516400  1
  N  807  1  0.14052600  0.65249900  0.52079600  1
  N  808  1  0.11938800  0.73902600  0.60613900  1
  N  809  1  0.06852900  0.65454500  0.61578700  1
  N  851  1  0.69179500  0.86554500  0.40466200  1
  N  852  1  0.64047800  0.85736600  0.48893300  1
  N  853  1  0.61931100  0.77078400  0.40362500  1
  N  854  1  0.56852400  0.85525800  0.39384300  1
  N  896  1  0.31801000  0.36546900  0.10515800  1
  N  897  1  0.36930100  0.35732000  0.02082400  1
  N  898  1  0.39047100  0.27076100  0.10614300  1
  N  899  1  0.44129500  0.35525600  0.11583400  1
  N  941  1  0.64415900  0.60522100  0.19180300  1
  N  942  1  0.65253000  0.52082700  0.14055400  1
  N  943  1  0.73902800  0.60622200  0.11940600  1
  N  944  1  0.65455200  0.61580100  0.06855400  1
  N  986  1  0.14430900  0.90465200  0.81801700  1
  N  987  1  0.15249000  0.98898100  0.86931600  1
  N  988  1  0.23904700  0.90362000  0.89047600  1
  N  989  1  0.15458600  0.89395600  0.94130300  1
  N  1031  1  0.36552000  0.10515600  0.31804100  1
  N  1032  1  0.35726500  0.02079600  0.36929400  1
  N  1033  1  0.27073400  0.10616300  0.39045400  1
  N  1034  1  0.35524600  0.11575700  0.44131400  1
  N  1076  1  0.86554100  0.40464000  0.69181000  1
  N  1077  1  0.85728200  0.48895000  0.64053400  1
  N  1078  1  0.77073600  0.40361500  0.61936200  1
  N  1079  1  0.85522700  0.39393000  0.56854500  1
  N  1121  1  0.94181200  0.65437500  0.11612400  1
  N  1122  1  0.89023600  0.73857900  0.10775800  1
  N  1123  1  0.86957400  0.65323000  0.02120200  1
  N  1124  1  0.81844000  0.64348700  0.10547600  1
  N  1166  1  0.56795800  0.35532700  0.61595100  1
  N  1167  1  0.61961000  0.27124000  0.60778500  1
  N  1168  1  0.64024600  0.35655300  0.52114200  1
  N  1169  1  0.69133900  0.36642400  0.60551200  1
  N  1211  1  0.06795700  0.15447500  0.39378200  1
  N  1212  1  0.11959100  0.23860700  0.40202600  1
  N  1213  1  0.14028800  0.15326100  0.48862800  1
  N  1214  1  0.19135900  0.14346700  0.40438100  1
  N  1256  1  0.44187600  0.85539500  0.89386500  1
  N  1257  1  0.39028100  0.77121600  0.90206000  1
  N  1258  1  0.36956000  0.85653100  0.98865800  1
  N  1259  1  0.31846500  0.86627400  0.90435800  1
  N  1301  1  0.11601300  0.94180800  0.65441000  1
  N  1302  1  0.10769700  0.89025600  0.73859300  1
  N  1303  1  0.02113700  0.86953500  0.65321400  1
  N  1304  1  0.10544900  0.81843000  0.64352400  1
  N  1346  1  0.61591200  0.56791400  0.35533100  1
  N  1347  1  0.60769100  0.61957900  0.27117200  1
  N  1348  1  0.52110200  0.64026100  0.35657200  1
  N  1349  1  0.60540400  0.69132600  0.36626700  1
  N  1391  1  0.39378500  0.06793800  0.15444900  1
  N  1392  1  0.40206900  0.11954200  0.23863700  1
  N  1393  1  0.48865100  0.14019900  0.15328100  1
  N  1394  1  0.40434700  0.19131000  0.14353600  1
  N  1436  1  0.89387600  0.44180600  0.85534400  1
  N  1437  1  0.90208700  0.39021100  0.77121700  1
  N  1438  1  0.98869700  0.36949900  0.85656000  1
  N  1439  1  0.90435400  0.31841500  0.86632500  1
  N  1481  1  0.65444800  0.11595300  0.94180600  1
  N  1482  1  0.73862500  0.10775700  0.89012500  1
  N  1483  1  0.65324800  0.02115500  0.86953300  1
  N  1484  1  0.64348200  0.10545700  0.81841500  1
  N  1526  1  0.35537200  0.61600000  0.56790700  1
  N  1527  1  0.27117100  0.60776600  0.61954800  1
  N  1528  1  0.35652000  0.52116900  0.64020000  1
  N  1529  1  0.36626900  0.60545100  0.69130900  1
  N  1571  1  0.15442400  0.39387100  0.06793800  1
  N  1572  1  0.23856500  0.40204800  0.11953900  1
  N  1573  1  0.15324300  0.48865700  0.14029100  1
  N  1574  1  0.14345600  0.40438500  0.19135400  1
  N  1616  1  0.85534600  0.89386700  0.44183400  1
  N  1617  1  0.77123200  0.90203200  0.39019800  1
  N  1618  1  0.85653900  0.98868000  0.36956000  1
  N  1619  1  0.86641400  0.90432800  0.31846600  1
  N  1661  1  0.90463100  0.69177200  0.64427300  1
  N  1662  1  0.98898500  0.64051400  0.65251800  1
  N  1663  1  0.90362100  0.61932800  0.73904700  1
  N  1664  1  0.89399900  0.56850300  0.65454800  1
  N  1706  1  0.60511500  0.31801900  0.14433100  1
  N  1707  1  0.52081600  0.36935200  0.15248800  1
  N  1708  1  0.60618000  0.39049900  0.23905500  1
  N  1709  1  0.61587400  0.44130300  0.15459700  1
  N  1751  1  0.40464300  0.81798400  0.36552800  1
  N  1752  1  0.48902100  0.86930900  0.35730400  1
  N  1753  1  0.40366200  0.89042200  0.27077000  1
  N  1754  1  0.39401000  0.94125800  0.35527400  1
  N  1796  1  0.10516400  0.19179100  0.86545200  1
  N  1797  1  0.02083900  0.14051000  0.85728300  1
  N  1798  1  0.10617000  0.11931700  0.77072100  1
  N  1799  1  0.11585300  0.06851100  0.85522700  1
  N  1841  1  0.19178600  0.86563600  0.10523900  1
  N  1842  1  0.14051400  0.85732900  0.02083700  1
  N  1843  1  0.11937600  0.77081400  0.10618000  1
  N  1844  1  0.06852000  0.85527400  0.11580400  1
  N  1886  1  0.81802700  0.36563000  0.40463200  1
  N  1887  1  0.86928300  0.35730500  0.48900500  1
  N  1888  1  0.89041700  0.27077800  0.40365900  1
  N  1889  1  0.94127800  0.35525800  0.39401600  1
  N  1931  1  0.31800400  0.14426200  0.60513800  1
  N  1932  1  0.36932000  0.15244200  0.52087000  1
  N  1933  1  0.39048300  0.23902300  0.60618300  1
  N  1934  1  0.44127500  0.15454900  0.61596000  1
  N  1976  1  0.69178800  0.64433500  0.90465100  1
  N  1977  1  0.64049300  0.65248700  0.98899000  1
  N  1978  1  0.61933200  0.73904600  0.90366700  1
  N  1979  1  0.56850500  0.65455000  0.89397200  1
  N  2021  1  0.36562200  0.40459400  0.81802100  1
  N  2022  1  0.35726100  0.48898800  0.86926000  1
  N  2023  1  0.27075900  0.40359200  0.89041500  1
  N  2024  1  0.35523700  0.39401100  0.94126400  1
  N  2066  1  0.86549600  0.10515000  0.19178300  1
  N  2067  1  0.85731100  0.02082000  0.14048500  1
  N  2068  1  0.77076000  0.10618500  0.11932300  1
  N  2069  1  0.85522100  0.11584800  0.06849800  1
  N  2111  1  0.64428200  0.90464100  0.69176400  1
  N  2112  1  0.65252700  0.98900300  0.64051400  1
  N  2113  1  0.73906300  0.90366200  0.61934300  1
  N  2114  1  0.65455000  0.89404600  0.56849000  1
  N  2156  1  0.14427900  0.60516000  0.31799500  1
  N  2157  1  0.15253700  0.52085400  0.36926800  1
  N  2158  1  0.23908400  0.60619100  0.39045300  1
  N  2159  1  0.15459100  0.61587300  0.44125800  1
  N  2162  1  0.14922800  0.36090300  0.02129600  1
  N  2165  1  0.14270500  0.38914600  0.03662600  1
  N  2169  1  0.12640100  0.41184000  0.00786100  1
  N  2175  1  0.36059500  0.64890600  0.52128800  1
  N  2178  1  0.36720100  0.62070100  0.53665400  1
  N  2182  1  0.38355800  0.59802000  0.50790600  1
  N  2188  1  0.86044300  0.86088900  0.48848000  1
  N  2191  1  0.86705600  0.88911000  0.47314600  1
  N  2195  1  0.88342300  0.91175800  0.50191300  1
  N  2201  1  0.64928200  0.14893200  0.98843400  1
  N  2204  1  0.64272400  0.12069000  0.97311500  1
  N  2208  1  0.62645100  0.09800600  0.00190600  1
  N  2214  1  0.02131900  0.14929300  0.36089000  1
  N  2217  1  0.03670100  0.14266500  0.38908300  1
  N  2221  1  0.00797000  0.12627500  0.41176200  1
  N  2227  1  0.52132200  0.36059000  0.64894700  1
  N  2230  1  0.53660900  0.36696400  0.62064500  1
  N  2234  1  0.50779800  0.38311900  0.59790200  1
  N  2240  1  0.48849000  0.86064200  0.86085800  1
  N  2243  1  0.47319600  0.86708400  0.88913900  1
  N  2247  1  0.50199600  0.88330300  0.91184900  1
  N  2253  1  0.98844400  0.64949200  0.14890000  1
  N  2256  1  0.97293200  0.64235100  0.12090600  1
  N  2260  1  0.00157000  0.62555500  0.09840000  1
  N  2266  1  0.36087400  0.02132400  0.14937100  1
  N  2269  1  0.38904200  0.03669400  0.14260900  1
  N  2273  1  0.41165600  0.00793500  0.12617800  1
  N  2279  1  0.64894000  0.52131700  0.36064600  1
  N  2282  1  0.62062600  0.53658300  0.36701800  1
  N  2286  1  0.59790200  0.50775500  0.38316800  1
  N  2292  1  0.86089300  0.48843600  0.86046300  1
  N  2295  1  0.88912700  0.47311800  0.86706100  1
  N  2299  1  0.91178800  0.50191400  0.88335500  1
  N  2305  1  0.14892000  0.98842500  0.64934200  1
  N  2308  1  0.12075300  0.97305400  0.64257700  1
  N  2312  1  0.09813100  0.00182100  0.62617100  1
  N  2318  1  0.11057800  0.39985800  0.23819200  1
  N  2321  1  0.13862800  0.39292600  0.22268400  1
  N  2325  1  0.16108700  0.37587600  0.25121000  1
  N  2331  1  0.39922400  0.60994500  0.73815700  1
  N  2334  1  0.37111500  0.61676800  0.72270700  1
  N  2338  1  0.34864200  0.63371600  0.75128000  1
  N  2344  1  0.61057000  0.10997700  0.77159700  1
  N  2347  1  0.63863300  0.11690800  0.78708400  1
  N  2351  1  0.66106300  0.13396900  0.75854300  1
  N  2357  1  0.89919400  0.90001300  0.27165000  1
  N  2360  1  0.87131000  0.89267800  0.28727000  1
  N  2364  1  0.84898500  0.87531800  0.25882000  1
  N  2370  1  0.89986600  0.27156700  0.89918700  1
  N  2373  1  0.89285100  0.28710200  0.87117200  1
  N  2377  1  0.87567900  0.25861500  0.84876000  1
  N  2383  1  0.11001100  0.77159200  0.61056200  1
  N  2386  1  0.11681500  0.78704800  0.63867200  1
  N  2390  1  0.13381500  0.75849900  0.66113500  1
  N  2396  1  0.60986200  0.73817900  0.39919600  1
  N  2399  1  0.61680300  0.72269800  0.37113500  1
  N  2403  1  0.63386000  0.75124100  0.34870700  1
  N  2409  1  0.39991800  0.23815400  0.11058400  1
  N  2412  1  0.39297500  0.22268900  0.13865500  1
  N  2416  1  0.37593800  0.25125000  0.16107500  1
  N  2422  1  0.77158000  0.61062300  0.10999600  1
  N  2425  1  0.78710600  0.63866100  0.11693200  1
  N  2429  1  0.75861500  0.66110700  0.13405500  1
  N  2435  1  0.27162700  0.89923000  0.89980500  1
  N  2438  1  0.28706500  0.87110300  0.89303300  1
  N  2442  1  0.25847500  0.84859700  0.87616100  1
  N  2448  1  0.23818700  0.11056700  0.39983000  1
  N  2451  1  0.22269500  0.13863800  0.39294600  1
  N  2455  1  0.25123300  0.16110300  0.37592200  1
  N  2461  1  0.73817500  0.39918300  0.60981200  1
  N  2464  1  0.72253000  0.37132000  0.61717600  1
  N  2468  1  0.75094400  0.34900800  0.63460600  1
  N  2474  1  0.86053300  0.64889400  0.98850300  1
  N  2477  1  0.86711200  0.62066700  0.97316700  1
  N  2481  1  0.88345700  0.59799800  0.00192800  1
  N  2487  1  0.64927500  0.36087300  0.48847700  1
  N  2490  1  0.64266000  0.38908500  0.47312600  1
  N  2494  1  0.62635000  0.41176400  0.50190400  1
  N  2500  1  0.14936200  0.14891200  0.52132100  1
  N  2503  1  0.14274900  0.12069200  0.53665400  1
  N  2507  1  0.12638100  0.09804500  0.50788900  1
  N  2513  1  0.36051100  0.86086200  0.02136000  1
  N  2516  1  0.36708000  0.88909800  0.03668500  1
  N  2520  1  0.38337100  0.91177800  0.00790200  1
  N  2526  1  0.98848800  0.86051000  0.64891100  1
  N  2529  1  0.97310500  0.86713500  0.62071800  1
  N  2533  1  0.00183700  0.88352400  0.59803900  1
  N  2539  1  0.48847100  0.64939200  0.36089900  1
  N  2542  1  0.47299600  0.64244700  0.38896600  1
  N  2546  1  0.50165500  0.62577300  0.41153400  1
  N  2552  1  0.52132100  0.14916600  0.14894900  1
  N  2555  1  0.53661200  0.14272200  0.12066600  1
  N  2559  1  0.50780700  0.12650800  0.09795900  1
  N  2565  1  0.02135200  0.36030600  0.86091400  1
  N  2568  1  0.03686500  0.36744900  0.88890700  1
  N  2572  1  0.00822800  0.38424700  0.91141300  1
  N  2578  1  0.64894100  0.98849200  0.86053300  1
  N  2581  1  0.62072400  0.97314400  0.86713300  1
  N  2585  1  0.59803700  0.00192100  0.88343200  1
  N  2591  1  0.36084600  0.48849800  0.64915700  1
  N  2594  1  0.38915300  0.47322200  0.64278100  1
  N  2598  1  0.41188400  0.50204000  0.62662300  1
  N  2604  1  0.14890000  0.52136100  0.14934100  1
  N  2607  1  0.12066800  0.53668000  0.14274200  1
  N  2611  1  0.09800700  0.50788600  0.12644200  1
  N  2617  1  0.86088300  0.02137900  0.36046100  1
  N  2620  1  0.88905000  0.03674800  0.36722600  1
  N  2624  1  0.91167400  0.00798000  0.38363000  1
  N  2630  1  0.89922400  0.60994600  0.77161200  1
  N  2633  1  0.87117100  0.61687500  0.78711700  1
  N  2637  1  0.84871500  0.63392500  0.75859000  1
  N  2643  1  0.61058500  0.39986500  0.27162700  1
  N  2646  1  0.63869200  0.39304400  0.28707800  1
  N  2650  1  0.66116400  0.37608900  0.25850700  1
  N  2656  1  0.39923400  0.89980900  0.23820400  1
  N  2659  1  0.37116500  0.89288800  0.22272200  1
  N  2663  1  0.34872700  0.87585200  0.25127200  1
  N  2669  1  0.11060600  0.10979000  0.73815100  1
  N  2672  1  0.13849100  0.11712600  0.72253300  1
  N  2676  1  0.16081500  0.13448400  0.75098300  1
  N  2682  1  0.10989600  0.73822500  0.11061900  1
  N  2685  1  0.11696600  0.72268500  0.13861700  1
  N  2689  1  0.13418000  0.75116900  0.16100200  1
  N  2695  1  0.89978900  0.23821200  0.39923800  1
  N  2698  1  0.89299300  0.22275700  0.37112600  1
  N  2702  1  0.87600000  0.25130700  0.34865800  1
  N  2708  1  0.39993000  0.27163000  0.61061500  1
  N  2711  1  0.39298200  0.28710600  0.63867800  1
  N  2715  1  0.37592800  0.25855700  0.66110200  1
  N  2721  1  0.60988600  0.77165200  0.89922500  1
  N  2724  1  0.61683200  0.78711900  0.87115600  1
  N  2728  1  0.63387200  0.75855800  0.84873700  1
  N  2734  1  0.23820800  0.39918600  0.89982700  1
  N  2737  1  0.22268300  0.37114900  0.89288400  1
  N  2741  1  0.25117600  0.34871000  0.87575200  1
  N  2747  1  0.73817900  0.11057400  0.10999300  1
  N  2750  1  0.72274000  0.13870000  0.11676400  1
  N  2754  1  0.75132800  0.16120600  0.13364100  1
  N  2760  1  0.77162700  0.89923700  0.60994000  1
  N  2763  1  0.78712000  0.87117800  0.61687100  1
  N  2767  1  0.75858200  0.84874300  0.63393300  1
  N  2773  1  0.27163800  0.61062700  0.40002900  1
  N  2776  1  0.28729600  0.63847900  0.39265400  1
  N  2780  1  0.25890100  0.66078200  0.37517800  1
  N  2786  1  0.64904100  0.86097700  0.52181100  1
  N  2789  1  0.64127500  0.88839000  0.53801200  1
  N  2793  1  0.62044100  0.90964500  0.51121500  1
  N  2799  1  0.86066500  0.14883100  0.02181400  1
  N  2802  1  0.86861100  0.12151700  0.03809500  1
  N  2806  1  0.88958300  0.10032300  0.01135600  1
  N  2812  1  0.36073000  0.36093400  0.98794800  1
  N  2815  1  0.36849400  0.38834900  0.97174900  1
  N  2819  1  0.38935300  0.40958800  0.99854000  1
  N  2825  1  0.14917400  0.64883900  0.48795800  1
  N  2828  1  0.14120600  0.62154200  0.47166100  1
  N  2832  1  0.12020900  0.60035200  0.49838500  1
  N  2838  1  0.52184400  0.64906700  0.86095900  1
  N  2841  1  0.53809400  0.64116800  0.88830500  1
  N  2845  1  0.51132700  0.62024600  0.90951300  1
  N  2851  1  0.02184100  0.86074000  0.14888900  1
  N  2854  1  0.03802800  0.86852000  0.12147300  1
  N  2858  1  0.01121500  0.88935400  0.10023700  1
  N  2864  1  0.98795100  0.36072200  0.36092800  1
  N  2867  1  0.97175400  0.36852900  0.38832900  1
  N  2871  1  0.99855000  0.38940400  0.40954600  1
  N  2877  1  0.48799000  0.14927400  0.64878200  1
  N  2880  1  0.47155400  0.14101500  0.62165700  1
  N  2884  1  0.49817100  0.11980400  0.60054900  1
  N  2890  1  0.86091100  0.52182900  0.64908700  1
  N  2893  1  0.88831400  0.53802600  0.64127900  1
  N  2897  1  0.90953100  0.51122600  0.62040800  1
  N  2903  1  0.14884400  0.02183100  0.86068400  1
  N  2906  1  0.12151900  0.03810400  0.86860700  1
  N  2910  1  0.10031800  0.01136200  0.88957000  1
  N  2916  1  0.36089900  0.98791600  0.36074700  1
  N  2919  1  0.38831400  0.97173300  0.36854900  1
  N  2923  1  0.40951600  0.99854000  0.38942400  1
  N  2929  1  0.64886700  0.48798000  0.14917800  1
  N  2932  1  0.62156200  0.47169900  0.14120100  1
  N  2936  1  0.60038600  0.49843900  0.12021200  1
  N  2942  1  0.61125000  0.89853500  0.73821800  1
  N  2945  1  0.63873500  0.89088500  0.72207800  1
  N  2949  1  0.66022100  0.87055500  0.74907800  1
  N  2955  1  0.89863300  0.11134500  0.23822300  1
  N  2958  1  0.87104300  0.11879400  0.22216900  1
  N  2962  1  0.84949600  0.13897600  0.24923100  1
  N  2968  1  0.11124100  0.61128900  0.27154200  1
  N  2971  1  0.13874000  0.61890200  0.28767500  1
  N  2975  1  0.16025200  0.63919700  0.26067100  1
  N  2981  1  0.39848300  0.39867700  0.77153600  1
  N  2984  1  0.37121200  0.39065100  0.78785000  1
  N  2988  1  0.34984100  0.37001200  0.76099600  1
  N  2994  1  0.39850800  0.77151100  0.39852300  1
  N  2997  1  0.39089000  0.78766600  0.37103900  1
  N  3001  1  0.37060700  0.76067200  0.34950300  1
  N  3007  1  0.61135500  0.27158400  0.11118400  1
  N  3010  1  0.61873100  0.28761300  0.13881000  1
  N  3014  1  0.63884600  0.26052400  0.16038700  1
  N  3020  1  0.11136400  0.23823000  0.89858700  1
  N  3023  1  0.11881500  0.22217400  0.87099900  1
  N  3027  1  0.13901000  0.24923100  0.84945800  1
  N  3033  1  0.89849800  0.73824000  0.61127100  1
  N  3036  1  0.89088400  0.72209000  0.63875900  1
  N  3040  1  0.87061000  0.74909000  0.66029700  1
  N  3046  1  0.27151600  0.11126900  0.61128200  1
  N  3049  1  0.28766800  0.13877000  0.61884700  1
  N  3053  1  0.26068100  0.16032500  0.63912100  1
  N  3059  1  0.77152500  0.39846600  0.39869000  1
  N  3062  1  0.78783900  0.37118400  0.39070100  1
  N  3066  1  0.76098700  0.34978500  0.37009000  1
  N  3072  1  0.73824600  0.61122000  0.89847500  1
  N  3075  1  0.72218000  0.63880200  0.89102600  1
  N  3079  1  0.74923300  0.66036100  0.87084500  1
  N  3085  1  0.23830100  0.89845200  0.11118600  1
  N  3088  1  0.22196900  0.87117700  0.11915900  1
  N  3092  1  0.24880900  0.84974600  0.13975400  1
  N  3098  1  0.36075300  0.14882800  0.48799300  1
  N  3101  1  0.36851900  0.12141500  0.47179200  1
  N  3105  1  0.38935600  0.10016200  0.49858900  1
  N  3111  1  0.14913800  0.86097500  0.98798800  1
  N  3114  1  0.14119500  0.88828900  0.97170600  1
  N  3118  1  0.12022500  0.90948600  0.99844500  1
  N  3124  1  0.64906100  0.64887500  0.02186800  1
  N  3127  1  0.64130300  0.62145800  0.03806500  1
  N  3131  1  0.62045700  0.60021000  0.01127000  1
  N  3137  1  0.86063800  0.36096400  0.52184400  1
  N  3140  1  0.86860800  0.38826200  0.53813900  1
  N  3144  1  0.88960000  0.40945200  0.51141500  1
  N  3150  1  0.48796000  0.36074000  0.14884100  1
  N  3153  1  0.47170500  0.36863900  0.12149700  1
  N  3157  1  0.49847100  0.38955900  0.10028400  1
  N  3163  1  0.98795700  0.14906100  0.86091100  1
  N  3166  1  0.97176900  0.14128000  0.88832800  1
  N  3170  1  0.99858100  0.12044600  0.90956300  1
  N  3176  1  0.02185700  0.64908100  0.64887800  1
  N  3179  1  0.03805300  0.64127400  0.62147500  1
  N  3183  1  0.01125500  0.62039800  0.60026000  1
  N  3189  1  0.52180800  0.86053100  0.36102400  1
  N  3192  1  0.53824500  0.86879200  0.38814700  1
  N  3196  1  0.51162800  0.89000100  0.40925600  1
  N  3202  1  0.14890400  0.48797400  0.36071500  1
  N  3205  1  0.12149800  0.47178100  0.36852200  1
  N  3209  1  0.10028200  0.49858600  0.38938700  1
  N  3215  1  0.86095500  0.98797100  0.14911500  1
  N  3218  1  0.88827900  0.97169600  0.14119100  1
  N  3222  1  0.90948000  0.99843600  0.12022600  1
  N  3228  1  0.64889400  0.02188400  0.64906200  1
  N  3231  1  0.62148200  0.03806900  0.64125700  1
  N  3235  1  0.60028000  0.01126300  0.62037800  1
  N  3241  1  0.36092900  0.52183200  0.86063000  1
  N  3244  1  0.38823800  0.53810800  0.86859700  1
  N  3248  1  0.40941200  0.51137000  0.88958700  1
  N  3254  1  0.39855500  0.11127200  0.27159200  1
  N  3257  1  0.37106700  0.11891400  0.28772700  1
  N  3261  1  0.34957700  0.13923500  0.26072400  1
  N  3267  1  0.11117400  0.89845800  0.77157800  1
  N  3270  1  0.13876500  0.89101300  0.78763000  1
  N  3274  1  0.16031500  0.87083700  0.76056700  1
  N  3280  1  0.89857200  0.39850800  0.73826600  1
  N  3283  1  0.87107500  0.39089700  0.72212800  1
  N  3287  1  0.84955800  0.37060300  0.74912900  1
  N  3293  1  0.61128800  0.61113100  0.23828200  1
  N  3296  1  0.63856400  0.61915400  0.22197600  1
  N  3300  1  0.65993100  0.63978800  0.24883700  1
  N  3306  1  0.61131600  0.23828700  0.61128200  1
  N  3309  1  0.61889300  0.22214200  0.63878300  1
  N  3313  1  0.63914000  0.24914400  0.66034300  1
  N  3319  1  0.39845100  0.73821800  0.89860700  1
  N  3322  1  0.39107300  0.72218900  0.87098200  1
  N  3326  1  0.37095200  0.74927800  0.84940800  1
  N  3332  1  0.89843500  0.77156800  0.11122300  1
  N  3335  1  0.89098500  0.78762600  0.13881000  1
  N  3339  1  0.87079100  0.76057000  0.16035300  1
  N  3345  1  0.11130900  0.27156100  0.39852900  1
  N  3348  1  0.11891900  0.28771100  0.37104100  1
  N  3352  1  0.13918800  0.26071000  0.34949900  1
  N  3358  1  0.73828400  0.89853600  0.39852000  1
  N  3361  1  0.72213300  0.87103700  0.39095400  1
  N  3365  1  0.74911800  0.84948000  0.37068000  1
  N  3371  1  0.23829000  0.61135100  0.61109200  1
  N  3374  1  0.22197000  0.63862700  0.61909300  1
  N  3378  1  0.24882000  0.66002100  0.63971300  1
  N  3384  1  0.27154900  0.39858300  0.11132700  1
  N  3387  1  0.28761800  0.37100200  0.11877900  1
  N  3391  1  0.26056700  0.34944300  0.13896200  1
  N  3397  1  0.77150600  0.11133400  0.89860800  1
  N  3400  1  0.78783200  0.13861200  0.89063600  1
  N  3404  1  0.76098800  0.16004000  0.87004500  1
