# generated using pymatgen
data_H8C12N5O
_symmetry_space_group_name_H-M   'P 1'
_cell_length_a   36.51710000
_cell_length_b   36.51710000
_cell_length_c   36.51710000
_cell_angle_alpha   90.00000000
_cell_angle_beta   90.00000000
_cell_angle_gamma   90.00000000
_symmetry_Int_Tables_number   1
_chemical_formula_structural   H8C12N5O
_chemical_formula_sum   'H384 C576 N240 O48'
_cell_volume   48695.50144890
_cell_formula_units_Z   48
loop_
 _symmetry_equiv_pos_site_id
 _symmetry_equiv_pos_as_xyz
  1  'x, y, z'
loop_
 _atom_site_type_symbol
 _atom_site_label
 _atom_site_symmetry_multiplicity
 _atom_site_fract_x
 _atom_site_fract_y
 _atom_site_fract_z
 _atom_site_occupancy
  H  7  1  0.05468200  0.02891200  0.98260400  1
  H  16  1  0.94326100  0.98466900  0.02887500  1
  H  17  1  0.97031600  0.10415500  0.89253600  1
  H  18  1  0.02782300  0.89394700  0.10409900  1
  H  19  1  0.94031400  0.01120100  0.97501600  1
  H  20  1  0.05803300  0.97792400  0.01337000  1
  H  31  1  0.44670900  0.97253200  0.48259900  1
  H  40  1  0.55813100  0.01680000  0.52882400  1
  H  41  1  0.53107200  0.89735100  0.39244700  1
  H  42  1  0.47374600  0.10769400  0.60395600  1
  H  43  1  0.56107800  0.99023600  0.47501600  1
  H  44  1  0.44333300  0.02347400  0.51346100  1
  H  55  1  0.22178100  0.80451700  0.23428300  1
  H  64  1  0.26690000  0.69348400  0.27989100  1
  H  65  1  0.14723100  0.72084900  0.14303200  1
  H  66  1  0.36197900  0.77685300  0.34838500  1
  H  67  1  0.24083300  0.69047700  0.22499600  1
  H  68  1  0.27431800  0.80777600  0.26255100  1
  H  79  1  0.27962600  0.19686300  0.73431200  1
  H  88  1  0.23446100  0.30798500  0.77995100  1
  H  89  1  0.35407300  0.28055700  0.64297600  1
  H  90  1  0.13966500  0.22420900  0.84833800  1
  H  91  1  0.26054900  0.31090100  0.72503900  1
  H  92  1  0.22712800  0.19379500  0.76251800  1
  H  103  1  0.77960800  0.19658200  0.76781700  1
  H  112  1  0.73463200  0.30785300  0.72213700  1
  H  113  1  0.85435400  0.28077800  0.85845600  1
  H  114  1  0.63980500  0.22468000  0.65299600  1
  H  115  1  0.76084200  0.31074500  0.77648100  1
  H  116  1  0.72742200  0.19343200  0.73881900  1
  H  127  1  0.72186500  0.80480800  0.26778100  1
  H  136  1  0.76671600  0.69353100  0.22188000  1
  H  137  1  0.64715800  0.72066300  0.35853700  1
  H  138  1  0.86167100  0.77674700  0.15298600  1
  H  139  1  0.74060700  0.69065000  0.27642700  1
  H  140  1  0.77406600  0.80789600  0.23880900  1
  H  151  1  0.55541700  0.52927100  0.48315200  1
  H  160  1  0.44375200  0.48320400  0.52832600  1
  H  161  1  0.47282000  0.61110900  0.40131400  1
  H  162  1  0.52714500  0.38945900  0.59836200  1
  H  163  1  0.44095600  0.51142700  0.47597500  1
  H  164  1  0.55865100  0.47788100  0.51308100  1
  H  175  1  0.94544300  0.47216000  0.98236800  1
  H  184  1  0.05640800  0.51951300  0.02734700  1
  H  185  1  0.02874700  0.39025600  0.90143900  1
  H  186  1  0.97590800  0.61382800  0.09626600  1
  H  187  1  0.05986500  0.49046900  0.97578800  1
  H  188  1  0.94088900  0.52066400  0.01572000  1
  H  200  1  0.81936500  0.82082700  0.07552500  1
  H  201  1  0.80799200  0.81259000  0.11857700  1
  H  202  1  0.86367000  0.86457100  0.05846300  1
  H  204  1  0.91253800  0.90941900  0.04290000  1
  H  206  1  0.83803900  0.86581700  0.20369100  1
  H  214  1  0.68204000  0.18058200  0.57551700  1
  H  215  1  0.69341800  0.18881300  0.61856900  1
  H  216  1  0.63773800  0.13684000  0.55845700  1
  H  218  1  0.58894400  0.09203000  0.54289400  1
  H  220  1  0.66334200  0.13560500  0.70368800  1
  H  228  1  0.42905700  0.57193300  0.31991900  1
  H  229  1  0.43962700  0.55671800  0.36061200  1
  H  230  1  0.38464800  0.61482200  0.30784000  1
  H  232  1  0.34146500  0.66309800  0.29487000  1
  H  234  1  0.41450800  0.60393200  0.44947200  1
  H  242  1  0.07226700  0.42951400  0.82001100  1
  H  243  1  0.06181700  0.44478700  0.86072900  1
  H  244  1  0.11669900  0.38662500  0.80789100  1
  H  246  1  0.15991500  0.33829400  0.79491400  1
  H  248  1  0.08681500  0.39741700  0.94943600  1
  H  256  1  0.68240400  0.81936800  0.42887600  1
  H  257  1  0.69476000  0.80883900  0.38692300  1
  H  258  1  0.64032300  0.86465900  0.44323700  1
  H  260  1  0.58511800  0.90132400  0.45411400  1
  H  262  1  0.66248500  0.85045500  0.29665600  1
  H  270  1  0.81905800  0.18208600  0.92887600  1
  H  271  1  0.80671100  0.19263300  0.88693400  1
  H  272  1  0.86107700  0.13674000  0.94324100  1
  H  274  1  0.91628100  0.10010100  0.95415100  1
  H  276  1  0.83894500  0.15095100  0.79666600  1
  H  284  1  0.07004000  0.56966500  0.18172900  1
  H  285  1  0.05912000  0.55552400  0.14061500  1
  H  286  1  0.11541600  0.61158300  0.19419400  1
  H  288  1  0.15148200  0.66666667  0.20388600  1
  H  290  1  0.09509400  0.59286800  0.04758800  1
  H  298  1  0.43111100  0.43143700  0.68207600  1
  H  299  1  0.44208700  0.44589000  0.64118300  1
  H  300  1  0.38584200  0.38963700  0.69434700  1
  H  302  1  0.34982600  0.33461400  0.70401100  1
  H  304  1  0.40612800  0.40851100  0.54778000  1
  H  312  1  0.18289800  0.18133000  0.92557000  1
  H  313  1  0.19380800  0.18895000  0.88227800  1
  H  314  1  0.13863800  0.13813400  0.94367400  1
  H  316  1  0.09610100  0.08696200  0.96046100  1
  H  318  1  0.16251100  0.13494500  0.79858000  1
  H  326  1  0.31860200  0.82015100  0.42556800  1
  H  327  1  0.30756000  0.81250000  0.38234500  1
  H  328  1  0.36280000  0.86326200  0.44359500  1
  H  330  1  0.40530100  0.91441400  0.46044800  1
  H  332  1  0.33874600  0.86610200  0.29818100  1
  H  340  1  0.57085100  0.43188300  0.67592500  1
  H  341  1  0.56266000  0.44331300  0.63288000  1
  H  342  1  0.61463900  0.38759200  0.69299100  1
  H  344  1  0.65953300  0.33878100  0.70848800  1
  H  346  1  0.61608200  0.41341500  0.54772500  1
  H  354  1  0.92990000  0.57159000  0.17876300  1
  H  355  1  0.93968700  0.55757500  0.13735600  1
  H  356  1  0.88533400  0.61413500  0.19279200  1
  H  358  1  0.84149700  0.66254800  0.20720000  1
  H  360  1  0.91209400  0.60710800  0.04925800  1
  H  368  1  0.31743300  0.18423400  0.57471000  1
  H  369  1  0.30477500  0.19233200  0.61705400  1
  H  370  1  0.36056300  0.14153300  0.55829500  1
  H  372  1  0.38798900  0.08215000  0.54268900  1
  H  374  1  0.33929900  0.15004600  0.70513400  1
  H  382  1  0.18394200  0.81712500  0.07470300  1
  H  383  1  0.19664000  0.80906600  0.11703800  1
  H  384  1  0.14077800  0.85984200  0.05828900  1
  H  386  1  0.11391600  0.91968800  0.04303300  1
  H  388  1  0.16215000  0.85136900  0.20511500  1
  H  396  1  0.93195600  0.43229100  0.82245100  1
  H  397  1  0.94244200  0.44474300  0.86438200  1
  H  398  1  0.88662700  0.39020400  0.80814000  1
  H  400  1  0.85007400  0.33508700  0.79725200  1
  H  402  1  0.90107800  0.41239400  0.95467200  1
  H  410  1  0.56943300  0.56911200  0.32246300  1
  H  411  1  0.55892200  0.55666300  0.36439700  1
  H  412  1  0.61475700  0.61121600  0.30817400  1
  H  414  1  0.65132900  0.66634300  0.29731000  1
  H  416  1  0.60029800  0.58907300  0.45475200  1
  H  423  1  0.05468200  0.02891200  0.22906400  1
  H  432  1  0.94326100  0.98466900  0.27533500  1
  H  433  1  0.97031600  0.10415500  0.13899600  1
  H  434  1  0.02782300  0.89394700  0.35055900  1
  H  435  1  0.94031400  0.01120100  0.22147600  1
  H  436  1  0.05803300  0.97792400  0.25983000  1
  H  447  1  0.44670900  0.97253200  0.72905900  1
  H  456  1  0.55813100  0.01680000  0.77528400  1
  H  457  1  0.53107200  0.89735100  0.63890700  1
  H  458  1  0.47374600  0.10769400  0.85041600  1
  H  459  1  0.56107800  0.99023600  0.72147600  1
  H  460  1  0.44333300  0.02347400  0.75992100  1
  H  471  1  0.22178100  0.80451700  0.48074300  1
  H  480  1  0.26690000  0.69348400  0.52635100  1
  H  481  1  0.14723100  0.72084900  0.38949200  1
  H  482  1  0.36197900  0.77685300  0.59484500  1
  H  483  1  0.24083300  0.69047700  0.47145600  1
  H  484  1  0.27431800  0.80777600  0.50901100  1
  H  495  1  0.27962600  0.19686300  0.98077200  1
  H  504  1  0.23446100  0.30798500  0.02641090  1
  H  505  1  0.35407300  0.28055700  0.88943600  1
  H  506  1  0.13966500  0.22420900  0.09479790  1
  H  507  1  0.26054900  0.31090100  0.97149900  1
  H  508  1  0.22712800  0.19379500  0.00897788  1
  H  519  1  0.77960800  0.19658200  0.01427690  1
  H  528  1  0.73463200  0.30785300  0.96859700  1
  H  529  1  0.85435400  0.28077800  0.10491600  1
  H  530  1  0.63980500  0.22468000  0.89945600  1
  H  531  1  0.76084200  0.31074500  0.02294090  1
  H  532  1  0.72742200  0.19343200  0.98527900  1
  H  543  1  0.72186500  0.80480800  0.51424100  1
  H  552  1  0.76671600  0.69353100  0.46834000  1
  H  553  1  0.64715800  0.72066300  0.60499700  1
  H  554  1  0.86167100  0.77674700  0.39944600  1
  H  555  1  0.74060700  0.69065000  0.52288700  1
  H  556  1  0.77406600  0.80789600  0.48526900  1
  H  567  1  0.55541700  0.52927100  0.72961200  1
  H  576  1  0.44375200  0.48320400  0.77478600  1
  H  577  1  0.47282000  0.61110900  0.64777400  1
  H  578  1  0.52714500  0.38945900  0.84482200  1
  H  579  1  0.44095600  0.51142700  0.72243500  1
  H  580  1  0.55865100  0.47788100  0.75954100  1
  H  591  1  0.94544300  0.47216000  0.22882800  1
  H  600  1  0.05640800  0.51951300  0.27380700  1
  H  601  1  0.02874700  0.39025600  0.14789900  1
  H  602  1  0.97590800  0.61382800  0.34272600  1
  H  603  1  0.05986500  0.49046900  0.22224800  1
  H  604  1  0.94088900  0.52066400  0.26218000  1
  H  616  1  0.81936500  0.82082700  0.32198500  1
  H  617  1  0.80799200  0.81259000  0.36503700  1
  H  618  1  0.86367000  0.86457100  0.30492300  1
  H  620  1  0.91253800  0.90941900  0.28936000  1
  H  622  1  0.83803900  0.86581700  0.45015100  1
  H  630  1  0.68204000  0.18058200  0.82197700  1
  H  631  1  0.69341800  0.18881300  0.86502900  1
  H  632  1  0.63773800  0.13684000  0.80491700  1
  H  634  1  0.58894400  0.09203000  0.78935400  1
  H  636  1  0.66334200  0.13560500  0.95014800  1
  H  644  1  0.42905700  0.57193300  0.56637900  1
  H  645  1  0.43962700  0.55671800  0.60707200  1
  H  646  1  0.38464800  0.61482200  0.55430000  1
  H  648  1  0.34146500  0.66309800  0.54133000  1
  H  650  1  0.41450800  0.60393200  0.69593200  1
  H  658  1  0.07226700  0.42951400  0.06647090  1
  H  659  1  0.06181700  0.44478700  0.10718900  1
  H  660  1  0.11669900  0.38662500  0.05435090  1
  H  662  1  0.15991500  0.33829400  0.04137390  1
  H  664  1  0.08681500  0.39741700  0.19589600  1
  H  672  1  0.68240400  0.81936800  0.67533600  1
  H  673  1  0.69476000  0.80883900  0.63338300  1
  H  674  1  0.64032300  0.86465900  0.68969700  1
  H  676  1  0.58511800  0.90132400  0.70057400  1
  H  678  1  0.66248500  0.85045500  0.54311600  1
  H  686  1  0.81905800  0.18208600  0.17533600  1
  H  687  1  0.80671100  0.19263300  0.13339400  1
  H  688  1  0.86107700  0.13674000  0.18970100  1
  H  690  1  0.91628100  0.10010100  0.20061100  1
  H  692  1  0.83894500  0.15095100  0.04312590  1
  H  700  1  0.07004000  0.56966500  0.42818900  1
  H  701  1  0.05912000  0.55552400  0.38707500  1
  H  702  1  0.11541600  0.61158300  0.44065400  1
  H  704  1  0.15148200  0.66666667  0.45034600  1
  H  706  1  0.09509400  0.59286800  0.29404800  1
  H  714  1  0.43111100  0.43143700  0.92853600  1
  H  715  1  0.44208700  0.44589000  0.88764300  1
  H  716  1  0.38584200  0.38963700  0.94080700  1
  H  718  1  0.34982600  0.33461400  0.95047100  1
  H  720  1  0.40612800  0.40851100  0.79424000  1
  H  728  1  0.18289800  0.18133000  0.17203000  1
  H  729  1  0.19380800  0.18895000  0.12873800  1
  H  730  1  0.13863800  0.13813400  0.19013400  1
  H  732  1  0.09610100  0.08696200  0.20692100  1
  H  734  1  0.16251100  0.13494500  0.04503990  1
  H  742  1  0.31860200  0.82015100  0.67202800  1
  H  743  1  0.30756000  0.81250000  0.62880500  1
  H  744  1  0.36280000  0.86326200  0.69005500  1
  H  746  1  0.40530100  0.91441400  0.70690800  1
  H  748  1  0.33874600  0.86610200  0.54464100  1
  H  756  1  0.57085100  0.43188300  0.92238500  1
  H  757  1  0.56266000  0.44331300  0.87934000  1
  H  758  1  0.61463900  0.38759200  0.93945100  1
  H  760  1  0.65953300  0.33878100  0.95494800  1
  H  762  1  0.61608200  0.41341500  0.79418500  1
  H  770  1  0.92990000  0.57159000  0.42522300  1
  H  771  1  0.93968700  0.55757500  0.38381600  1
  H  772  1  0.88533400  0.61413500  0.43925200  1
  H  774  1  0.84149700  0.66254800  0.45366000  1
  H  776  1  0.91209400  0.60710800  0.29571800  1
  H  784  1  0.31743300  0.18423400  0.82117000  1
  H  785  1  0.30477500  0.19233200  0.86351400  1
  H  786  1  0.36056300  0.14153300  0.80475500  1
  H  788  1  0.38798900  0.08215000  0.78914900  1
  H  790  1  0.33929900  0.15004600  0.95159400  1
  H  798  1  0.18394200  0.81712500  0.32116300  1
  H  799  1  0.19664000  0.80906600  0.36349800  1
  H  800  1  0.14077800  0.85984200  0.30474900  1
  H  802  1  0.11391600  0.91968800  0.28949300  1
  H  804  1  0.16215000  0.85136900  0.45157500  1
  H  812  1  0.93195600  0.43229100  0.06891090  1
  H  813  1  0.94244200  0.44474300  0.11084200  1
  H  814  1  0.88662700  0.39020400  0.05459990  1
  H  816  1  0.85007400  0.33508700  0.04371190  1
  H  818  1  0.90107800  0.41239400  0.20113200  1
  H  826  1  0.56943300  0.56911200  0.56892300  1
  H  827  1  0.55892200  0.55666300  0.61085700  1
  H  828  1  0.61475700  0.61121600  0.55463400  1
  H  830  1  0.65132900  0.66634300  0.54377000  1
  H  832  1  0.60029800  0.58907300  0.70121200  1
  H  839  1  0.05468200  0.02891200  0.47552400  1
  H  848  1  0.94326100  0.98466900  0.52179500  1
  H  849  1  0.97031600  0.10415500  0.38545600  1
  H  850  1  0.02782300  0.89394700  0.59701900  1
  H  851  1  0.94031400  0.01120100  0.46793600  1
  H  852  1  0.05803300  0.97792400  0.50629000  1
  H  863  1  0.44670900  0.97253200  0.97551900  1
  H  872  1  0.55813100  0.01680000  0.02174380  1
  H  873  1  0.53107200  0.89735100  0.88536700  1
  H  874  1  0.47374600  0.10769400  0.09687580  1
  H  875  1  0.56107800  0.99023600  0.96793600  1
  H  876  1  0.44333300  0.02347400  0.00638076  1
  H  887  1  0.22178100  0.80451700  0.72720300  1
  H  896  1  0.26690000  0.69348400  0.77281100  1
  H  897  1  0.14723100  0.72084900  0.63595200  1
  H  898  1  0.36197900  0.77685300  0.84130500  1
  H  899  1  0.24083300  0.69047700  0.71791600  1
  H  900  1  0.27431800  0.80777600  0.75547100  1
  H  911  1  0.27962600  0.19686300  0.22723200  1
  H  920  1  0.23446100  0.30798500  0.27287100  1
  H  921  1  0.35407300  0.28055700  0.13589600  1
  H  922  1  0.13966500  0.22420900  0.34125800  1
  H  923  1  0.26054900  0.31090100  0.21795900  1
  H  924  1  0.22712800  0.19379500  0.25543800  1
  H  935  1  0.77960800  0.19658200  0.26073700  1
  H  944  1  0.73463200  0.30785300  0.21505700  1
  H  945  1  0.85435400  0.28077800  0.35137600  1
  H  946  1  0.63980500  0.22468000  0.14591600  1
  H  947  1  0.76084200  0.31074500  0.26940100  1
  H  948  1  0.72742200  0.19343200  0.23173900  1
  H  959  1  0.72186500  0.80480800  0.76070100  1
  H  968  1  0.76671600  0.69353100  0.71480000  1
  H  969  1  0.64715800  0.72066300  0.85145700  1
  H  970  1  0.86167100  0.77674700  0.64590600  1
  H  971  1  0.74060700  0.69065000  0.76934700  1
  H  972  1  0.77406600  0.80789600  0.73172900  1
  H  983  1  0.55541700  0.52927100  0.97607200  1
  H  992  1  0.44375200  0.48320400  0.02124580  1
  H  993  1  0.47282000  0.61110900  0.89423400  1
  H  994  1  0.52714500  0.38945900  0.09128180  1
  H  995  1  0.44095600  0.51142700  0.96889500  1
  H  996  1  0.55865100  0.47788100  0.00600076  1
  H  1007  1  0.94544300  0.47216000  0.47528800  1
  H  1016  1  0.05640800  0.51951300  0.52026700  1
  H  1017  1  0.02874700  0.39025600  0.39435900  1
  H  1018  1  0.97590800  0.61382800  0.58918600  1
  H  1019  1  0.05986500  0.49046900  0.46870800  1
  H  1020  1  0.94088900  0.52066400  0.50864000  1
  H  1032  1  0.81936500  0.82082700  0.56844500  1
  H  1033  1  0.80799200  0.81259000  0.61149700  1
  H  1034  1  0.86367000  0.86457100  0.55138300  1
  H  1036  1  0.91253800  0.90941900  0.53582000  1
  H  1038  1  0.83803900  0.86581700  0.69661100  1
  H  1046  1  0.68204000  0.18058200  0.06843680  1
  H  1047  1  0.69341800  0.18881300  0.11148900  1
  H  1048  1  0.63773800  0.13684000  0.05137680  1
  H  1050  1  0.58894400  0.09203000  0.03581380  1
  H  1052  1  0.66334200  0.13560500  0.19660800  1
  H  1060  1  0.42905700  0.57193300  0.81283900  1
  H  1061  1  0.43962700  0.55671800  0.85353200  1
  H  1062  1  0.38464800  0.61482200  0.80076000  1
  H  1064  1  0.34146500  0.66309800  0.78779000  1
  H  1066  1  0.41450800  0.60393200  0.94239200  1
  H  1074  1  0.07226700  0.42951400  0.31293100  1
  H  1075  1  0.06181700  0.44478700  0.35364900  1
  H  1076  1  0.11669900  0.38662500  0.30081100  1
  H  1078  1  0.15991500  0.33829400  0.28783400  1
  H  1080  1  0.08681500  0.39741700  0.44235600  1
  H  1088  1  0.68240400  0.81936800  0.92179600  1
  H  1089  1  0.69476000  0.80883900  0.87984300  1
  H  1090  1  0.64032300  0.86465900  0.93615700  1
  H  1092  1  0.58511800  0.90132400  0.94703400  1
  H  1094  1  0.66248500  0.85045500  0.78957600  1
  H  1102  1  0.81905800  0.18208600  0.42179600  1
  H  1103  1  0.80671100  0.19263300  0.37985400  1
  H  1104  1  0.86107700  0.13674000  0.43616100  1
  H  1106  1  0.91628100  0.10010100  0.44707100  1
  H  1108  1  0.83894500  0.15095100  0.28958600  1
  H  1116  1  0.07004000  0.56966500  0.67464900  1
  H  1117  1  0.05912000  0.55552400  0.63353500  1
  H  1118  1  0.11541600  0.61158300  0.68711400  1
  H  1120  1  0.15148200  0.66666667  0.69680600  1
  H  1122  1  0.09509400  0.59286800  0.54050800  1
  H  1130  1  0.43111100  0.43143700  0.17499600  1
  H  1131  1  0.44208700  0.44589000  0.13410300  1
  H  1132  1  0.38584200  0.38963700  0.18726700  1
  H  1134  1  0.34982600  0.33461400  0.19693100  1
  H  1136  1  0.40612800  0.40851100  0.04069980  1
  H  1144  1  0.18289800  0.18133000  0.41849000  1
  H  1145  1  0.19380800  0.18895000  0.37519800  1
  H  1146  1  0.13863800  0.13813400  0.43659400  1
  H  1148  1  0.09610100  0.08696200  0.45338100  1
  H  1150  1  0.16251100  0.13494500  0.29150000  1
  H  1158  1  0.31860200  0.82015100  0.91848800  1
  H  1159  1  0.30756000  0.81250000  0.87526500  1
  H  1160  1  0.36280000  0.86326200  0.93651500  1
  H  1162  1  0.40530100  0.91441400  0.95336800  1
  H  1164  1  0.33874600  0.86610200  0.79110100  1
  H  1172  1  0.57085100  0.43188300  0.16884500  1
  H  1173  1  0.56266000  0.44331300  0.12580000  1
  H  1174  1  0.61463900  0.38759200  0.18591100  1
  H  1176  1  0.65953300  0.33878100  0.20140800  1
  H  1178  1  0.61608200  0.41341500  0.04064480  1
  H  1186  1  0.92990000  0.57159000  0.67168300  1
  H  1187  1  0.93968700  0.55757500  0.63027600  1
  H  1188  1  0.88533400  0.61413500  0.68571200  1
  H  1190  1  0.84149700  0.66254800  0.70012000  1
  H  1192  1  0.91209400  0.60710800  0.54217800  1
  H  1200  1  0.31743300  0.18423400  0.06762980  1
  H  1201  1  0.30477500  0.19233200  0.10997400  1
  H  1202  1  0.36056300  0.14153300  0.05121480  1
  H  1204  1  0.38798900  0.08215000  0.03560880  1
  H  1206  1  0.33929900  0.15004600  0.19805400  1
  H  1214  1  0.18394200  0.81712500  0.56762300  1
  H  1215  1  0.19664000  0.80906600  0.60995800  1
  H  1216  1  0.14077800  0.85984200  0.55120900  1
  H  1218  1  0.11391600  0.91968800  0.53595300  1
  H  1220  1  0.16215000  0.85136900  0.69803500  1
  H  1228  1  0.93195600  0.43229100  0.31537100  1
  H  1229  1  0.94244200  0.44474300  0.35730200  1
  H  1230  1  0.88662700  0.39020400  0.30106000  1
  H  1232  1  0.85007400  0.33508700  0.29017200  1
  H  1234  1  0.90107800  0.41239400  0.44759200  1
  H  1242  1  0.56943300  0.56911200  0.81538300  1
  H  1243  1  0.55892200  0.55666300  0.85731700  1
  H  1244  1  0.61475700  0.61121600  0.80109400  1
  H  1246  1  0.65132900  0.66634300  0.79023000  1
  H  1248  1  0.60029800  0.58907300  0.94767200  1
  C  1  1  0.99782700  0.01501600  0.98578100  1
  C  2  1  0.02936200  0.03368700  0.97195400  1
  C  3  1  0.02752300  0.05931600  0.94295400  1
  C  4  1  0.99361000  0.06871600  0.92746000  1
  C  5  1  0.96177800  0.05043800  0.93970900  1
  C  6  1  0.96406700  0.02411900  0.96809800  1
  C  9  1  0.00021800  0.98767600  0.01528100  1
  C  10  1  0.03422200  0.97171600  0.02650600  1
  C  11  1  0.03671200  0.94581300  0.05525900  1
  C  12  1  0.00493100  0.93346800  0.07322900  1
  C  13  1  0.97090300  0.94791600  0.06249400  1
  C  14  1  0.96869000  0.97464100  0.03450200  1
  C  25  1  0.50356200  0.98642100  0.48578700  1
  C  26  1  0.47203200  0.96774200  0.47196000  1
  C  27  1  0.47387400  0.94209400  0.44297700  1
  C  28  1  0.50779000  0.93269600  0.42748800  1
  C  29  1  0.53961900  0.95097800  0.43974000  1
  C  30  1  0.53732700  0.97731300  0.46811000  1
  C  33  1  0.50116300  0.01375900  0.51528800  1
  C  34  1  0.46715400  0.02968600  0.52657000  1
  C  35  1  0.46468700  0.05552400  0.55539000  1
  C  36  1  0.49649100  0.06790300  0.57329900  1
  C  37  1  0.53051100  0.05351500  0.56248800  1
  C  38  1  0.53270200  0.02681000  0.53447900  1
  C  49  1  0.23652500  0.74777900  0.23637000  1
  C  50  1  0.21712700  0.77925800  0.22340200  1
  C  51  1  0.19072300  0.77743700  0.19515800  1
  C  52  1  0.18226400  0.74378700  0.17855300  1
  C  53  1  0.20114800  0.71197700  0.19000000  1
  C  54  1  0.22755100  0.71413800  0.21838900  1
  C  57  1  0.26425800  0.75017600  0.26552900  1
  C  58  1  0.28050200  0.78419000  0.27613700  1
  C  59  1  0.30670600  0.78708700  0.30456200  1
  C  60  1  0.31886200  0.75551800  0.32305700  1
  C  61  1  0.30392100  0.72137000  0.31330300  1
  C  62  1  0.27725400  0.71887500  0.28515400  1
  C  73  1  0.26487400  0.25361300  0.73641500  1
  C  74  1  0.28427000  0.22212400  0.72343500  1
  C  75  1  0.31067900  0.22394400  0.69519000  1
  C  76  1  0.31913000  0.25758700  0.67858400  1
  C  77  1  0.30021000  0.28936900  0.69004500  1
  C  78  1  0.27382300  0.28723800  0.71843100  1
  C  81  1  0.23718400  0.25131100  0.76560700  1
  C  82  1  0.22100200  0.21732200  0.77623700  1
  C  83  1  0.19487100  0.21431000  0.80468200  1
  C  84  1  0.18257700  0.24584500  0.82318300  1
  C  85  1  0.19747600  0.28003400  0.81339500  1
  C  86  1  0.22414300  0.28258300  0.78523600  1
  C  97  1  0.76518200  0.25338400  0.76525100  1
  C  98  1  0.78444400  0.22190800  0.77845800  1
  C  99  1  0.81071400  0.22382100  0.80685600  1
  C  100  1  0.81936000  0.25761800  0.82305100  1
  C  101  1  0.80060100  0.28938800  0.81133100  1
  C  102  1  0.77413100  0.28709600  0.78307800  1
  C  105  1  0.73747700  0.25103700  0.73611400  1
  C  106  1  0.72123000  0.21708700  0.72536200  1
  C  107  1  0.69509700  0.21437000  0.69686900  1
  C  108  1  0.68279100  0.24600800  0.67861200  1
  C  109  1  0.69752100  0.28008300  0.68889700  1
  C  110  1  0.72439300  0.28244600  0.71676900  1
  C  121  1  0.73628300  0.74799800  0.26519600  1
  C  122  1  0.71702100  0.77948200  0.27841800  1
  C  123  1  0.69074000  0.77759000  0.30681800  1
  C  124  1  0.68207900  0.74379500  0.32301100  1
  C  125  1  0.70082900  0.71201800  0.31128500  1
  C  126  1  0.72731500  0.71429600  0.28303500  1
  C  129  1  0.76402400  0.75029300  0.23605500  1
  C  130  1  0.78026800  0.78424700  0.22534000  1
  C  131  1  0.80641800  0.78698300  0.19687300  1
  C  132  1  0.81868900  0.75536800  0.17853600  1
  C  133  1  0.80386300  0.72125800  0.18858200  1
  C  134  1  0.77706700  0.71891100  0.21658600  1
  C  145  1  0.49846600  0.51554300  0.48677800  1
  C  146  1  0.52989800  0.53475600  0.47335100  1
  C  147  1  0.52772900  0.56127200  0.44519700  1
  C  148  1  0.49358300  0.57062700  0.43019900  1
  C  149  1  0.46173200  0.55280500  0.44311100  1
  C  150  1  0.46447900  0.52518200  0.46996900  1
  C  153  1  0.50081500  0.48707400  0.51503300  1
  C  154  1  0.53484100  0.47111400  0.52595700  1
  C  155  1  0.53743900  0.44485200  0.55431100  1
  C  156  1  0.50569000  0.43174600  0.57172700  1
  C  157  1  0.47155500  0.44528800  0.56026700  1
  C  158  1  0.46922200  0.47301500  0.53339700  1
  C  169  1  0.00227400  0.48625200  0.98638300  1
  C  170  1  0.97110000  0.46661800  0.97303600  1
  C  171  1  0.97361100  0.43986600  0.94516400  1
  C  172  1  0.00784700  0.43066700  0.93028600  1
  C  173  1  0.03957000  0.44864200  0.94328300  1
  C  174  1  0.03644800  0.47650100  0.96989800  1
  C  177  1  0.99939600  0.51547700  0.01387700  1
  C  178  1  0.96504000  0.53007800  0.02594200  1
  C  179  1  0.96236400  0.55678100  0.05385100  1
  C  180  1  0.99449400  0.57118200  0.06977400  1
  C  181  1  0.02879800  0.55826200  0.05821700  1
  C  182  1  0.03100500  0.53014100  0.03178700  1
  C  193  1  0.89430300  0.89690100  0.09518900  1
  C  194  1  0.86842400  0.86988100  0.08561000  1
  C  195  1  0.84850200  0.85068200  0.11296100  1
  C  196  1  0.85594800  0.85943100  0.15046400  1
  C  203  1  0.91494800  0.91552000  0.06934800  1
  C  205  1  0.83771800  0.84891300  0.18235600  1
  C  207  1  0.60707800  0.10452900  0.59517400  1
  C  208  1  0.63295100  0.13155700  0.58560300  1
  C  209  1  0.65287900  0.15075300  0.61295500  1
  C  210  1  0.64543800  0.14199800  0.65045800  1
  C  217  1  0.58654500  0.08578800  0.56930400  1
  C  219  1  0.66368400  0.15250200  0.68234700  1
  C  221  1  0.35304600  0.64325000  0.34668700  1
  C  222  1  0.37926100  0.61741300  0.33527300  1
  C  223  1  0.39886600  0.59576500  0.36079300  1
  C  224  1  0.39044200  0.60063700  0.39888800  1
  C  231  1  0.33531200  0.66535800  0.32134600  1
  C  233  1  0.40951000  0.58670900  0.42884900  1
  C  235  1  0.14833100  0.35822700  0.84673300  1
  C  236  1  0.12212700  0.38407500  0.83531900  1
  C  237  1  0.10254300  0.40573600  0.86085500  1
  C  238  1  0.11103100  0.40101500  0.89895500  1
  C  245  1  0.16592600  0.33598000  0.82142700  1
  C  247  1  0.09192400  0.41481400  0.92901000  1
  C  249  1  0.61287800  0.89846500  0.40550900  1
  C  250  1  0.63651600  0.86988400  0.41591000  1
  C  251  1  0.65517100  0.84851000  0.38949500  1
  C  252  1  0.64819600  0.85607400  0.35163600  1
  C  259  1  0.59133700  0.91561300  0.43164500  1
  C  261  1  0.66345200  0.83870400  0.32117600  1
  C  263  1  0.88858500  0.10296200  0.90553300  1
  C  264  1  0.86492200  0.13153300  0.91591500  1
  C  265  1  0.84626200  0.15289200  0.88949700  1
  C  266  1  0.85325300  0.14533200  0.85164300  1
  C  273  1  0.91001000  0.08575100  0.93174800  1
  C  275  1  0.83799200  0.16270300  0.82118600  1
  C  277  1  0.14864900  0.63844100  0.15558300  1
  C  278  1  0.12038600  0.61476500  0.16673500  1
  C  279  1  0.09886100  0.59532700  0.14104600  1
  C  280  1  0.10612000  0.60136800  0.10294800  1
  C  287  1  0.16578300  0.66040700  0.18143200  1
  C  289  1  0.08752200  0.58654000  0.07298000  1
  C  291  1  0.35262200  0.36283600  0.65571300  1
  C  292  1  0.38087100  0.38648500  0.66688300  1
  C  293  1  0.40232700  0.40597700  0.64121800  1
  C  294  1  0.39493100  0.39996400  0.60312100  1
  C  301  1  0.33556600  0.34085200  0.68151200  1
  C  303  1  0.41325600  0.41512700  0.57322500  1
  C  305  1  0.10695100  0.10592700  0.90784200  1
  C  306  1  0.13334500  0.13264500  0.91666500  1
  C  307  1  0.15300100  0.15137700  0.88883400  1
  C  308  1  0.14493200  0.14239100  0.85154700  1
  C  315  1  0.08766400  0.08713700  0.93459600  1
  C  317  1  0.16298500  0.15250100  0.81936800  1
  C  319  1  0.39448400  0.89549100  0.40779900  1
  C  320  1  0.36810500  0.86876100  0.41658900  1
  C  321  1  0.34842100  0.85009000  0.38873300  1
  C  322  1  0.35640300  0.85919900  0.35143600  1
  C  329  1  0.41370300  0.91435400  0.43457200  1
  C  331  1  0.33824700  0.84898700  0.31934100  1
  C  333  1  0.64693900  0.35693200  0.65624700  1
  C  334  1  0.61997300  0.38286800  0.66584500  1
  C  335  1  0.60081800  0.40284500  0.63849900  1
  C  336  1  0.60972900  0.39552200  0.60100700  1
  C  343  1  0.66560700  0.33626500  0.68204800  1
  C  345  1  0.59929300  0.41381500  0.56914800  1
  C  347  1  0.85302300  0.64326100  0.15505500  1
  C  348  1  0.87964400  0.61740500  0.16549100  1
  C  349  1  0.89922600  0.59672400  0.13905100  1
  C  350  1  0.89043300  0.60245500  0.10111200  1
  C  357  1  0.83540400  0.66507600  0.18073600  1
  C  359  1  0.90890100  0.58970300  0.07002000  1
  C  361  1  0.38964000  0.10703900  0.59395500  1
  C  362  1  0.36593900  0.13604700  0.58530500  1
  C  363  1  0.34698900  0.15557500  0.61281200  1
  C  364  1  0.35478500  0.14670600  0.65020000  1
  C  371  1  0.40220900  0.08472000  0.56573300  1
  C  373  1  0.33885500  0.16272200  0.68107600  1
  C  375  1  0.11167100  0.89428100  0.09396900  1
  C  376  1  0.13535800  0.86526100  0.08530200  1
  C  377  1  0.15438300  0.84580200  0.11280600  1
  C  378  1  0.14660800  0.85467700  0.15019700  1
  C  385  1  0.09932000  0.91678500  0.06579700  1
  C  387  1  0.16257400  0.83868500  0.18106400  1
  C  389  1  0.85284800  0.36272900  0.84590300  1
  C  390  1  0.88140500  0.38640800  0.83547000  1
  C  391  1  0.90277800  0.40511500  0.86184700  1
  C  392  1  0.89520100  0.39818900  0.89970300  1
  C  399  1  0.83570300  0.34122700  0.81968300  1
  C  401  1  0.91271100  0.41338800  0.93009100  1
  C  403  1  0.64854100  0.63865500  0.34595600  1
  C  404  1  0.61998400  0.61498400  0.33550600  1
  C  405  1  0.59861600  0.59625300  0.36187700  1
  C  406  1  0.60618300  0.60313200  0.39974700  1
  C  413  1  0.66564000  0.66025600  0.31980700  1
  C  415  1  0.58872200  0.58785100  0.43015500  1
  C  417  1  0.99782700  0.01501600  0.23224100  1
  C  418  1  0.02936200  0.03368700  0.21841400  1
  C  419  1  0.02752300  0.05931600  0.18941400  1
  C  420  1  0.99361000  0.06871600  0.17392000  1
  C  421  1  0.96177800  0.05043800  0.18616900  1
  C  422  1  0.96406700  0.02411900  0.21455800  1
  C  425  1  0.00021800  0.98767600  0.26174100  1
  C  426  1  0.03422200  0.97171600  0.27296600  1
  C  427  1  0.03671200  0.94581300  0.30171900  1
  C  428  1  0.00493100  0.93346800  0.31968900  1
  C  429  1  0.97090300  0.94791600  0.30895400  1
  C  430  1  0.96869000  0.97464100  0.28096200  1
  C  441  1  0.50356200  0.98642100  0.73224700  1
  C  442  1  0.47203200  0.96774200  0.71842000  1
  C  443  1  0.47387400  0.94209400  0.68943700  1
  C  444  1  0.50779000  0.93269600  0.67394800  1
  C  445  1  0.53961900  0.95097800  0.68620000  1
  C  446  1  0.53732700  0.97731300  0.71457000  1
  C  449  1  0.50116300  0.01375900  0.76174800  1
  C  450  1  0.46715400  0.02968600  0.77303000  1
  C  451  1  0.46468700  0.05552400  0.80185000  1
  C  452  1  0.49649100  0.06790300  0.81975900  1
  C  453  1  0.53051100  0.05351500  0.80894800  1
  C  454  1  0.53270200  0.02681000  0.78093900  1
  C  465  1  0.23652500  0.74777900  0.48283000  1
  C  466  1  0.21712700  0.77925800  0.46986200  1
  C  467  1  0.19072300  0.77743700  0.44161800  1
  C  468  1  0.18226400  0.74378700  0.42501300  1
  C  469  1  0.20114800  0.71197700  0.43646000  1
  C  470  1  0.22755100  0.71413800  0.46484900  1
  C  473  1  0.26425800  0.75017600  0.51198900  1
  C  474  1  0.28050200  0.78419000  0.52259700  1
  C  475  1  0.30670600  0.78708700  0.55102200  1
  C  476  1  0.31886200  0.75551800  0.56951700  1
  C  477  1  0.30392100  0.72137000  0.55976300  1
  C  478  1  0.27725400  0.71887500  0.53161400  1
  C  489  1  0.26487400  0.25361300  0.98287500  1
  C  490  1  0.28427000  0.22212400  0.96989500  1
  C  491  1  0.31067900  0.22394400  0.94165000  1
  C  492  1  0.31913000  0.25758700  0.92504400  1
  C  493  1  0.30021000  0.28936900  0.93650500  1
  C  494  1  0.27382300  0.28723800  0.96489100  1
  C  497  1  0.23718400  0.25131100  0.01206690  1
  C  498  1  0.22100200  0.21732200  0.02269690  1
  C  499  1  0.19487100  0.21431000  0.05114190  1
  C  500  1  0.18257700  0.24584500  0.06964290  1
  C  501  1  0.19747600  0.28003400  0.05985490  1
  C  502  1  0.22414300  0.28258300  0.03169590  1
  C  513  1  0.76518200  0.25338400  0.01171090  1
  C  514  1  0.78444400  0.22190800  0.02491790  1
  C  515  1  0.81071400  0.22382100  0.05331590  1
  C  516  1  0.81936000  0.25761800  0.06951090  1
  C  517  1  0.80060100  0.28938800  0.05779090  1
  C  518  1  0.77413100  0.28709600  0.02953790  1
  C  521  1  0.73747700  0.25103700  0.98257400  1
  C  522  1  0.72123000  0.21708700  0.97182200  1
  C  523  1  0.69509700  0.21437000  0.94332900  1
  C  524  1  0.68279100  0.24600800  0.92507200  1
  C  525  1  0.69752100  0.28008300  0.93535700  1
  C  526  1  0.72439300  0.28244600  0.96322900  1
  C  537  1  0.73628300  0.74799800  0.51165600  1
  C  538  1  0.71702100  0.77948200  0.52487800  1
  C  539  1  0.69074000  0.77759000  0.55327800  1
  C  540  1  0.68207900  0.74379500  0.56947100  1
  C  541  1  0.70082900  0.71201800  0.55774500  1
  C  542  1  0.72731500  0.71429600  0.52949500  1
  C  545  1  0.76402400  0.75029300  0.48251500  1
  C  546  1  0.78026800  0.78424700  0.47180000  1
  C  547  1  0.80641800  0.78698300  0.44333300  1
  C  548  1  0.81868900  0.75536800  0.42499600  1
  C  549  1  0.80386300  0.72125800  0.43504200  1
  C  550  1  0.77706700  0.71891100  0.46304600  1
  C  561  1  0.49846600  0.51554300  0.73323800  1
  C  562  1  0.52989800  0.53475600  0.71981100  1
  C  563  1  0.52772900  0.56127200  0.69165700  1
  C  564  1  0.49358300  0.57062700  0.67665900  1
  C  565  1  0.46173200  0.55280500  0.68957100  1
  C  566  1  0.46447900  0.52518200  0.71642900  1
  C  569  1  0.50081500  0.48707400  0.76149300  1
  C  570  1  0.53484100  0.47111400  0.77241700  1
  C  571  1  0.53743900  0.44485200  0.80077100  1
  C  572  1  0.50569000  0.43174600  0.81818700  1
  C  573  1  0.47155500  0.44528800  0.80672700  1
  C  574  1  0.46922200  0.47301500  0.77985700  1
  C  585  1  0.00227400  0.48625200  0.23284300  1
  C  586  1  0.97110000  0.46661800  0.21949600  1
  C  587  1  0.97361100  0.43986600  0.19162400  1
  C  588  1  0.00784700  0.43066700  0.17674600  1
  C  589  1  0.03957000  0.44864200  0.18974300  1
  C  590  1  0.03644800  0.47650100  0.21635800  1
  C  593  1  0.99939600  0.51547700  0.26033700  1
  C  594  1  0.96504000  0.53007800  0.27240200  1
  C  595  1  0.96236400  0.55678100  0.30031100  1
  C  596  1  0.99449400  0.57118200  0.31623400  1
  C  597  1  0.02879800  0.55826200  0.30467700  1
  C  598  1  0.03100500  0.53014100  0.27824700  1
  C  609  1  0.89430300  0.89690100  0.34164900  1
  C  610  1  0.86842400  0.86988100  0.33207000  1
  C  611  1  0.84850200  0.85068200  0.35942100  1
  C  612  1  0.85594800  0.85943100  0.39692400  1
  C  619  1  0.91494800  0.91552000  0.31580800  1
  C  621  1  0.83771800  0.84891300  0.42881600  1
  C  623  1  0.60707800  0.10452900  0.84163400  1
  C  624  1  0.63295100  0.13155700  0.83206300  1
  C  625  1  0.65287900  0.15075300  0.85941500  1
  C  626  1  0.64543800  0.14199800  0.89691800  1
  C  633  1  0.58654500  0.08578800  0.81576400  1
  C  635  1  0.66368400  0.15250200  0.92880700  1
  C  637  1  0.35304600  0.64325000  0.59314700  1
  C  638  1  0.37926100  0.61741300  0.58173300  1
  C  639  1  0.39886600  0.59576500  0.60725300  1
  C  640  1  0.39044200  0.60063700  0.64534800  1
  C  647  1  0.33531200  0.66535800  0.56780600  1
  C  649  1  0.40951000  0.58670900  0.67530900  1
  C  651  1  0.14833100  0.35822700  0.09319290  1
  C  652  1  0.12212700  0.38407500  0.08177890  1
  C  653  1  0.10254300  0.40573600  0.10731500  1
  C  654  1  0.11103100  0.40101500  0.14541500  1
  C  661  1  0.16592600  0.33598000  0.06788690  1
  C  663  1  0.09192400  0.41481400  0.17547000  1
  C  665  1  0.61287800  0.89846500  0.65196900  1
  C  666  1  0.63651600  0.86988400  0.66237000  1
  C  667  1  0.65517100  0.84851000  0.63595500  1
  C  668  1  0.64819600  0.85607400  0.59809600  1
  C  675  1  0.59133700  0.91561300  0.67810500  1
  C  677  1  0.66345200  0.83870400  0.56763600  1
  C  679  1  0.88858500  0.10296200  0.15199300  1
  C  680  1  0.86492200  0.13153300  0.16237500  1
  C  681  1  0.84626200  0.15289200  0.13595700  1
  C  682  1  0.85325300  0.14533200  0.09810290  1
  C  689  1  0.91001000  0.08575100  0.17820800  1
  C  691  1  0.83799200  0.16270300  0.06764590  1
  C  693  1  0.14864900  0.63844100  0.40204300  1
  C  694  1  0.12038600  0.61476500  0.41319500  1
  C  695  1  0.09886100  0.59532700  0.38750600  1
  C  696  1  0.10612000  0.60136800  0.34940800  1
  C  703  1  0.16578300  0.66040700  0.42789200  1
  C  705  1  0.08752200  0.58654000  0.31944000  1
  C  707  1  0.35262200  0.36283600  0.90217300  1
  C  708  1  0.38087100  0.38648500  0.91334300  1
  C  709  1  0.40232700  0.40597700  0.88767800  1
  C  710  1  0.39493100  0.39996400  0.84958100  1
  C  717  1  0.33556600  0.34085200  0.92797200  1
  C  719  1  0.41325600  0.41512700  0.81968500  1
  C  721  1  0.10695100  0.10592700  0.15430200  1
  C  722  1  0.13334500  0.13264500  0.16312500  1
  C  723  1  0.15300100  0.15137700  0.13529400  1
  C  724  1  0.14493200  0.14239100  0.09800690  1
  C  731  1  0.08766400  0.08713700  0.18105600  1
  C  733  1  0.16298500  0.15250100  0.06582790  1
  C  735  1  0.39448400  0.89549100  0.65425900  1
  C  736  1  0.36810500  0.86876100  0.66304900  1
  C  737  1  0.34842100  0.85009000  0.63519300  1
  C  738  1  0.35640300  0.85919900  0.59789600  1
  C  745  1  0.41370300  0.91435400  0.68103200  1
  C  747  1  0.33824700  0.84898700  0.56580100  1
  C  749  1  0.64693900  0.35693200  0.90270700  1
  C  750  1  0.61997300  0.38286800  0.91230500  1
  C  751  1  0.60081800  0.40284500  0.88495900  1
  C  752  1  0.60972900  0.39552200  0.84746700  1
  C  759  1  0.66560700  0.33626500  0.92850800  1
  C  761  1  0.59929300  0.41381500  0.81560800  1
  C  763  1  0.85302300  0.64326100  0.40151500  1
  C  764  1  0.87964400  0.61740500  0.41195100  1
  C  765  1  0.89922600  0.59672400  0.38551100  1
  C  766  1  0.89043300  0.60245500  0.34757200  1
  C  773  1  0.83540400  0.66507600  0.42719600  1
  C  775  1  0.90890100  0.58970300  0.31648000  1
  C  777  1  0.38964000  0.10703900  0.84041500  1
  C  778  1  0.36593900  0.13604700  0.83176500  1
  C  779  1  0.34698900  0.15557500  0.85927200  1
  C  780  1  0.35478500  0.14670600  0.89666000  1
  C  787  1  0.40220900  0.08472000  0.81219300  1
  C  789  1  0.33885500  0.16272200  0.92753600  1
  C  791  1  0.11167100  0.89428100  0.34042900  1
  C  792  1  0.13535800  0.86526100  0.33176200  1
  C  793  1  0.15438300  0.84580200  0.35926600  1
  C  794  1  0.14660800  0.85467700  0.39665700  1
  C  801  1  0.09932000  0.91678500  0.31225700  1
  C  803  1  0.16257400  0.83868500  0.42752400  1
  C  805  1  0.85284800  0.36272900  0.09236290  1
  C  806  1  0.88140500  0.38640800  0.08192990  1
  C  807  1  0.90277800  0.40511500  0.10830700  1
  C  808  1  0.89520100  0.39818900  0.14616300  1
  C  815  1  0.83570300  0.34122700  0.06614290  1
  C  817  1  0.91271100  0.41338800  0.17655100  1
  C  819  1  0.64854100  0.63865500  0.59241600  1
  C  820  1  0.61998400  0.61498400  0.58196600  1
  C  821  1  0.59861600  0.59625300  0.60833700  1
  C  822  1  0.60618300  0.60313200  0.64620700  1
  C  829  1  0.66564000  0.66025600  0.56626700  1
  C  831  1  0.58872200  0.58785100  0.67661500  1
  C  833  1  0.99782700  0.01501600  0.47870100  1
  C  834  1  0.02936200  0.03368700  0.46487400  1
  C  835  1  0.02752300  0.05931600  0.43587400  1
  C  836  1  0.99361000  0.06871600  0.42038000  1
  C  837  1  0.96177800  0.05043800  0.43262900  1
  C  838  1  0.96406700  0.02411900  0.46101800  1
  C  841  1  0.00021800  0.98767600  0.50820100  1
  C  842  1  0.03422200  0.97171600  0.51942600  1
  C  843  1  0.03671200  0.94581300  0.54817900  1
  C  844  1  0.00493100  0.93346800  0.56614900  1
  C  845  1  0.97090300  0.94791600  0.55541400  1
  C  846  1  0.96869000  0.97464100  0.52742200  1
  C  857  1  0.50356200  0.98642100  0.97870700  1
  C  858  1  0.47203200  0.96774200  0.96488000  1
  C  859  1  0.47387400  0.94209400  0.93589700  1
  C  860  1  0.50779000  0.93269600  0.92040800  1
  C  861  1  0.53961900  0.95097800  0.93266000  1
  C  862  1  0.53732700  0.97731300  0.96103000  1
  C  865  1  0.50116300  0.01375900  0.00820776  1
  C  866  1  0.46715400  0.02968600  0.01948980  1
  C  867  1  0.46468700  0.05552400  0.04830980  1
  C  868  1  0.49649100  0.06790300  0.06621880  1
  C  869  1  0.53051100  0.05351500  0.05540780  1
  C  870  1  0.53270200  0.02681000  0.02739880  1
  C  881  1  0.23652500  0.74777900  0.72929000  1
  C  882  1  0.21712700  0.77925800  0.71632200  1
  C  883  1  0.19072300  0.77743700  0.68807800  1
  C  884  1  0.18226400  0.74378700  0.67147300  1
  C  885  1  0.20114800  0.71197700  0.68292000  1
  C  886  1  0.22755100  0.71413800  0.71130900  1
  C  889  1  0.26425800  0.75017600  0.75844900  1
  C  890  1  0.28050200  0.78419000  0.76905700  1
  C  891  1  0.30670600  0.78708700  0.79748200  1
  C  892  1  0.31886200  0.75551800  0.81597700  1
  C  893  1  0.30392100  0.72137000  0.80622300  1
  C  894  1  0.27725400  0.71887500  0.77807400  1
  C  905  1  0.26487400  0.25361300  0.22933500  1
  C  906  1  0.28427000  0.22212400  0.21635500  1
  C  907  1  0.31067900  0.22394400  0.18811000  1
  C  908  1  0.31913000  0.25758700  0.17150400  1
  C  909  1  0.30021000  0.28936900  0.18296500  1
  C  910  1  0.27382300  0.28723800  0.21135100  1
  C  913  1  0.23718400  0.25131100  0.25852700  1
  C  914  1  0.22100200  0.21732200  0.26915700  1
  C  915  1  0.19487100  0.21431000  0.29760200  1
  C  916  1  0.18257700  0.24584500  0.31610300  1
  C  917  1  0.19747600  0.28003400  0.30631500  1
  C  918  1  0.22414300  0.28258300  0.27815600  1
  C  929  1  0.76518200  0.25338400  0.25817100  1
  C  930  1  0.78444400  0.22190800  0.27137800  1
  C  931  1  0.81071400  0.22382100  0.29977600  1
  C  932  1  0.81936000  0.25761800  0.31597100  1
  C  933  1  0.80060100  0.28938800  0.30425100  1
  C  934  1  0.77413100  0.28709600  0.27599800  1
  C  937  1  0.73747700  0.25103700  0.22903400  1
  C  938  1  0.72123000  0.21708700  0.21828200  1
  C  939  1  0.69509700  0.21437000  0.18978900  1
  C  940  1  0.68279100  0.24600800  0.17153200  1
  C  941  1  0.69752100  0.28008300  0.18181700  1
  C  942  1  0.72439300  0.28244600  0.20968900  1
  C  953  1  0.73628300  0.74799800  0.75811600  1
  C  954  1  0.71702100  0.77948200  0.77133800  1
  C  955  1  0.69074000  0.77759000  0.79973800  1
  C  956  1  0.68207900  0.74379500  0.81593100  1
  C  957  1  0.70082900  0.71201800  0.80420500  1
  C  958  1  0.72731500  0.71429600  0.77595500  1
  C  961  1  0.76402400  0.75029300  0.72897500  1
  C  962  1  0.78026800  0.78424700  0.71826000  1
  C  963  1  0.80641800  0.78698300  0.68979300  1
  C  964  1  0.81868900  0.75536800  0.67145600  1
  C  965  1  0.80386300  0.72125800  0.68150200  1
  C  966  1  0.77706700  0.71891100  0.70950600  1
  C  977  1  0.49846600  0.51554300  0.97969800  1
  C  978  1  0.52989800  0.53475600  0.96627100  1
  C  979  1  0.52772900  0.56127200  0.93811700  1
  C  980  1  0.49358300  0.57062700  0.92311900  1
  C  981  1  0.46173200  0.55280500  0.93603100  1
  C  982  1  0.46447900  0.52518200  0.96288900  1
  C  985  1  0.50081500  0.48707400  0.00795276  1
  C  986  1  0.53484100  0.47111400  0.01887680  1
  C  987  1  0.53743900  0.44485200  0.04723080  1
  C  988  1  0.50569000  0.43174600  0.06464680  1
  C  989  1  0.47155500  0.44528800  0.05318680  1
  C  990  1  0.46922200  0.47301500  0.02631680  1
  C  1001  1  0.00227400  0.48625200  0.47930300  1
  C  1002  1  0.97110000  0.46661800  0.46595600  1
  C  1003  1  0.97361100  0.43986600  0.43808400  1
  C  1004  1  0.00784700  0.43066700  0.42320600  1
  C  1005  1  0.03957000  0.44864200  0.43620300  1
  C  1006  1  0.03644800  0.47650100  0.46281800  1
  C  1009  1  0.99939600  0.51547700  0.50679700  1
  C  1010  1  0.96504000  0.53007800  0.51886200  1
  C  1011  1  0.96236400  0.55678100  0.54677100  1
  C  1012  1  0.99449400  0.57118200  0.56269400  1
  C  1013  1  0.02879800  0.55826200  0.55113700  1
  C  1014  1  0.03100500  0.53014100  0.52470700  1
  C  1025  1  0.89430300  0.89690100  0.58810900  1
  C  1026  1  0.86842400  0.86988100  0.57853000  1
  C  1027  1  0.84850200  0.85068200  0.60588100  1
  C  1028  1  0.85594800  0.85943100  0.64338400  1
  C  1035  1  0.91494800  0.91552000  0.56226800  1
  C  1037  1  0.83771800  0.84891300  0.67527600  1
  C  1039  1  0.60707800  0.10452900  0.08809380  1
  C  1040  1  0.63295100  0.13155700  0.07852280  1
  C  1041  1  0.65287900  0.15075300  0.10587500  1
  C  1042  1  0.64543800  0.14199800  0.14337800  1
  C  1049  1  0.58654500  0.08578800  0.06222380  1
  C  1051  1  0.66368400  0.15250200  0.17526700  1
  C  1053  1  0.35304600  0.64325000  0.83960700  1
  C  1054  1  0.37926100  0.61741300  0.82819300  1
  C  1055  1  0.39886600  0.59576500  0.85371300  1
  C  1056  1  0.39044200  0.60063700  0.89180800  1
  C  1063  1  0.33531200  0.66535800  0.81426600  1
  C  1065  1  0.40951000  0.58670900  0.92176900  1
  C  1067  1  0.14833100  0.35822700  0.33965300  1
  C  1068  1  0.12212700  0.38407500  0.32823900  1
  C  1069  1  0.10254300  0.40573600  0.35377500  1
  C  1070  1  0.11103100  0.40101500  0.39187500  1
  C  1077  1  0.16592600  0.33598000  0.31434700  1
  C  1079  1  0.09192400  0.41481400  0.42193000  1
  C  1081  1  0.61287800  0.89846500  0.89842900  1
  C  1082  1  0.63651600  0.86988400  0.90883000  1
  C  1083  1  0.65517100  0.84851000  0.88241500  1
  C  1084  1  0.64819600  0.85607400  0.84455600  1
  C  1091  1  0.59133700  0.91561300  0.92456500  1
  C  1093  1  0.66345200  0.83870400  0.81409600  1
  C  1095  1  0.88858500  0.10296200  0.39845300  1
  C  1096  1  0.86492200  0.13153300  0.40883500  1
  C  1097  1  0.84626200  0.15289200  0.38241700  1
  C  1098  1  0.85325300  0.14533200  0.34456300  1
  C  1105  1  0.91001000  0.08575100  0.42466800  1
  C  1107  1  0.83799200  0.16270300  0.31410600  1
  C  1109  1  0.14864900  0.63844100  0.64850300  1
  C  1110  1  0.12038600  0.61476500  0.65965500  1
  C  1111  1  0.09886100  0.59532700  0.63396600  1
  C  1112  1  0.10612000  0.60136800  0.59586800  1
  C  1119  1  0.16578300  0.66040700  0.67435200  1
  C  1121  1  0.08752200  0.58654000  0.56590000  1
  C  1123  1  0.35262200  0.36283600  0.14863300  1
  C  1124  1  0.38087100  0.38648500  0.15980300  1
  C  1125  1  0.40232700  0.40597700  0.13413800  1
  C  1126  1  0.39493100  0.39996400  0.09604080  1
  C  1133  1  0.33556600  0.34085200  0.17443200  1
  C  1135  1  0.41325600  0.41512700  0.06614480  1
  C  1137  1  0.10695100  0.10592700  0.40076200  1
  C  1138  1  0.13334500  0.13264500  0.40958500  1
  C  1139  1  0.15300100  0.15137700  0.38175400  1
  C  1140  1  0.14493200  0.14239100  0.34446700  1
  C  1147  1  0.08766400  0.08713700  0.42751600  1
  C  1149  1  0.16298500  0.15250100  0.31228800  1
  C  1151  1  0.39448400  0.89549100  0.90071900  1
  C  1152  1  0.36810500  0.86876100  0.90950900  1
  C  1153  1  0.34842100  0.85009000  0.88165300  1
  C  1154  1  0.35640300  0.85919900  0.84435600  1
  C  1161  1  0.41370300  0.91435400  0.92749200  1
  C  1163  1  0.33824700  0.84898700  0.81226100  1
  C  1165  1  0.64693900  0.35693200  0.14916700  1
  C  1166  1  0.61997300  0.38286800  0.15876500  1
  C  1167  1  0.60081800  0.40284500  0.13141900  1
  C  1168  1  0.60972900  0.39552200  0.09392680  1
  C  1175  1  0.66560700  0.33626500  0.17496800  1
  C  1177  1  0.59929300  0.41381500  0.06206780  1
  C  1179  1  0.85302300  0.64326100  0.64797500  1
  C  1180  1  0.87964400  0.61740500  0.65841100  1
  C  1181  1  0.89922600  0.59672400  0.63197100  1
  C  1182  1  0.89043300  0.60245500  0.59403200  1
  C  1189  1  0.83540400  0.66507600  0.67365600  1
  C  1191  1  0.90890100  0.58970300  0.56294000  1
  C  1193  1  0.38964000  0.10703900  0.08687480  1
  C  1194  1  0.36593900  0.13604700  0.07822480  1
  C  1195  1  0.34698900  0.15557500  0.10573200  1
  C  1196  1  0.35478500  0.14670600  0.14312000  1
  C  1203  1  0.40220900  0.08472000  0.05865280  1
  C  1205  1  0.33885500  0.16272200  0.17399600  1
  C  1207  1  0.11167100  0.89428100  0.58688900  1
  C  1208  1  0.13535800  0.86526100  0.57822200  1
  C  1209  1  0.15438300  0.84580200  0.60572600  1
  C  1210  1  0.14660800  0.85467700  0.64311700  1
  C  1217  1  0.09932000  0.91678500  0.55871700  1
  C  1219  1  0.16257400  0.83868500  0.67398400  1
  C  1221  1  0.85284800  0.36272900  0.33882300  1
  C  1222  1  0.88140500  0.38640800  0.32839000  1
  C  1223  1  0.90277800  0.40511500  0.35476700  1
  C  1224  1  0.89520100  0.39818900  0.39262300  1
  C  1231  1  0.83570300  0.34122700  0.31260300  1
  C  1233  1  0.91271100  0.41338800  0.42301100  1
  C  1235  1  0.64854100  0.63865500  0.83887600  1
  C  1236  1  0.61998400  0.61498400  0.82842600  1
  C  1237  1  0.59861600  0.59625300  0.85479700  1
  C  1238  1  0.60618300  0.60313200  0.89266700  1
  C  1245  1  0.66564000  0.66025600  0.81272700  1
  C  1247  1  0.58872200  0.58785100  0.92307500  1
  N  21  1  0.94266100  0.93402700  0.08035700  1
  N  22  1  0.06674100  0.92916900  0.06588000  1
  N  23  1  0.93120600  0.05929800  0.92228400  1
  N  24  1  0.05586000  0.07494600  0.92667700  1
  N  45  1  0.55877500  0.06738800  0.58033700  1
  N  46  1  0.43473700  0.07222500  0.56614400  1
  N  47  1  0.57018000  0.94213500  0.42228500  1
  N  48  1  0.44552900  0.92650400  0.42667500  1
  N  69  1  0.31705500  0.69326800  0.33222800  1
  N  70  1  0.32295300  0.81816600  0.31296300  1
  N  71  1  0.19240600  0.68150900  0.17217100  1
  N  72  1  0.17507200  0.80605900  0.17953900  1
  N  93  1  0.18429900  0.30813500  0.83228500  1
  N  94  1  0.17873900  0.18288700  0.81196900  1
  N  95  1  0.30890800  0.31981800  0.67225300  1
  N  96  1  0.32633200  0.19533600  0.67954800  1
  N  117  1  0.68372700  0.30831600  0.67095800  1
  N  118  1  0.67884700  0.18341800  0.68833300  1
  N  119  1  0.80926800  0.31991600  0.82900200  1
  N  120  1  0.82570200  0.19534300  0.82345600  1
  N  141  1  0.81715500  0.69306200  0.16999200  1
  N  142  1  0.82260700  0.81797400  0.18835600  1
  N  143  1  0.69216200  0.68151400  0.32900000  1
  N  144  1  0.67575500  0.80606700  0.32343200  1
  N  165  1  0.44366900  0.43152700  0.57834100  1
  N  166  1  0.56825200  0.42871700  0.56331500  1
  N  167  1  0.43144200  0.55960200  0.42454700  1
  N  168  1  0.55597600  0.57581900  0.42779500  1
  N  189  1  0.05652900  0.57099100  0.07752800  1
  N  190  1  0.93235300  0.56376400  0.07303000  1
  N  191  1  0.06997200  0.44194100  0.92476000  1
  N  192  1  0.94548400  0.42530800  0.92764900  1
  N  197  1  0.88248600  0.88469600  0.15686000  1
  N  198  1  0.90055700  0.90196800  0.13146400  1
  N  199  1  0.82319900  0.82589400  0.10146400  1
  N  211  1  0.61890500  0.11672600  0.65684900  1
  N  212  1  0.60084000  0.09944600  0.63145300  1
  N  213  1  0.67818700  0.17553200  0.60145600  1
  N  225  1  0.36601300  0.62750100  0.40745900  1
  N  226  1  0.34844000  0.64733300  0.38338800  1
  N  227  1  0.42470000  0.57297600  0.34622200  1
  N  239  1  0.13535600  0.37402300  0.90748600  1
  N  240  1  0.15288700  0.35412200  0.88343400  1
  N  241  1  0.07668400  0.42850100  0.84630600  1
  N  253  1  0.62365900  0.88313300  0.34405600  1
  N  254  1  0.60693800  0.90274500  0.36897000  1
  N  255  1  0.67869400  0.82271700  0.40265800  1
  N  267  1  0.87779800  0.11827900  0.84406900  1
  N  268  1  0.89451900  0.09867000  0.86899100  1
  N  269  1  0.82268400  0.17863500  0.90265800  1
  N  281  1  0.13270600  0.62623300  0.09459600  1
  N  282  1  0.15246200  0.64372700  0.11890000  1
  N  283  1  0.07312600  0.57234400  0.15535900  1
  N  295  1  0.36845000  0.37501400  0.59471900  1
  N  296  1  0.34878800  0.35748200  0.61904500  1
  N  297  1  0.42802700  0.42894200  0.65569400  1
  N  309  1  0.11820100  0.11706100  0.84586800  1
  N  310  1  0.10026500  0.10016800  0.87172100  1
  N  311  1  0.17870300  0.17599300  0.89974100  1
  N  323  1  0.38319400  0.88445000  0.34576200  1
  N  324  1  0.40115800  0.90125800  0.37167300  1
  N  325  1  0.32275900  0.82545000  0.39972300  1
  N  337  1  0.63487600  0.36889300  0.59458500  1
  N  338  1  0.65204300  0.35072900  0.61997300  1
  N  339  1  0.57598800  0.42811800  0.64998900  1
  N  351  1  0.86557400  0.62927000  0.09376000  1
  N  352  1  0.84806400  0.64822300  0.11853600  1
  N  353  1  0.92533800  0.57364200  0.15254900  1
  N  365  1  0.37998700  0.11975400  0.65626900  1
  N  366  1  0.39614400  0.10090200  0.63019600  1
  N  367  1  0.32172400  0.18027900  0.60076300  1
  N  379  1  0.12140700  0.88162900  0.15627400  1
  N  380  1  0.10523300  0.90047200  0.13020700  1
  N  381  1  0.17972800  0.82118600  0.10075400  1
  N  393  1  0.86819200  0.37361400  0.90733200  1
  N  394  1  0.84858400  0.35682500  0.88244800  1
  N  395  1  0.92858500  0.42863000  0.84867200  1
  N  407  1  0.63317800  0.62773700  0.40737100  1
  N  408  1  0.65277700  0.64455600  0.38250100  1
  N  409  1  0.57280600  0.57275700  0.34868600  1
  N  437  1  0.94266100  0.93402700  0.32681700  1
  N  438  1  0.06674100  0.92916900  0.31234000  1
  N  439  1  0.93120600  0.05929800  0.16874400  1
  N  440  1  0.05586000  0.07494600  0.17313700  1
  N  461  1  0.55877500  0.06738800  0.82679700  1
  N  462  1  0.43473700  0.07222500  0.81260400  1
  N  463  1  0.57018000  0.94213500  0.66874500  1
  N  464  1  0.44552900  0.92650400  0.67313500  1
  N  485  1  0.31705500  0.69326800  0.57868800  1
  N  486  1  0.32295300  0.81816600  0.55942300  1
  N  487  1  0.19240600  0.68150900  0.41863100  1
  N  488  1  0.17507200  0.80605900  0.42599900  1
  N  509  1  0.18429900  0.30813500  0.07874490  1
  N  510  1  0.17873900  0.18288700  0.05842890  1
  N  511  1  0.30890800  0.31981800  0.91871300  1
  N  512  1  0.32633200  0.19533600  0.92600800  1
  N  533  1  0.68372700  0.30831600  0.91741800  1
  N  534  1  0.67884700  0.18341800  0.93479300  1
  N  535  1  0.80926800  0.31991600  0.07546190  1
  N  536  1  0.82570200  0.19534300  0.06991590  1
  N  557  1  0.81715500  0.69306200  0.41645200  1
  N  558  1  0.82260700  0.81797400  0.43481600  1
  N  559  1  0.69216200  0.68151400  0.57546000  1
  N  560  1  0.67575500  0.80606700  0.56989200  1
  N  581  1  0.44366900  0.43152700  0.82480100  1
  N  582  1  0.56825200  0.42871700  0.80977500  1
  N  583  1  0.43144200  0.55960200  0.67100700  1
  N  584  1  0.55597600  0.57581900  0.67425500  1
  N  605  1  0.05652900  0.57099100  0.32398800  1
  N  606  1  0.93235300  0.56376400  0.31949000  1
  N  607  1  0.06997200  0.44194100  0.17122000  1
  N  608  1  0.94548400  0.42530800  0.17410900  1
  N  613  1  0.88248600  0.88469600  0.40332000  1
  N  614  1  0.90055700  0.90196800  0.37792400  1
  N  615  1  0.82319900  0.82589400  0.34792400  1
  N  627  1  0.61890500  0.11672600  0.90330900  1
  N  628  1  0.60084000  0.09944600  0.87791300  1
  N  629  1  0.67818700  0.17553200  0.84791600  1
  N  641  1  0.36601300  0.62750100  0.65391900  1
  N  642  1  0.34844000  0.64733300  0.62984800  1
  N  643  1  0.42470000  0.57297600  0.59268200  1
  N  655  1  0.13535600  0.37402300  0.15394600  1
  N  656  1  0.15288700  0.35412200  0.12989400  1
  N  657  1  0.07668400  0.42850100  0.09276590  1
  N  669  1  0.62365900  0.88313300  0.59051600  1
  N  670  1  0.60693800  0.90274500  0.61543000  1
  N  671  1  0.67869400  0.82271700  0.64911800  1
  N  683  1  0.87779800  0.11827900  0.09052890  1
  N  684  1  0.89451900  0.09867000  0.11545100  1
  N  685  1  0.82268400  0.17863500  0.14911800  1
  N  697  1  0.13270600  0.62623300  0.34105600  1
  N  698  1  0.15246200  0.64372700  0.36536000  1
  N  699  1  0.07312600  0.57234400  0.40181900  1
  N  711  1  0.36845000  0.37501400  0.84117900  1
  N  712  1  0.34878800  0.35748200  0.86550500  1
  N  713  1  0.42802700  0.42894200  0.90215400  1
  N  725  1  0.11820100  0.11706100  0.09232790  1
  N  726  1  0.10026500  0.10016800  0.11818100  1
  N  727  1  0.17870300  0.17599300  0.14620100  1
  N  739  1  0.38319400  0.88445000  0.59222200  1
  N  740  1  0.40115800  0.90125800  0.61813300  1
  N  741  1  0.32275900  0.82545000  0.64618300  1
  N  753  1  0.63487600  0.36889300  0.84104500  1
  N  754  1  0.65204300  0.35072900  0.86643300  1
  N  755  1  0.57598800  0.42811800  0.89644900  1
  N  767  1  0.86557400  0.62927000  0.34022000  1
  N  768  1  0.84806400  0.64822300  0.36499600  1
  N  769  1  0.92533800  0.57364200  0.39900900  1
  N  781  1  0.37998700  0.11975400  0.90272900  1
  N  782  1  0.39614400  0.10090200  0.87665600  1
  N  783  1  0.32172400  0.18027900  0.84722300  1
  N  795  1  0.12140700  0.88162900  0.40273400  1
  N  796  1  0.10523300  0.90047200  0.37666700  1
  N  797  1  0.17972800  0.82118600  0.34721400  1
  N  809  1  0.86819200  0.37361400  0.15379200  1
  N  810  1  0.84858400  0.35682500  0.12890800  1
  N  811  1  0.92858500  0.42863000  0.09513190  1
  N  823  1  0.63317800  0.62773700  0.65383100  1
  N  824  1  0.65277700  0.64455600  0.62896100  1
  N  825  1  0.57280600  0.57275700  0.59514600  1
  N  853  1  0.94266100  0.93402700  0.57327700  1
  N  854  1  0.06674100  0.92916900  0.55880000  1
  N  855  1  0.93120600  0.05929800  0.41520400  1
  N  856  1  0.05586000  0.07494600  0.41959700  1
  N  877  1  0.55877500  0.06738800  0.07325680  1
  N  878  1  0.43473700  0.07222500  0.05906380  1
  N  879  1  0.57018000  0.94213500  0.91520500  1
  N  880  1  0.44552900  0.92650400  0.91959500  1
  N  901  1  0.31705500  0.69326800  0.82514800  1
  N  902  1  0.32295300  0.81816600  0.80588300  1
  N  903  1  0.19240600  0.68150900  0.66509100  1
  N  904  1  0.17507200  0.80605900  0.67245900  1
  N  925  1  0.18429900  0.30813500  0.32520500  1
  N  926  1  0.17873900  0.18288700  0.30488900  1
  N  927  1  0.30890800  0.31981800  0.16517300  1
  N  928  1  0.32633200  0.19533600  0.17246800  1
  N  949  1  0.68372700  0.30831600  0.16387800  1
  N  950  1  0.67884700  0.18341800  0.18125300  1
  N  951  1  0.80926800  0.31991600  0.32192200  1
  N  952  1  0.82570200  0.19534300  0.31637600  1
  N  973  1  0.81715500  0.69306200  0.66291200  1
  N  974  1  0.82260700  0.81797400  0.68127600  1
  N  975  1  0.69216200  0.68151400  0.82192000  1
  N  976  1  0.67575500  0.80606700  0.81635200  1
  N  997  1  0.44366900  0.43152700  0.07126080  1
  N  998  1  0.56825200  0.42871700  0.05623480  1
  N  999  1  0.43144200  0.55960200  0.91746700  1
  N  1000  1  0.55597600  0.57581900  0.92071500  1
  N  1021  1  0.05652900  0.57099100  0.57044800  1
  N  1022  1  0.93235300  0.56376400  0.56595000  1
  N  1023  1  0.06997200  0.44194100  0.41768000  1
  N  1024  1  0.94548400  0.42530800  0.42056900  1
  N  1029  1  0.88248600  0.88469600  0.64978000  1
  N  1030  1  0.90055700  0.90196800  0.62438400  1
  N  1031  1  0.82319900  0.82589400  0.59438400  1
  N  1043  1  0.61890500  0.11672600  0.14976900  1
  N  1044  1  0.60084000  0.09944600  0.12437300  1
  N  1045  1  0.67818700  0.17553200  0.09437580  1
  N  1057  1  0.36601300  0.62750100  0.90037900  1
  N  1058  1  0.34844000  0.64733300  0.87630800  1
  N  1059  1  0.42470000  0.57297600  0.83914200  1
  N  1071  1  0.13535600  0.37402300  0.40040600  1
  N  1072  1  0.15288700  0.35412200  0.37635400  1
  N  1073  1  0.07668400  0.42850100  0.33922600  1
  N  1085  1  0.62365900  0.88313300  0.83697600  1
  N  1086  1  0.60693800  0.90274500  0.86189000  1
  N  1087  1  0.67869400  0.82271700  0.89557800  1
  N  1099  1  0.87779800  0.11827900  0.33698900  1
  N  1100  1  0.89451900  0.09867000  0.36191100  1
  N  1101  1  0.82268400  0.17863500  0.39557800  1
  N  1113  1  0.13270600  0.62623300  0.58751600  1
  N  1114  1  0.15246200  0.64372700  0.61182000  1
  N  1115  1  0.07312600  0.57234400  0.64827900  1
  N  1127  1  0.36845000  0.37501400  0.08763880  1
  N  1128  1  0.34878800  0.35748200  0.11196500  1
  N  1129  1  0.42802700  0.42894200  0.14861400  1
  N  1141  1  0.11820100  0.11706100  0.33878800  1
  N  1142  1  0.10026500  0.10016800  0.36464100  1
  N  1143  1  0.17870300  0.17599300  0.39266100  1
  N  1155  1  0.38319400  0.88445000  0.83868200  1
  N  1156  1  0.40115800  0.90125800  0.86459300  1
  N  1157  1  0.32275900  0.82545000  0.89264300  1
  N  1169  1  0.63487600  0.36889300  0.08750480  1
  N  1170  1  0.65204300  0.35072900  0.11289300  1
  N  1171  1  0.57598800  0.42811800  0.14290900  1
  N  1183  1  0.86557400  0.62927000  0.58668000  1
  N  1184  1  0.84806400  0.64822300  0.61145600  1
  N  1185  1  0.92533800  0.57364200  0.64546900  1
  N  1197  1  0.37998700  0.11975400  0.14918900  1
  N  1198  1  0.39614400  0.10090200  0.12311600  1
  N  1199  1  0.32172400  0.18027900  0.09368280  1
  N  1211  1  0.12140700  0.88162900  0.64919400  1
  N  1212  1  0.10523300  0.90047200  0.62312700  1
  N  1213  1  0.17972800  0.82118600  0.59367400  1
  N  1225  1  0.86819200  0.37361400  0.40025200  1
  N  1226  1  0.84858400  0.35682500  0.37536800  1
  N  1227  1  0.92858500  0.42863000  0.34159200  1
  N  1239  1  0.63317800  0.62773700  0.90029100  1
  N  1240  1  0.65277700  0.64455600  0.87542100  1
  N  1241  1  0.57280600  0.57275700  0.84160600  1
  O  8  1  0.99431600  0.09568100  0.90075400  1
  O  15  1  0.00441000  0.90626400  0.09973500  1
  O  32  1  0.50708100  0.90571400  0.40079900  1
  O  39  1  0.49703400  0.09503600  0.59988400  1
  O  56  1  0.15586200  0.74478100  0.15131100  1
  O  63  1  0.34548500  0.75574600  0.34994300  1
  O  80  1  0.34556200  0.25662200  0.65136400  1
  O  87  1  0.15584000  0.24555200  0.84992600  1
  O  104  1  0.84575300  0.25680200  0.85029900  1
  O  111  1  0.65615100  0.24592500  0.65170600  1
  O  128  1  0.65566100  0.74462700  0.35024200  1
  O  135  1  0.84531200  0.75551800  0.15162900  1
  O  152  1  0.49373600  0.59435200  0.40072800  1
  O  159  1  0.50579100  0.40567300  0.59919100  1
  O  176  1  0.00787300  0.40705600  0.90073000  1
  O  183  1  0.99384500  0.59413300  0.09981800  1
  O  424  1  0.99431600  0.09568100  0.14721400  1
  O  431  1  0.00441000  0.90626400  0.34619500  1
  O  448  1  0.50708100  0.90571400  0.64725900  1
  O  455  1  0.49703400  0.09503600  0.84634400  1
  O  472  1  0.15586200  0.74478100  0.39777100  1
  O  479  1  0.34548500  0.75574600  0.59640300  1
  O  496  1  0.34556200  0.25662200  0.89782400  1
  O  503  1  0.15584000  0.24555200  0.09638590  1
  O  520  1  0.84575300  0.25680200  0.09675890  1
  O  527  1  0.65615100  0.24592500  0.89816600  1
  O  544  1  0.65566100  0.74462700  0.59670200  1
  O  551  1  0.84531200  0.75551800  0.39808900  1
  O  568  1  0.49373600  0.59435200  0.64718800  1
  O  575  1  0.50579100  0.40567300  0.84565100  1
  O  592  1  0.00787300  0.40705600  0.14719000  1
  O  599  1  0.99384500  0.59413300  0.34627800  1
  O  840  1  0.99431600  0.09568100  0.39367400  1
  O  847  1  0.00441000  0.90626400  0.59265500  1
  O  864  1  0.50708100  0.90571400  0.89371900  1
  O  871  1  0.49703400  0.09503600  0.09280380  1
  O  888  1  0.15586200  0.74478100  0.64423100  1
  O  895  1  0.34548500  0.75574600  0.84286300  1
  O  912  1  0.34556200  0.25662200  0.14428400  1
  O  919  1  0.15584000  0.24555200  0.34284600  1
  O  936  1  0.84575300  0.25680200  0.34321900  1
  O  943  1  0.65615100  0.24592500  0.14462600  1
  O  960  1  0.65566100  0.74462700  0.84316200  1
  O  967  1  0.84531200  0.75551800  0.64454900  1
  O  984  1  0.49373600  0.59435200  0.89364800  1
  O  991  1  0.50579100  0.40567300  0.09211080  1
  O  1008  1  0.00787300  0.40705600  0.39365000  1
  O  1015  1  0.99384500  0.59413300  0.59273800  1
