# generated using pymatgen
data_H32C50N5O2
_symmetry_space_group_name_H-M   'P 1'
_cell_length_a   76.91680000
_cell_length_b   76.91680000
_cell_length_c   76.91680000
_cell_angle_alpha   90.00000000
_cell_angle_beta   90.00000000
_cell_angle_gamma   90.00000000
_symmetry_Int_Tables_number   1
_chemical_formula_structural   H32C50N5O2
_chemical_formula_sum   'H768 C1200 N120 O48'
_cell_volume   455054.72006151
_cell_formula_units_Z   24
loop_
 _symmetry_equiv_pos_site_id
 _symmetry_equiv_pos_as_xyz
  1  'x, y, z'
loop_
 _atom_site_type_symbol
 _atom_site_label
 _atom_site_symmetry_multiplicity
 _atom_site_fract_x
 _atom_site_fract_y
 _atom_site_fract_z
 _atom_site_occupancy
  H  73  1  0.98246500  0.53347800  0.35117200  1
  H  74  1  0.98210300  0.53014300  0.38195100  1
  H  75  1  0.01193900  0.48736300  0.34647600  1
  H  76  1  0.01137400  0.48390900  0.37734300  1
  H  77  1  0.02387900  0.49996000  0.40376500  1
  H  78  1  0.02443000  0.49847800  0.43483500  1
  H  79  1  0.96988200  0.51001500  0.40527400  1
  H  80  1  0.97052600  0.50864800  0.43634200  1
  H  81  1  0.99886300  0.53814400  0.44519000  1
  H  82  1  0.99936100  0.56103500  0.46884400  1
  H  83  1  0.99817900  0.51332600  0.49212200  1
  H  84  1  0.99908400  0.49149000  0.51322600  1
  H  85  1  0.99694900  0.46811500  0.44353000  1
  H  86  1  0.99716600  0.44438400  0.46650200  1
  H  87  1  0.02468400  0.43464500  0.50515900  1
  H  88  1  0.02410600  0.40356200  0.50406800  1
  H  89  1  0.97032200  0.43598400  0.49780600  1
  H  90  1  0.96965100  0.40490100  0.49686600  1
  H  91  1  0.99778600  0.44380700  0.53655700  1
  H  92  1  0.99849600  0.46672100  0.56018700  1
  H  93  1  0.99923800  0.56045600  0.53885800  1
  H  94  1  0.99927100  0.53670600  0.56184500  1
  H  95  1  0.97141500  0.50019500  0.56908900  1
  H  96  1  0.97067900  0.49972600  0.60011000  1
  H  97  1  0.02621000  0.50267700  0.57033200  1
  H  98  1  0.02558900  0.50177400  0.60141900  1
  H  99  1  0.01671900  0.51959500  0.62704900  1
  H  100  1  0.01495100  0.51951700  0.65803200  1
  H  101  1  0.97590000  0.48098500  0.65567400  1
  H  102  1  0.97801700  0.48067400  0.62480100  1
  H  103  1  0.02616900  0.57009500  0.50275800  1
  H  104  1  0.02555200  0.60118600  0.50363900  1
  H  105  1  0.97781500  0.62446800  0.52453700  1
  H  106  1  0.97566600  0.65533800  0.52438900  1
  H  107  1  0.01505800  0.65797200  0.48623100  1
  H  108  1  0.01685400  0.62698300  0.48597500  1
  H  109  1  0.97063500  0.59989100  0.50537100  1
  H  110  1  0.97136400  0.56887500  0.50492900  1
  H  111  1  0.98071600  0.38136700  0.47644900  1
  H  112  1  0.98097200  0.35056200  0.47339300  1
  H  113  1  0.01263200  0.37727500  0.52094700  1
  H  114  1  0.01309700  0.34638000  0.51775300  1
  H  119  1  0.98093800  0.68218700  0.50469600  1
  H  120  1  0.99870800  0.52568800  0.32369500  1
  H  121  1  0.99768500  0.32322300  0.48044900  1
  H  122  1  0.98111400  0.50043600  0.68248600  1
  H  195  1  0.35096600  0.98231500  0.53337000  1
  H  196  1  0.38174400  0.98196400  0.52997200  1
  H  197  1  0.34618600  0.01198800  0.48738800  1
  H  198  1  0.37704800  0.01144100  0.48387500  1
  H  199  1  0.40347800  0.02390100  0.50005500  1
  H  200  1  0.43454600  0.02447200  0.49855600  1
  H  201  1  0.40500300  0.96981600  0.50963000  1
  H  202  1  0.43607100  0.97047400  0.50822600  1
  H  203  1  0.44491100  0.99783300  0.53799300  1
  H  204  1  0.46854100  0.99767700  0.56088200  1
  H  205  1  0.49184600  0.99814500  0.51317500  1
  H  206  1  0.51296600  0.99912800  0.49137500  1
  H  207  1  0.44327000  0.99726100  0.46793300  1
  H  208  1  0.46627300  0.99791000  0.44421900  1
  H  209  1  0.50052400  0.02603800  0.43460000  1
  H  210  1  0.49981600  0.02532800  0.40350900  1
  H  211  1  0.50207900  0.97120900  0.43589300  1
  H  212  1  0.50184400  0.97041900  0.40486900  1
  H  213  1  0.53625500  0.99950500  0.44366000  1
  H  214  1  0.55991600  0.99957300  0.46657600  1
  H  215  1  0.53860900  0.99849200  0.56030300  1
  H  216  1  0.56157600  0.99897500  0.53656200  1
  H  217  1  0.56884000  0.97144900  0.49994400  1
  H  218  1  0.59985900  0.97071900  0.49950100  1
  H  219  1  0.57006900  0.02623200  0.50265100  1
  H  220  1  0.60115900  0.02562000  0.50176100  1
  H  221  1  0.62679700  0.01674100  0.51951600  1
  H  222  1  0.65778100  0.01497000  0.51946000  1
  H  223  1  0.65544500  0.97595500  0.48089100  1
  H  224  1  0.62457500  0.97808100  0.48055300  1
  H  225  1  0.49874800  0.02461600  0.57004900  1
  H  226  1  0.50002100  0.02410300  0.60113400  1
  H  227  1  0.53004400  0.98236700  0.62302900  1
  H  228  1  0.53338300  0.98279200  0.65380900  1
  H  229  1  0.48723100  0.01221700  0.65845500  1
  H  230  1  0.48378100  0.01160400  0.62758000  1
  H  231  1  0.50980400  0.97005200  0.59976800  1
  H  232  1  0.50861700  0.97065200  0.56869300  1
  H  233  1  0.48233300  0.97629900  0.38017800  1
  H  234  1  0.48274800  0.97421100  0.34931300  1
  H  235  1  0.51823400  0.01781500  0.37787100  1
  H  236  1  0.51824200  0.01604400  0.34689200  1
  H  241  1  0.52556000  0.99915000  0.68125100  1
  H  242  1  0.32346300  0.99861700  0.52567600  1
  H  243  1  0.50131100  0.98086000  0.32243200  1
  H  244  1  0.68224100  0.98113700  0.50040800  1
  H  317  1  0.53336600  0.35095900  0.98231600  1
  H  318  1  0.52997200  0.38173600  0.98197000  1
  H  319  1  0.48737900  0.34617800  0.01198000  1
  H  320  1  0.48387000  0.37704100  0.01143700  1
  H  321  1  0.50005700  0.40347200  0.02390300  1
  H  322  1  0.49855800  0.43454100  0.02447400  1
  H  323  1  0.50963400  0.40499700  0.96982000  1
  H  324  1  0.50822900  0.43606600  0.97047600  1
  H  325  1  0.53799400  0.44490800  0.99781400  1
  H  326  1  0.56088200  0.46854000  0.99765400  1
  H  327  1  0.51317500  0.49184100  0.99817000  1
  H  328  1  0.49137400  0.51296100  0.99911500  1
  H  329  1  0.46793400  0.44326600  0.99725100  1
  H  330  1  0.44422000  0.46626800  0.99790500  1
  H  331  1  0.43459300  0.50052000  0.02604100  1
  H  332  1  0.40350400  0.49981000  0.02532500  1
  H  333  1  0.43589800  0.50207000  0.97121200  1
  H  334  1  0.40487500  0.50183300  0.97041500  1
  H  335  1  0.44365700  0.53625000  0.99951200  1
  H  336  1  0.46657300  0.55991000  0.99956600  1
  H  337  1  0.56030000  0.53860700  0.99849200  1
  H  338  1  0.53655900  0.56157300  0.99896500  1
  H  339  1  0.49994200  0.56884300  0.97144200  1
  H  340  1  0.49949800  0.59986100  0.97072100  1
  H  341  1  0.50265000  0.57005800  0.02622500  1
  H  342  1  0.50176100  0.60114700  0.02562200  1
  H  343  1  0.51952000  0.62678900  0.01673600  1
  H  344  1  0.51946700  0.65777200  0.01496700  1
  H  345  1  0.48088300  0.65544200  0.97596500  1
  H  346  1  0.48054100  0.62457400  0.97809100  1
  H  347  1  0.57004700  0.49874300  0.02461300  1
  H  348  1  0.60113300  0.50001700  0.02409900  1
  H  349  1  0.62302900  0.53004000  0.98235900  1
  H  350  1  0.65380900  0.53337900  0.98278600  1
  H  351  1  0.65845200  0.48723300  0.01222100  1
  H  352  1  0.62757700  0.48378500  0.01160600  1
  H  353  1  0.59976500  0.50979900  0.97004800  1
  H  354  1  0.56869000  0.50861200  0.97064800  1
  H  355  1  0.38018400  0.48232300  0.97629000  1
  H  356  1  0.34932000  0.48273100  0.97419800  1
  H  357  1  0.37786400  0.51822500  0.01780300  1
  H  358  1  0.34688400  0.51822600  0.01602700  1
  H  363  1  0.68124500  0.52556200  0.99916400  1
  H  364  1  0.52566900  0.32345600  0.99861300  1
  H  365  1  0.32243800  0.50130000  0.98083900  1
  H  366  1  0.50043100  0.68223000  0.98114000  1
  H  439  1  0.47671500  0.02798900  0.85068200  1
  H  440  1  0.47969400  0.02730700  0.88142200  1
  H  441  1  0.51119300  0.98544000  0.84633800  1
  H  442  1  0.51391900  0.98457100  0.87722300  1
  H  443  1  0.52536300  0.00164400  0.90302300  1
  H  444  1  0.52663700  0.00038100  0.93410400  1
  H  445  1  0.47081000  0.00773900  0.90566300  1
  H  446  1  0.47220000  0.00676800  0.93666200  1
  H  447  1  0.50003500  0.03822900  0.94507300  1
  H  448  1  0.49997500  0.06104000  0.96881100  1
  H  449  1  0.50076300  0.01323900  0.99191600  1
  H  450  1  0.50042100  0.99134700  0.01295900  1
  H  451  1  0.49943900  0.96821800  0.94314300  1
  H  452  1  0.49945000  0.94439600  0.96604900  1
  H  453  1  0.52668200  0.93402500  0.00248300  1
  H  454  1  0.52536300  0.90293600  0.00155000  1
  H  455  1  0.47194300  0.93650100  0.99963000  1
  H  456  1  0.47052300  0.90549600  0.99904200  1
  H  457  1  0.50009400  0.94354100  0.03605900  1
  H  458  1  0.50024200  0.96635400  0.05980500  1
  H  459  1  0.49994300  0.06018600  0.03884100  1
  H  460  1  0.49979000  0.03636700  0.06173600  1
  H  461  1  0.47229500  0.99787200  0.06828300  1
  H  462  1  0.47095600  0.99709900  0.09928500  1
  H  463  1  0.52674200  0.00422500  0.07070900  1
  H  464  1  0.52552100  0.00314500  0.10179600  1
  H  465  1  0.51423000  0.02040900  0.12742500  1
  H  466  1  0.51152600  0.01990800  0.15832300  1
  H  467  1  0.47676100  0.97754900  0.15450500  1
  H  468  1  0.47973400  0.97783900  0.12374600  1
  H  469  1  0.52678500  0.07056800  0.00078200  1
  H  470  1  0.52553600  0.10166200  0.00183500  1
  H  471  1  0.47988100  0.12332800  0.02734100  1
  H  472  1  0.47693200  0.15406900  0.02801000  1
  H  473  1  0.51140700  0.15835600  0.98545000  1
  H  474  1  0.51411200  0.12746400  0.98460400  1
  H  475  1  0.47095200  0.09911400  0.00769300  1
  H  476  1  0.47231300  0.06810900  0.00691400  1
  H  477  1  0.47800000  0.88109800  0.97921900  1
  H  478  1  0.47503800  0.85034900  0.97895400  1
  H  479  1  0.51524300  0.87722900  0.01938800  1
  H  480  1  0.51253500  0.84633200  0.01889800  1
  H  485  1  0.47980600  0.18146800  0.01184800  1
  H  486  1  0.47954600  0.01178000  0.82327400  1
  H  487  1  0.47901500  0.82307500  0.99534200  1
  H  488  1  0.47948200  0.99468200  0.18164400  1
  H  561  1  0.85065100  0.47670600  0.02804300  1
  H  562  1  0.88139000  0.47969300  0.02740600  1
  H  563  1  0.84636000  0.51117700  0.98548500  1
  H  564  1  0.87724800  0.51391100  0.98465900  1
  H  565  1  0.90302000  0.52536300  0.00176300  1
  H  566  1  0.93410300  0.52664200  0.00054200  1
  H  567  1  0.90566200  0.47081100  0.00787600  1
  H  568  1  0.93666000  0.47220600  0.00694800  1
  H  569  1  0.94507000  0.50006600  0.03841200  1
  H  570  1  0.96880300  0.50000400  0.06122600  1
  H  571  1  0.99191400  0.50073000  0.01342900  1
  H  572  1  0.01295600  0.50040200  0.99153700  1
  H  573  1  0.94314300  0.49942400  0.96840300  1
  H  574  1  0.96605100  0.49943600  0.94458200  1
  H  575  1  0.00245600  0.52667700  0.93421200  1
  H  576  1  0.00152000  0.52535200  0.90312300  1
  H  577  1  0.99965600  0.47193600  0.93669700  1
  H  578  1  0.99906600  0.47051000  0.90569200  1
  H  579  1  0.03605900  0.50012200  0.94373000  1
  H  580  1  0.05980300  0.50027100  0.96654500  1
  H  581  1  0.03883600  0.49990800  0.06037800  1
  H  582  1  0.06173100  0.49976200  0.03655700  1
  H  583  1  0.06828300  0.47229600  0.99804500  1
  H  584  1  0.09928400  0.47096500  0.99722500  1
  H  585  1  0.07070100  0.52674100  0.00440900  1
  H  586  1  0.10178700  0.52553000  0.00328300  1
  H  587  1  0.12744400  0.51423400  0.02050900  1
  H  588  1  0.15834300  0.51153600  0.01996300  1
  H  589  1  0.15447300  0.47678500  0.97759800  1
  H  590  1  0.12371400  0.47975100  0.97793200  1
  H  591  1  0.00076500  0.52677700  0.07076300  1
  H  592  1  0.00181100  0.52552900  0.10185700  1
  H  593  1  0.02730100  0.47986300  0.12353800  1
  H  594  1  0.02797100  0.47692300  0.15427800  1
  H  595  1  0.98544700  0.51143900  0.15856500  1
  H  596  1  0.98459700  0.51413400  0.12766700  1
  H  597  1  0.00768300  0.47094900  0.09931300  1
  H  598  1  0.00691300  0.47230700  0.06830900  1
  H  599  1  0.97922100  0.47798500  0.88129700  1
  H  600  1  0.97895300  0.47502300  0.85054800  1
  H  601  1  0.01939500  0.51522200  0.87742600  1
  H  602  1  0.01890500  0.51251200  0.84653100  1
  H  607  1  0.01181200  0.47980600  0.18167400  1
  H  608  1  0.82326600  0.47952900  0.01179700  1
  H  609  1  0.99531200  0.47901400  0.82326300  1
  H  610  1  0.18163400  0.47949900  0.99470500  1
  H  683  1  0.02806000  0.85069100  0.47485000  1
  H  684  1  0.02681700  0.88146300  0.47744700  1
  H  685  1  0.98757400  0.84588800  0.51165300  1
  H  686  1  0.98605900  0.87678500  0.51395600  1
  H  687  1  0.00286500  0.90278100  0.52438600  1
  H  688  1  0.00137300  0.93382600  0.52580600  1
  H  689  1  0.00702300  0.90562800  0.46966100  1
  H  690  1  0.00589900  0.93661400  0.47120000  1
  H  691  1  0.03822800  0.94491500  0.49906800  1
  H  692  1  0.06103900  0.96865500  0.49922100  1
  H  693  1  0.01324200  0.99175100  0.50024800  1
  H  694  1  0.99136000  0.01280700  0.49994300  1
  H  695  1  0.96822100  0.94298000  0.49889000  1
  H  696  1  0.94439900  0.96589600  0.49908100  1
  H  697  1  0.93416300  0.00238300  0.52631300  1
  H  698  1  0.90306400  0.00148800  0.52513800  1
  H  699  1  0.93638200  0.99946100  0.47156700  1
  H  700  1  0.90537200  0.99891300  0.47029000  1
  H  701  1  0.94355800  0.03590900  0.49938800  1
  H  702  1  0.96637200  0.05965400  0.49936100  1
  H  703  1  0.06019800  0.03868000  0.49957500  1
  H  704  1  0.03638200  0.06158400  0.49927300  1
  H  705  1  0.99843500  0.06801200  0.47138200  1
  H  706  1  0.99739800  0.09900400  0.46991300  1
  H  707  1  0.00357200  0.07068200  0.52594100  1
  H  708  1  0.00218800  0.10173900  0.52459200  1
  H  709  1  0.01900100  0.12774300  0.51391300  1
  H  710  1  0.01741500  0.15864800  0.51172700  1
  H  711  1  0.97627600  0.15388700  0.47563700  1
  H  712  1  0.97762200  0.12312600  0.47810600  1
  H  713  1  0.07044100  0.00057800  0.52640300  1
  H  714  1  0.10154300  0.00164800  0.52530200  1
  H  715  1  0.12336800  0.02727100  0.47980600  1
  H  716  1  0.15411600  0.02798600  0.47696600  1
  H  717  1  0.15834100  0.98536000  0.51136800  1
  H  718  1  0.12743700  0.98446900  0.51396500  1
  H  719  1  0.09924700  0.00758200  0.47071500  1
  H  720  1  0.06823800  0.00679100  0.47192800  1
  H  721  1  0.88101500  0.97910500  0.47790600  1
  H  722  1  0.85025900  0.97887200  0.47503400  1
  H  723  1  0.87730300  0.01934000  0.51509400  1
  H  724  1  0.84639700  0.01888200  0.51247600  1
  H  729  1  0.18151200  0.01187700  0.47988600  1
  H  730  1  0.01223900  0.82274900  0.47913700  1
  H  731  1  0.82302900  0.99529800  0.47904400  1
  H  732  1  0.99136200  0.18187200  0.48000500  1
  H  739  1  0.01417800  0.52241100  0.29585500  1
  H  746  1  0.99453600  0.47272300  0.23870300  1
  H  747  1  0.99526400  0.47382400  0.20800000  1
  H  748  1  0.00567400  0.52745600  0.20977200  1
  H  749  1  0.97952200  0.48043900  0.29759600  1
  H  752  1  0.99398000  0.53783200  0.24835400  1
  H  753  1  0.01387500  0.54067300  0.23715600  1
  H  754  1  0.01851000  0.53803300  0.26903000  1
  H  755  1  0.02907800  0.52111100  0.25758600  1
  H  767  1  0.98682600  0.51987000  0.70932400  1
  H  774  1  0.01385600  0.47390600  0.76634000  1
  H  775  1  0.01308500  0.47496800  0.79707700  1
  H  776  1  0.99602600  0.52687300  0.79524900  1
  H  777  1  0.02717000  0.48339800  0.70729700  1
  H  780  1  0.00614400  0.53836900  0.75632700  1
  H  781  1  0.98626300  0.53900200  0.76788200  1
  H  782  1  0.98146200  0.53545100  0.73609300  1
  H  783  1  0.97307300  0.51757800  0.74789700  1
  H  795  1  0.29563400  0.01415000  0.52239500  1
  H  802  1  0.23847500  0.99447900  0.47274100  1
  H  803  1  0.20777100  0.99518500  0.47385400  1
  H  804  1  0.20955600  0.00560900  0.52748400  1
  H  805  1  0.29735900  0.97947300  0.48043900  1
  H  808  1  0.24815000  0.99394400  0.53785000  1
  H  809  1  0.23694300  0.01383600  0.54068600  1
  H  810  1  0.26881500  0.01848600  0.53802800  1
  H  811  1  0.25735500  0.02904000  0.52110700  1
  H  823  1  0.70908700  0.98682000  0.51981900  1
  H  830  1  0.76615000  0.01389000  0.47392500  1
  H  831  1  0.79688500  0.01311900  0.47501100  1
  H  832  1  0.79501600  0.99598700  0.52688900  1
  H  833  1  0.70709700  0.02719100  0.48337700  1
  H  836  1  0.75609100  0.00610000  0.53837000  1
  H  837  1  0.76763800  0.98621400  0.53898500  1
  H  838  1  0.73584700  0.98143400  0.53541400  1
  H  839  1  0.74765600  0.97305700  0.51753900  1
  H  851  1  0.52238300  0.29562900  0.01415400  1
  H  858  1  0.47271700  0.23847500  0.99450600  1
  H  859  1  0.47381700  0.20777000  0.99525000  1
  H  860  1  0.52744800  0.20954600  0.00567600  1
  H  861  1  0.48043400  0.29734700  0.97946600  1
  H  864  1  0.53782800  0.24812700  0.99397200  1
  H  865  1  0.54066200  0.23693400  0.01387100  1
  H  866  1  0.53801500  0.26880900  0.01849700  1
  H  867  1  0.52108900  0.25736400  0.02906000  1
  H  879  1  0.51981000  0.70908100  0.98682200  1
  H  886  1  0.47389400  0.76614500  0.01385100  1
  H  887  1  0.47497700  0.79688100  0.01307400  1
  H  888  1  0.52686700  0.79501300  0.99597300  1
  H  889  1  0.48335500  0.70709900  0.02718200  1
  H  892  1  0.53834600  0.75609300  0.00609500  1
  H  893  1  0.53896700  0.76763200  0.98620500  1
  H  894  1  0.53540300  0.73584100  0.98143400  1
  H  895  1  0.51752800  0.74764400  0.97304700  1
  H  907  1  0.52218800  0.01448900  0.70911800  1
  H  914  1  0.47258900  0.99449300  0.76620900  1
  H  915  1  0.47366300  0.99521500  0.79691600  1
  H  916  1  0.52724100  0.00590800  0.79518800  1
  H  917  1  0.48042600  0.97958100  0.70731300  1
  H  920  1  0.53770200  0.99429400  0.75659600  1
  H  921  1  0.54043900  0.01418900  0.76782100  1
  H  922  1  0.53778600  0.01885200  0.73595300  1
  H  923  1  0.52080600  0.02931900  0.74740300  1
  H  935  1  0.52010800  0.98695100  0.29557000  1
  H  942  1  0.47381500  0.01336200  0.23852000  1
  H  943  1  0.47497200  0.01266800  0.20777800  1
  H  944  1  0.52715900  0.99651500  0.20971500  1
  H  945  1  0.48292500  0.02664000  0.29764400  1
  H  948  1  0.53837200  0.00671900  0.24870800  1
  H  949  1  0.53938200  0.98689500  0.23708100  1
  H  950  1  0.53581200  0.98190300  0.26883200  1
  H  951  1  0.51810900  0.97327300  0.25694400  1
  H  963  1  0.01430600  0.29581300  0.48327300  1
  H  970  1  0.99616000  0.23768700  0.53265000  1
  H  971  1  0.99621700  0.20690500  0.53068900  1
  H  972  1  0.00485400  0.21013000  0.47685000  1
  H  973  1  0.98099000  0.29702500  0.52632500  1
  H  976  1  0.99369700  0.24895400  0.46768900  1
  H  977  1  0.01337000  0.23754800  0.46419100  1
  H  978  1  0.01858500  0.26924800  0.46739900  1
  H  979  1  0.02925600  0.25729100  0.48389300  1
  H  991  1  0.98709300  0.70905700  0.48559900  1
  H  998  1  0.01268200  0.76683800  0.53165600  1
  H  999  1  0.01255900  0.79764700  0.52976000  1
  H  1000  1  0.99737400  0.79460000  0.47737400  1
  H  1001  1  0.02623600  0.70737200  0.52336600  1
  H  1004  1  0.00695100  0.75540900  0.46705900  1
  H  1005  1  0.98725800  0.76722900  0.46576100  1
  H  1006  1  0.98183800  0.73563100  0.46984900  1
  H  1007  1  0.97333800  0.74792400  0.48733300  1
  H  1019  1  0.29556600  0.52008600  0.98693700  1
  H  1026  1  0.23851800  0.47382000  0.01336400  1
  H  1027  1  0.20777400  0.47498100  0.01268200  1
  H  1028  1  0.20971200  0.52717200  0.99654200  1
  H  1029  1  0.29764400  0.48289700  0.02661800  1
  H  1032  1  0.24871400  0.53837500  0.00673600  1
  H  1033  1  0.23708100  0.53939100  0.98691700  1
  H  1034  1  0.26883300  0.53581400  0.98192000  1
  H  1035  1  0.25693600  0.51812400  0.97328100  1
  H  1047  1  0.70911700  0.52218800  0.01448500  1
  H  1054  1  0.76621000  0.47258200  0.99448700  1
  H  1055  1  0.79691600  0.47365500  0.99522100  1
  H  1056  1  0.79518800  0.52723100  0.00593100  1
  H  1057  1  0.70731600  0.48044000  0.97956100  1
  H  1060  1  0.75660400  0.53769700  0.99430300  1
  H  1061  1  0.76782200  0.54043100  0.01420300  1
  H  1062  1  0.73595300  0.53778300  0.01885800  1
  H  1063  1  0.74739600  0.52079500  0.02932400  1
  H  1141  1  0.08647350  0.63748600  0.45518000  1
  H  1142  1  0.08611150  0.63415100  0.48595900  1
  H  1143  1  0.11594700  0.59137100  0.45048400  1
  H  1144  1  0.11538200  0.58791700  0.48135100  1
  H  1145  1  0.12788700  0.60396800  0.50777300  1
  H  1146  1  0.12843800  0.60248600  0.53884300  1
  H  1147  1  0.07389050  0.61402300  0.50928200  1
  H  1148  1  0.07453450  0.61265600  0.54035000  1
  H  1149  1  0.10287100  0.64215200  0.54919800  1
  H  1150  1  0.10336900  0.66504300  0.57285200  1
  H  1151  1  0.10218700  0.61733400  0.59613000  1
  H  1152  1  0.10309200  0.59549800  0.61723400  1
  H  1153  1  0.10095700  0.57212300  0.54753800  1
  H  1154  1  0.10117400  0.54839200  0.57051000  1
  H  1155  1  0.12869200  0.53865300  0.60916700  1
  H  1156  1  0.12811400  0.50757000  0.60807600  1
  H  1157  1  0.07433050  0.53999200  0.60181400  1
  H  1158  1  0.07365950  0.50890900  0.60087400  1
  H  1159  1  0.10179400  0.54781500  0.64056500  1
  H  1160  1  0.10250400  0.57072900  0.66419500  1
  H  1161  1  0.10324600  0.66446400  0.64286600  1
  H  1162  1  0.10327900  0.64071400  0.66585300  1
  H  1163  1  0.07542350  0.60420300  0.67309700  1
  H  1164  1  0.07468750  0.60373400  0.70411800  1
  H  1165  1  0.13021800  0.60668500  0.67434000  1
  H  1166  1  0.12959700  0.60578200  0.70542700  1
  H  1167  1  0.12072700  0.62360300  0.73105700  1
  H  1168  1  0.11895900  0.62352500  0.76204000  1
  H  1169  1  0.07990850  0.58499300  0.75968200  1
  H  1170  1  0.08202550  0.58468200  0.72880900  1
  H  1171  1  0.13017700  0.67410300  0.60676600  1
  H  1172  1  0.12956000  0.70519400  0.60764700  1
  H  1173  1  0.08182350  0.72847600  0.62854500  1
  H  1174  1  0.07967450  0.75934600  0.62839700  1
  H  1175  1  0.11906600  0.76198000  0.59023900  1
  H  1176  1  0.12086200  0.73099100  0.58998300  1
  H  1177  1  0.07464350  0.70389900  0.60937900  1
  H  1178  1  0.07537250  0.67288300  0.60893700  1
  H  1179  1  0.08472450  0.48537500  0.58045700  1
  H  1180  1  0.08498050  0.45457000  0.57740100  1
  H  1181  1  0.11664000  0.48128300  0.62495500  1
  H  1182  1  0.11710500  0.45038800  0.62176100  1
  H  1187  1  0.08494650  0.78619500  0.60870400  1
  H  1188  1  0.10271600  0.62969600  0.42770300  1
  H  1189  1  0.10169300  0.42723100  0.58445700  1
  H  1190  1  0.08512250  0.60444400  0.78649400  1
  H  1263  1  0.45497400  0.08632350  0.63737800  1
  H  1264  1  0.48575200  0.08597250  0.63398000  1
  H  1265  1  0.45019400  0.11599600  0.59139600  1
  H  1266  1  0.48105600  0.11544900  0.58788300  1
  H  1267  1  0.50748600  0.12790900  0.60406300  1
  H  1268  1  0.53855400  0.12848000  0.60256400  1
  H  1269  1  0.50901100  0.07382450  0.61363800  1
  H  1270  1  0.54007900  0.07448250  0.61223400  1
  H  1271  1  0.54891900  0.10184100  0.64200100  1
  H  1272  1  0.57254900  0.10168500  0.66489000  1
  H  1273  1  0.59585400  0.10215300  0.61718300  1
  H  1274  1  0.61697400  0.10313600  0.59538300  1
  H  1275  1  0.54727800  0.10126900  0.57194100  1
  H  1276  1  0.57028100  0.10191800  0.54822700  1
  H  1277  1  0.60453200  0.13004600  0.53860800  1
  H  1278  1  0.60382400  0.12933600  0.50751700  1
  H  1279  1  0.60608700  0.07521750  0.53990100  1
  H  1280  1  0.60585200  0.07442750  0.50887700  1
  H  1281  1  0.64026300  0.10351300  0.54766800  1
  H  1282  1  0.66392400  0.10358100  0.57058400  1
  H  1283  1  0.64261700  0.10250000  0.66431100  1
  H  1284  1  0.66558400  0.10298300  0.64057000  1
  H  1285  1  0.67284800  0.07545750  0.60395200  1
  H  1286  1  0.70386700  0.07472750  0.60350900  1
  H  1287  1  0.67407700  0.13024000  0.60665900  1
  H  1288  1  0.70516700  0.12962800  0.60576900  1
  H  1289  1  0.73080500  0.12074900  0.62352400  1
  H  1290  1  0.76178900  0.11897800  0.62346800  1
  H  1291  1  0.75945300  0.07996350  0.58489900  1
  H  1292  1  0.72858300  0.08208950  0.58456100  1
  H  1293  1  0.60275600  0.12862400  0.67405700  1
  H  1294  1  0.60402900  0.12811100  0.70514200  1
  H  1295  1  0.63405200  0.08637550  0.72703700  1
  H  1296  1  0.63739100  0.08680050  0.75781700  1
  H  1297  1  0.59123900  0.11622500  0.76246300  1
  H  1298  1  0.58778900  0.11561200  0.73158800  1
  H  1299  1  0.61381200  0.07406050  0.70377600  1
  H  1300  1  0.61262500  0.07466050  0.67270100  1
  H  1301  1  0.58634100  0.08030750  0.48418600  1
  H  1302  1  0.58675600  0.07821950  0.45332100  1
  H  1303  1  0.62224200  0.12182300  0.48187900  1
  H  1304  1  0.62225000  0.12005200  0.45090000  1
  H  1309  1  0.62956800  0.10315800  0.78525900  1
  H  1310  1  0.42747100  0.10262500  0.62968400  1
  H  1311  1  0.60531900  0.08486850  0.42644000  1
  H  1312  1  0.78624900  0.08514550  0.60441600  1
  H  1385  1  0.63737400  0.45496700  0.08632450  1
  H  1386  1  0.63398000  0.48574400  0.08597850  1
  H  1387  1  0.59138700  0.45018600  0.11598800  1
  H  1388  1  0.58787800  0.48104900  0.11544500  1
  H  1389  1  0.60406500  0.50748000  0.12791100  1
  H  1390  1  0.60256600  0.53854900  0.12848200  1
  H  1391  1  0.61364200  0.50900500  0.07382850  1
  H  1392  1  0.61223700  0.54007400  0.07448450  1
  H  1393  1  0.64200200  0.54891600  0.10182200  1
  H  1394  1  0.66489000  0.57254800  0.10166200  1
  H  1395  1  0.61718300  0.59584900  0.10217800  1
  H  1396  1  0.59538200  0.61696900  0.10312300  1
  H  1397  1  0.57194200  0.54727400  0.10125900  1
  H  1398  1  0.54822800  0.57027600  0.10191300  1
  H  1399  1  0.53860100  0.60452800  0.13004900  1
  H  1400  1  0.50751200  0.60381800  0.12933300  1
  H  1401  1  0.53990600  0.60607800  0.07522050  1
  H  1402  1  0.50888300  0.60584100  0.07442350  1
  H  1403  1  0.54766500  0.64025800  0.10352000  1
  H  1404  1  0.57058100  0.66391800  0.10357400  1
  H  1405  1  0.66430800  0.64261500  0.10250000  1
  H  1406  1  0.64056700  0.66558100  0.10297300  1
  H  1407  1  0.60395000  0.67285100  0.07545050  1
  H  1408  1  0.60350600  0.70386900  0.07472950  1
  H  1409  1  0.60665800  0.67406600  0.13023300  1
  H  1410  1  0.60576900  0.70515500  0.12963000  1
  H  1411  1  0.62352800  0.73079700  0.12074400  1
  H  1412  1  0.62347500  0.76178000  0.11897500  1
  H  1413  1  0.58489100  0.75945000  0.07997350  1
  H  1414  1  0.58454900  0.72858200  0.08209950  1
  H  1415  1  0.67405500  0.60275100  0.12862100  1
  H  1416  1  0.70514100  0.60402500  0.12810700  1
  H  1417  1  0.72703700  0.63404800  0.08636750  1
  H  1418  1  0.75781700  0.63738700  0.08679450  1
  H  1419  1  0.76246000  0.59124100  0.11622900  1
  H  1420  1  0.73158500  0.58779300  0.11561400  1
  H  1421  1  0.70377300  0.61380700  0.07405650  1
  H  1422  1  0.67269800  0.61262000  0.07465650  1
  H  1423  1  0.48419200  0.58633100  0.08029850  1
  H  1424  1  0.45332800  0.58673900  0.07820650  1
  H  1425  1  0.48187200  0.62223300  0.12181100  1
  H  1426  1  0.45089200  0.62223400  0.12003500  1
  H  1431  1  0.78525300  0.62957000  0.10317200  1
  H  1432  1  0.62967700  0.42746400  0.10262100  1
  H  1433  1  0.42644600  0.60530800  0.08484750  1
  H  1434  1  0.60443900  0.78623800  0.08514850  1
  H  1507  1  0.58072300  0.13199700  0.95469000  1
  H  1508  1  0.58370200  0.13131500  0.98543000  1
  H  1509  1  0.61520100  0.08944850  0.95034600  1
  H  1510  1  0.61792700  0.08857950  0.98123100  1
  H  1511  1  0.62937100  0.10565200  0.00703149  1
  H  1512  1  0.63064500  0.10438900  0.03811250  1
  H  1513  1  0.57481800  0.11174700  0.00967149  1
  H  1514  1  0.57620800  0.11077600  0.04067050  1
  H  1515  1  0.60404300  0.14223700  0.04908150  1
  H  1516  1  0.60398300  0.16504800  0.07281950  1
  H  1517  1  0.60477100  0.11724700  0.09592450  1
  H  1518  1  0.60442900  0.09535550  0.11696700  1
  H  1519  1  0.60344700  0.07222650  0.04715150  1
  H  1520  1  0.60345800  0.04840450  0.07005750  1
  H  1521  1  0.63069000  0.03803350  0.10649100  1
  H  1522  1  0.62937100  0.00694449  0.10555800  1
  H  1523  1  0.57595100  0.04050950  0.10363800  1
  H  1524  1  0.57453100  0.00950449  0.10305000  1
  H  1525  1  0.60410200  0.04754950  0.14006700  1
  H  1526  1  0.60425000  0.07036250  0.16381300  1
  H  1527  1  0.60395100  0.16419400  0.14284900  1
  H  1528  1  0.60379800  0.14037500  0.16574400  1
  H  1529  1  0.57630300  0.10188000  0.17229100  1
  H  1530  1  0.57496400  0.10110700  0.20329300  1
  H  1531  1  0.63075000  0.10823300  0.17471700  1
  H  1532  1  0.62952900  0.10715300  0.20580400  1
  H  1533  1  0.61823800  0.12441700  0.23143300  1
  H  1534  1  0.61553400  0.12391600  0.26233100  1
  H  1535  1  0.58076900  0.08155750  0.25851300  1
  H  1536  1  0.58374200  0.08184750  0.22775400  1
  H  1537  1  0.63079300  0.17457600  0.10479000  1
  H  1538  1  0.62954400  0.20567000  0.10584300  1
  H  1539  1  0.58388900  0.22733600  0.13134900  1
  H  1540  1  0.58094000  0.25807700  0.13201800  1
  H  1541  1  0.61541500  0.26236400  0.08945850  1
  H  1542  1  0.61812000  0.23147200  0.08861250  1
  H  1543  1  0.57496000  0.20312200  0.11170100  1
  H  1544  1  0.57632100  0.17211700  0.11092200  1
  H  1545  1  0.58200800  0.98510600  0.08322750  1
  H  1546  1  0.57904600  0.95435700  0.08296250  1
  H  1547  1  0.61925100  0.98123700  0.12339600  1
  H  1548  1  0.61654300  0.95034000  0.12290600  1
  H  1553  1  0.58381400  0.28547600  0.11585600  1
  H  1554  1  0.58355400  0.11578800  0.92728200  1
  H  1555  1  0.58302300  0.92708300  0.09935050  1
  H  1556  1  0.58349000  0.09869050  0.28565200  1
  H  1629  1  0.95465900  0.58071400  0.13205100  1
  H  1630  1  0.98539800  0.58370100  0.13141400  1
  H  1631  1  0.95036800  0.61518500  0.08949350  1
  H  1632  1  0.98125600  0.61791900  0.08866750  1
  H  1633  1  0.00702849  0.62937100  0.10577100  1
  H  1634  1  0.03811150  0.63065000  0.10455000  1
  H  1635  1  0.00967049  0.57481900  0.11188400  1
  H  1636  1  0.04066850  0.57621400  0.11095600  1
  H  1637  1  0.04907850  0.60407400  0.14242000  1
  H  1638  1  0.07281150  0.60401200  0.16523400  1
  H  1639  1  0.09592250  0.60473800  0.11743700  1
  H  1640  1  0.11696400  0.60441000  0.09554550  1
  H  1641  1  0.04715150  0.60343200  0.07241150  1
  H  1642  1  0.07005950  0.60344400  0.04859050  1
  H  1643  1  0.10646400  0.63068500  0.03822050  1
  H  1644  1  0.10552800  0.62936000  0.00713149  1
  H  1645  1  0.10366400  0.57594400  0.04070550  1
  H  1646  1  0.10307400  0.57451800  0.00970049  1
  H  1647  1  0.14006700  0.60413000  0.04773850  1
  H  1648  1  0.16381100  0.60427900  0.07055350  1
  H  1649  1  0.14284400  0.60391600  0.16438600  1
  H  1650  1  0.16573900  0.60377000  0.14056500  1
  H  1651  1  0.17229100  0.57630400  0.10205300  1
  H  1652  1  0.20329200  0.57497300  0.10123300  1
  H  1653  1  0.17470900  0.63074900  0.10841700  1
  H  1654  1  0.20579500  0.62953800  0.10729100  1
  H  1655  1  0.23145200  0.61824200  0.12451700  1
  H  1656  1  0.26235100  0.61554400  0.12397100  1
  H  1657  1  0.25848100  0.58079300  0.08160650  1
  H  1658  1  0.22772200  0.58375900  0.08194050  1
  H  1659  1  0.10477300  0.63078500  0.17477100  1
  H  1660  1  0.10581900  0.62953700  0.20586500  1
  H  1661  1  0.13130900  0.58387100  0.22754600  1
  H  1662  1  0.13197900  0.58093100  0.25828600  1
  H  1663  1  0.08945550  0.61544700  0.26257300  1
  H  1664  1  0.08860550  0.61814200  0.23167500  1
  H  1665  1  0.11169100  0.57495700  0.20332100  1
  H  1666  1  0.11092100  0.57631500  0.17231700  1
  H  1667  1  0.08322950  0.58199300  0.98530500  1
  H  1668  1  0.08296150  0.57903100  0.95455600  1
  H  1669  1  0.12340300  0.61923000  0.98143400  1
  H  1670  1  0.12291300  0.61652000  0.95053900  1
  H  1675  1  0.11582000  0.58381400  0.28568200  1
  H  1676  1  0.92727400  0.58353700  0.11580500  1
  H  1677  1  0.09932050  0.58302200  0.92727100  1
  H  1678  1  0.28564200  0.58350700  0.09871350  1
  H  1751  1  0.13206800  0.95469900  0.57885800  1
  H  1752  1  0.13082500  0.98547100  0.58145500  1
  H  1753  1  0.09158250  0.94989600  0.61566100  1
  H  1754  1  0.09006750  0.98079300  0.61796400  1
  H  1755  1  0.10687300  0.00678949  0.62839400  1
  H  1756  1  0.10538100  0.03783450  0.62981400  1
  H  1757  1  0.11103100  0.00963649  0.57366900  1
  H  1758  1  0.10990700  0.04062250  0.57520800  1
  H  1759  1  0.14223600  0.04892350  0.60307600  1
  H  1760  1  0.16504700  0.07266350  0.60322900  1
  H  1761  1  0.11725000  0.09575950  0.60425600  1
  H  1762  1  0.09536850  0.11681500  0.60395100  1
  H  1763  1  0.07222950  0.04698850  0.60289800  1
  H  1764  1  0.04840750  0.06990450  0.60308900  1
  H  1765  1  0.03817150  0.10639100  0.63032100  1
  H  1766  1  0.00707249  0.10549600  0.62914600  1
  H  1767  1  0.04039050  0.10346900  0.57557500  1
  H  1768  1  0.00938049  0.10292100  0.57429800  1
  H  1769  1  0.04756650  0.13991700  0.60339600  1
  H  1770  1  0.07038050  0.16366200  0.60336900  1
  H  1771  1  0.16420600  0.14268800  0.60358300  1
  H  1772  1  0.14039000  0.16559200  0.60328100  1
  H  1773  1  0.10244300  0.17202000  0.57539000  1
  H  1774  1  0.10140600  0.20301200  0.57392100  1
  H  1775  1  0.10758000  0.17469000  0.62994900  1
  H  1776  1  0.10619600  0.20574700  0.62860000  1
  H  1777  1  0.12300900  0.23175100  0.61792100  1
  H  1778  1  0.12142300  0.26265600  0.61573500  1
  H  1779  1  0.08028450  0.25789500  0.57964500  1
  H  1780  1  0.08163050  0.22713400  0.58211400  1
  H  1781  1  0.17444900  0.10458600  0.63041100  1
  H  1782  1  0.20555100  0.10565600  0.62931000  1
  H  1783  1  0.22737600  0.13127900  0.58381400  1
  H  1784  1  0.25812400  0.13199400  0.58097400  1
  H  1785  1  0.26234900  0.08936850  0.61537600  1
  H  1786  1  0.23144500  0.08847750  0.61797300  1
  H  1787  1  0.20325500  0.11159000  0.57472300  1
  H  1788  1  0.17224600  0.11079900  0.57593600  1
  H  1789  1  0.98502300  0.08311350  0.58191400  1
  H  1790  1  0.95426700  0.08288050  0.57904200  1
  H  1791  1  0.98131100  0.12334800  0.61910200  1
  H  1792  1  0.95040500  0.12289000  0.61648400  1
  H  1797  1  0.28552000  0.11588500  0.58389400  1
  H  1798  1  0.11624700  0.92675700  0.58314500  1
  H  1799  1  0.92703700  0.09930650  0.58305200  1
  H  1800  1  0.09537050  0.28588000  0.58401300  1
  H  1807  1  0.11818600  0.62641900  0.39986300  1
  H  1814  1  0.09854450  0.57673100  0.34271100  1
  H  1815  1  0.09927250  0.57783200  0.31200800  1
  H  1816  1  0.10968200  0.63146400  0.31378000  1
  H  1817  1  0.08353050  0.58444700  0.40160400  1
  H  1820  1  0.09798850  0.64184000  0.35236200  1
  H  1821  1  0.11788300  0.64468100  0.34116400  1
  H  1822  1  0.12251800  0.64204100  0.37303800  1
  H  1823  1  0.13308600  0.62511900  0.36159400  1
  H  1835  1  0.09083450  0.62387800  0.81333200  1
  H  1842  1  0.11786400  0.57791400  0.87034800  1
  H  1843  1  0.11709300  0.57897600  0.90108500  1
  H  1844  1  0.10003400  0.63088100  0.89925700  1
  H  1845  1  0.13117800  0.58740600  0.81130500  1
  H  1848  1  0.11015200  0.64237700  0.86033500  1
  H  1849  1  0.09027150  0.64301000  0.87189000  1
  H  1850  1  0.08547050  0.63945900  0.84010100  1
  H  1851  1  0.07708150  0.62158600  0.85190500  1
  H  1863  1  0.39964200  0.11815800  0.62640300  1
  H  1870  1  0.34248300  0.09848750  0.57674900  1
  H  1871  1  0.31177900  0.09919350  0.57786200  1
  H  1872  1  0.31356400  0.10961700  0.63149200  1
  H  1873  1  0.40136700  0.08348150  0.58444700  1
  H  1876  1  0.35215800  0.09795250  0.64185800  1
  H  1877  1  0.34095100  0.11784400  0.64469400  1
  H  1878  1  0.37282300  0.12249400  0.64203600  1
  H  1879  1  0.36136300  0.13304800  0.62511500  1
  H  1891  1  0.81309500  0.09082850  0.62382700  1
  H  1898  1  0.87015800  0.11789800  0.57793300  1
  H  1899  1  0.90089300  0.11712700  0.57901900  1
  H  1900  1  0.89902400  0.09999550  0.63089700  1
  H  1901  1  0.81110500  0.13119900  0.58738500  1
  H  1904  1  0.86009900  0.11010800  0.64237800  1
  H  1905  1  0.87164600  0.09022250  0.64299300  1
  H  1906  1  0.83985500  0.08544250  0.63942200  1
  H  1907  1  0.85166400  0.07706550  0.62154700  1
  H  1919  1  0.62639100  0.39963700  0.11816200  1
  H  1926  1  0.57672500  0.34248300  0.09851450  1
  H  1927  1  0.57782500  0.31177800  0.09925850  1
  H  1928  1  0.63145600  0.31355400  0.10968400  1
  H  1929  1  0.58444200  0.40135500  0.08347450  1
  H  1932  1  0.64183600  0.35213500  0.09798050  1
  H  1933  1  0.64467000  0.34094200  0.11787900  1
  H  1934  1  0.64202300  0.37281700  0.12250500  1
  H  1935  1  0.62509700  0.36137200  0.13306800  1
  H  1947  1  0.62381800  0.81308900  0.09083050  1
  H  1954  1  0.57790200  0.87015300  0.11785900  1
  H  1955  1  0.57898500  0.90088900  0.11708200  1
  H  1956  1  0.63087500  0.89902100  0.09998150  1
  H  1957  1  0.58736300  0.81110700  0.13119000  1
  H  1960  1  0.64235400  0.86010100  0.11010300  1
  H  1961  1  0.64297500  0.87164000  0.09021350  1
  H  1962  1  0.63941100  0.83984900  0.08544250  1
  H  1963  1  0.62153600  0.85165200  0.07705550  1
  H  1975  1  0.62619600  0.11849700  0.81312600  1
  H  1982  1  0.57659700  0.09850150  0.87021700  1
  H  1983  1  0.57767100  0.09922350  0.90092400  1
  H  1984  1  0.63124900  0.10991600  0.89919600  1
  H  1985  1  0.58443400  0.08358950  0.81132100  1
  H  1988  1  0.64171000  0.09830250  0.86060400  1
  H  1989  1  0.64444700  0.11819700  0.87182900  1
  H  1990  1  0.64179400  0.12286000  0.83996100  1
  H  1991  1  0.62481400  0.13332700  0.85141100  1
  H  2003  1  0.62411600  0.09095950  0.39957800  1
  H  2010  1  0.57782300  0.11737000  0.34252800  1
  H  2011  1  0.57898000  0.11667600  0.31178600  1
  H  2012  1  0.63116700  0.10052300  0.31372300  1
  H  2013  1  0.58693300  0.13064800  0.40165200  1
  H  2016  1  0.64238000  0.11072700  0.35271600  1
  H  2017  1  0.64339000  0.09090350  0.34108900  1
  H  2018  1  0.63982000  0.08591150  0.37284000  1
  H  2019  1  0.62211700  0.07728150  0.36095200  1
  H  2031  1  0.11831400  0.39982100  0.58728100  1
  H  2038  1  0.10016800  0.34169500  0.63665800  1
  H  2039  1  0.10022500  0.31091300  0.63469700  1
  H  2040  1  0.10886200  0.31413800  0.58085800  1
  H  2041  1  0.08499850  0.40103300  0.63033300  1
  H  2044  1  0.09770550  0.35296200  0.57169700  1
  H  2045  1  0.11737800  0.34155600  0.56819900  1
  H  2046  1  0.12259300  0.37325600  0.57140700  1
  H  2047  1  0.13326400  0.36129900  0.58790100  1
  H  2059  1  0.09110150  0.81306500  0.58960700  1
  H  2066  1  0.11669000  0.87084600  0.63566400  1
  H  2067  1  0.11656700  0.90165500  0.63376800  1
  H  2068  1  0.10138200  0.89860800  0.58138200  1
  H  2069  1  0.13024400  0.81138000  0.62737400  1
  H  2072  1  0.11095900  0.85941700  0.57106700  1
  H  2073  1  0.09126650  0.87123700  0.56976900  1
  H  2074  1  0.08584650  0.83963900  0.57385700  1
  H  2075  1  0.07734650  0.85193200  0.59134100  1
  H  2087  1  0.39957400  0.62409400  0.09094550  1
  H  2094  1  0.34252600  0.57782800  0.11737200  1
  H  2095  1  0.31178200  0.57898900  0.11669000  1
  H  2096  1  0.31372000  0.63118000  0.10055000  1
  H  2097  1  0.40165200  0.58690500  0.13062600  1
  H  2100  1  0.35272200  0.64238300  0.11074400  1
  H  2101  1  0.34108900  0.64339900  0.09092550  1
  H  2102  1  0.37284100  0.63982200  0.08592850  1
  H  2103  1  0.36094400  0.62213200  0.07728950  1
  H  2115  1  0.81312500  0.62619600  0.11849300  1
  H  2122  1  0.87021800  0.57659000  0.09849550  1
  H  2123  1  0.90092400  0.57766300  0.09922950  1
  H  2124  1  0.89919600  0.63123900  0.10993900  1
  H  2125  1  0.81132400  0.58444800  0.08356950  1
  H  2128  1  0.86061200  0.64170500  0.09831150  1
  H  2129  1  0.87183000  0.64443900  0.11821100  1
  H  2130  1  0.83996100  0.64179100  0.12286600  1
  H  2131  1  0.85140400  0.62480300  0.13333200  1
  C  1  1  0.99877600  0.53545300  0.45820600  1
  C  2  1  0.99905800  0.54794000  0.47110000  1
  C  3  1  0.99893600  0.53951800  0.48719700  1
  C  5  1  0.99836600  0.51908300  0.46609300  1
  C  6  1  0.99792900  0.50294200  0.45702900  1
  C  7  1  0.99781400  0.48634600  0.46513500  1
  C  9  1  0.99784100  0.46539500  0.48542600  1
  C  10  1  0.99741400  0.45741300  0.46911900  1
  C  11  1  0.99731000  0.47030700  0.45663400  1
  C  12  1  0.99798600  0.45675700  0.50175500  1
  C  13  1  0.99839900  0.46529800  0.51817000  1
  C  15  1  0.99892400  0.48574300  0.53925600  1
  C  16  1  0.99859200  0.46938800  0.54716700  1
  C  17  1  0.99822700  0.45689500  0.53428100  1
  C  18  1  0.99918900  0.50188800  0.54830200  1
  C  19  1  0.99929400  0.51848600  0.54021400  1
  C  21  1  0.99920700  0.53943200  0.51994300  1
  C  22  1  0.99926400  0.54742400  0.53625000  1
  C  23  1  0.99929800  0.53452600  0.54873300  1
  C  24  1  0.99911900  0.54805700  0.50361400  1
  C  25  1  0.99883000  0.56660500  0.50378200  1
  C  26  1  0.98285700  0.57559100  0.50461800  1
  C  27  1  0.98250000  0.59388100  0.50503700  1
  C  28  1  0.99803300  0.60381100  0.50465700  1
  C  29  1  0.01398200  0.59462100  0.50366900  1
  C  30  1  0.01440700  0.57630700  0.50328700  1
  C  31  1  0.99752600  0.62244600  0.50522500  1
  C  32  1  0.00841500  0.63274500  0.49449300  1
  C  33  1  0.00733700  0.65104500  0.49457900  1
  C  34  1  0.99530700  0.65969900  0.50545500  1
  C  35  1  0.98457200  0.64953500  0.51635800  1
  C  36  1  0.98575900  0.63127600  0.51631500  1
  C  37  1  0.99887800  0.50145000  0.56683700  1
  C  38  1  0.98290400  0.50050900  0.57581100  1
  C  39  1  0.98254300  0.50008500  0.59409900  1
  C  40  1  0.99807400  0.50058500  0.60402700  1
  C  41  1  0.01402300  0.50162700  0.59484700  1
  C  42  1  0.01445100  0.50202400  0.57653900  1
  C  43  1  0.99756800  0.50013100  0.62265500  1
  C  44  1  0.98589000  0.48900500  0.63155500  1
  C  45  1  0.98472000  0.48906800  0.64981300  1
  C  46  1  0.99536500  0.50013400  0.65989900  1
  C  47  1  0.00729700  0.51105800  0.65116700  1
  C  48  1  0.00836700  0.51103000  0.63287000  1
  C  49  1  0.99755700  0.43820400  0.50160800  1
  C  50  1  0.01300300  0.42846400  0.50355200  1
  C  51  1  0.01259700  0.41016400  0.50305300  1
  C  52  1  0.99680500  0.40104600  0.50043600  1
  C  53  1  0.98137800  0.41094900  0.49859300  1
  C  54  1  0.98171000  0.42924100  0.49924200  1
  C  55  1  0.99653800  0.38249500  0.49909400  1
  C  56  1  0.98730100  0.37418400  0.48551300  1
  C  57  1  0.98756700  0.35598600  0.48361900  1
  C  58  1  0.99690000  0.34537700  0.49538300  1
  C  59  1  0.00597800  0.35358700  0.50911700  1
  C  60  1  0.00585200  0.37183200  0.51087400  1
  C  61  1  0.99753000  0.50340400  0.43847800  1
  C  62  1  0.01284600  0.50078400  0.42869200  1
  C  63  1  0.98182100  0.50671100  0.42956600  1
  C  64  1  0.98150600  0.50760400  0.41128600  1
  C  65  1  0.99680600  0.50506400  0.40134200  1
  C  66  1  0.01245000  0.50152000  0.41039900  1
  C  67  1  0.99658400  0.50660600  0.38281000  1
  C  68  1  0.00517300  0.49440700  0.37201200  1
  C  69  1  0.00534400  0.49632500  0.35378600  1
  C  70  1  0.99706300  0.51064400  0.34573600  1
  C  71  1  0.98846500  0.52283500  0.35648100  1
  C  72  1  0.98812300  0.52077600  0.37466000  1
  C  115  1  0.99302900  0.67756700  0.50484000  1
  C  116  1  0.99316700  0.50077200  0.67777700  1
  C  117  1  0.99768000  0.32754200  0.49264800  1
  C  118  1  0.99794600  0.51348500  0.32792500  1
  C  123  1  0.45792500  0.99792100  0.53529800  1
  C  124  1  0.47081500  0.99785100  0.54778800  1
  C  125  1  0.48691900  0.99807600  0.53937700  1
  C  127  1  0.46581500  0.99801100  0.51892700  1
  C  128  1  0.45674800  0.99795700  0.50278100  1
  C  129  1  0.46485200  0.99821900  0.48618900  1
  C  131  1  0.48514600  0.99871100  0.46526500  1
  C  132  1  0.46885700  0.99817600  0.45725500  1
  C  133  1  0.45636500  0.99782100  0.47013800  1
  C  134  1  0.50147700  0.99904300  0.45665300  1
  C  135  1  0.51789900  0.99926800  0.46517900  1
  C  137  1  0.53899400  0.99930500  0.48561100  1
  C  138  1  0.54689500  0.99948000  0.46924900  1
  C  139  1  0.53400100  0.99945400  0.45675900  1
  C  140  1  0.54804200  0.99919400  0.50175400  1
  C  141  1  0.53994500  0.99891900  0.51834600  1
  C  143  1  0.51966700  0.99836600  0.53929300  1
  C  144  1  0.53598300  0.99853100  0.54727500  1
  C  145  1  0.54846600  0.99880700  0.53438000  1
  C  146  1  0.50333600  0.99807200  0.54792500  1
  C  147  1  0.50350800  0.99767600  0.56648100  1
  C  148  1  0.50665700  0.98196100  0.57543900  1
  C  149  1  0.50745400  0.98167300  0.59372200  1
  C  150  1  0.50495600  0.99700600  0.60362100  1
  C  151  1  0.50153600  0.01265400  0.59452300  1
  C  152  1  0.50090500  0.01302200  0.57622500  1
  C  153  1  0.50649300  0.99682400  0.62214900  1
  C  154  1  0.49428500  0.00542400  0.63292600  1
  C  155  1  0.49620800  0.00563700  0.65115100  1
  C  156  1  0.51053400  0.99737800  0.65921400  1
  C  157  1  0.52273500  0.98877100  0.64848800  1
  C  158  1  0.52068000  0.98840200  0.63031100  1
  C  159  1  0.56658000  0.99890700  0.50131100  1
  C  160  1  0.57555800  0.98293900  0.50031100  1
  C  161  1  0.59384800  0.98258300  0.49990700  1
  C  162  1  0.60377700  0.99811000  0.50047500  1
  C  163  1  0.59458900  0.01405300  0.50157600  1
  C  164  1  0.57628000  0.01447800  0.50195400  1
  C  165  1  0.62240900  0.99760400  0.50003800  1
  C  166  1  0.63132100  0.98594000  0.48890500  1
  C  167  1  0.64958000  0.98476400  0.48898300  1
  C  168  1  0.65966000  0.99539500  0.50006600  1
  C  169  1  0.65092000  0.00731500  0.51099800  1
  C  170  1  0.63262100  0.00837600  0.51096700  1
  C  171  1  0.50133400  0.99869400  0.43811600  1
  C  172  1  0.50081400  0.01426000  0.42840200  1
  C  173  1  0.50053600  0.01379000  0.41009300  1
  C  174  1  0.50070200  0.99779900  0.40092600  1
  C  175  1  0.50132500  0.98228200  0.41086900  1
  C  176  1  0.50162400  0.98268700  0.42915700  1
  C  177  1  0.50028500  0.99724500  0.38229800  1
  C  178  1  0.49004900  0.98477000  0.37341300  1
  C  179  1  0.49016600  0.98360900  0.35515500  1
  C  180  1  0.50038800  0.99505000  0.34504600  1
  C  181  1  0.51038800  0.00777700  0.35376500  1
  C  182  1  0.51032400  0.00883100  0.37206300  1
  C  183  1  0.43819800  0.99752600  0.50323000  1
  C  184  1  0.42840900  0.01286400  0.50074900  1
  C  185  1  0.42929300  0.98178500  0.50639300  1
  C  186  1  0.41101400  0.98146000  0.50730800  1
  C  187  1  0.40107200  0.99678400  0.50492200  1
  C  188  1  0.41011900  0.01246200  0.50151200  1
  C  189  1  0.38255000  0.99655400  0.50650100  1
  C  190  1  0.37173400  0.00519900  0.49435800  1
  C  191  1  0.35351500  0.00536500  0.49631300  1
  C  192  1  0.34549300  0.99701800  0.51061200  1
  C  193  1  0.35625800  0.98837000  0.52274800  1
  C  194  1  0.37443200  0.98804200  0.52065800  1
  C  237  1  0.51336400  0.99827800  0.67702300  1
  C  238  1  0.67754000  0.99319600  0.50070100  1
  C  239  1  0.50111800  0.99291200  0.32715600  1
  C  240  1  0.32768700  0.99786400  0.51347100  1
  C  245  1  0.53529800  0.45792100  0.99789800  1
  C  246  1  0.54778800  0.47081100  0.99783000  1
  C  247  1  0.53937700  0.48691500  0.99806600  1
  C  249  1  0.51892700  0.46581100  0.99800300  1
  C  250  1  0.50278200  0.45674300  0.99796000  1
  C  251  1  0.48618900  0.46484700  0.99823100  1
  C  253  1  0.46526500  0.48514100  0.99872200  1
  C  254  1  0.45725500  0.46885200  0.99818200  1
  C  255  1  0.47013800  0.45635900  0.99784000  1
  C  256  1  0.45665300  0.50147200  0.99905300  1
  C  257  1  0.46517800  0.51789400  0.99927700  1
  C  259  1  0.48560900  0.53898900  0.99930300  1
  C  260  1  0.46924600  0.54689000  0.99948800  1
  C  261  1  0.45675700  0.53399400  0.99946100  1
  C  262  1  0.50175100  0.54803800  0.99917900  1
  C  263  1  0.51834300  0.53994100  0.99891000  1
  C  265  1  0.53929100  0.51966400  0.99836600  1
  C  266  1  0.54727200  0.53598100  0.99853100  1
  C  267  1  0.53437800  0.54846300  0.99880000  1
  C  268  1  0.54792300  0.50333400  0.99807100  1
  C  269  1  0.56648000  0.50350700  0.99767400  1
  C  270  1  0.57543600  0.50665400  0.98195700  1
  C  271  1  0.59372100  0.50745400  0.98167000  1
  C  272  1  0.60362000  0.50495700  0.99700400  1
  C  273  1  0.59452200  0.50154000  0.01265100  1
  C  274  1  0.57622400  0.50090800  0.01302000  1
  C  275  1  0.62214800  0.50648900  0.99681600  1
  C  276  1  0.63292300  0.49428600  0.00542400  1
  C  277  1  0.65114900  0.49620800  0.00563600  1
  C  278  1  0.65921400  0.51052700  0.99737000  1
  C  279  1  0.64848800  0.52273100  0.98876900  1
  C  280  1  0.63031100  0.52067600  0.98839400  1
  C  281  1  0.50130700  0.56657500  0.99889900  1
  C  282  1  0.50030400  0.57555800  0.98293400  1
  C  283  1  0.49989400  0.59384800  0.98258200  1
  C  284  1  0.50046700  0.60377300  0.99811300  1
  C  285  1  0.50156700  0.59458200  0.01405300  1
  C  286  1  0.50194900  0.57627100  0.01447300  1
  C  287  1  0.50002900  0.62240500  0.99761200  1
  C  288  1  0.48889300  0.63131900  0.98595100  1
  C  289  1  0.48897100  0.64957600  0.98477700  1
  C  290  1  0.50006000  0.65965500  0.99540600  1
  C  291  1  0.51098200  0.65091500  0.00733300  1
  C  292  1  0.51094800  0.63261600  0.00839500  1
  C  293  1  0.43811500  0.50132800  0.99869800  1
  C  294  1  0.42839800  0.50080800  0.01426200  1
  C  295  1  0.41008900  0.50052500  0.01378700  1
  C  296  1  0.40092400  0.50069300  0.99779400  1
  C  297  1  0.41087100  0.50131700  0.98228000  1
  C  298  1  0.42916100  0.50161600  0.98268800  1
  C  299  1  0.38229800  0.50027300  0.99723800  1
  C  300  1  0.37341700  0.49003700  0.98475900  1
  C  301  1  0.35515900  0.49014900  0.98359800  1
  C  302  1  0.34504400  0.50036700  0.99503800  1
  C  303  1  0.35376200  0.51038300  0.00775400  1
  C  304  1  0.37206100  0.51031500  0.00881800  1
  C  305  1  0.50323000  0.43819200  0.99752900  1
  C  306  1  0.50075000  0.42840200  0.01286600  1
  C  307  1  0.50638900  0.42928600  0.98178600  1
  C  308  1  0.50731200  0.41100800  0.98146300  1
  C  309  1  0.50492000  0.40106600  0.99678500  1
  C  310  1  0.50149700  0.41011200  0.01246100  1
  C  311  1  0.50649900  0.38254300  0.99655600  1
  C  312  1  0.49435400  0.37172800  0.00519900  1
  C  313  1  0.49631000  0.35350800  0.00536800  1
  C  314  1  0.51060500  0.34548500  0.99701700  1
  C  315  1  0.52274600  0.35625000  0.98837100  1
  C  316  1  0.52065800  0.37442400  0.98804600  1
  C  359  1  0.67702000  0.51336500  0.99828600  1
  C  360  1  0.50070500  0.67753200  0.99319900  1
  C  361  1  0.32715600  0.50110000  0.99289300  1
  C  362  1  0.51346400  0.32767900  0.99786400  1
  C  367  1  0.50022800  0.03549600  0.95808000  1
  C  368  1  0.50022200  0.04793600  0.97102200  1
  C  369  1  0.50045900  0.03945600  0.98709000  1
  C  371  1  0.50038500  0.01909800  0.96591200  1
  C  372  1  0.50024300  0.00299000  0.95679100  1
  C  373  1  0.50022500  0.98636200  0.96482200  1
  C  375  1  0.50014400  0.96534900  0.98503100  1
  C  376  1  0.49976900  0.95741700  0.96869800  1
  C  377  1  0.49977900  0.97035500  0.95625600  1
  C  378  1  0.50015000  0.95666500  0.00133000  1
  C  379  1  0.50033300  0.96513000  0.01778600  1
  C  381  1  0.50036700  0.98548300  0.03896500  1
  C  382  1  0.50031700  0.96908500  0.04679700  1
  C  383  1  0.50024800  0.95664700  0.03385300  1
  C  384  1  0.50029100  0.00159200  0.04808400  1
  C  385  1  0.50034000  0.01821900  0.04005100  1
  C  387  1  0.50035000  0.03923600  0.01984400  1
  C  388  1  0.50010900  0.04716500  0.03618200  1
  C  389  1  0.50004200  0.03422600  0.04862100  1
  C  390  1  0.50036200  0.04792500  0.00354600  1
  C  391  1  0.49967500  0.06646100  0.00378000  1
  C  392  1  0.48360100  0.07508200  0.00579400  1
  C  393  1  0.48287500  0.09335000  0.00638700  1
  C  394  1  0.49812800  0.10360000  0.00494500  1
  C  395  1  0.51416200  0.09481100  0.00269400  1
  C  396  1  0.51495800  0.07651300  0.00218600  1
  C  397  1  0.49725600  0.12217400  0.00585700  1
  C  398  1  0.50656200  0.13289600  0.99411900  1
  C  399  1  0.50493000  0.15115400  0.99457900  1
  C  400  1  0.49400000  0.15937200  0.00690100  1
  C  401  1  0.48500600  0.14869300  0.01887600  1
  C  402  1  0.48663900  0.13048600  0.01838600  1
  C  403  1  0.49964700  0.00107600  0.06661700  1
  C  404  1  0.48359000  0.99897600  0.07524700  1
  C  405  1  0.48287600  0.99839200  0.09351800  1
  C  406  1  0.49812400  0.99992900  0.10376500  1
  C  407  1  0.51414700  0.00220700  0.09495600  1
  C  408  1  0.51493100  0.00271500  0.07665900  1
  C  409  1  0.49725200  0.99919400  0.12235300  1
  C  410  1  0.48655300  0.98682500  0.13080600  1
  C  411  1  0.48490200  0.98655500  0.14901800  1
  C  412  1  0.49399600  0.99857500  0.15955400  1
  C  413  1  0.50500900  0.01073200  0.15121400  1
  C  414  1  0.50661500  0.01100200  0.13295100  1
  C  415  1  0.49944200  0.93813500  0.00110500  1
  C  416  1  0.51479000  0.92808200  0.00178900  1
  C  417  1  0.51395800  0.90978500  0.00135900  1
  C  418  1  0.49781300  0.90098800  0.00012600  1
  C  419  1  0.48250900  0.91125000  0.99957300  1
  C  420  1  0.48327400  0.92952200  0.00006700  1
  C  421  1  0.49688500  0.88240100  0.99938300  1
  C  422  1  0.48539600  0.87400100  0.98770700  1
  C  423  1  0.48374800  0.85578900  0.98744100  1
  C  424  1  0.49362100  0.84518600  0.99877400  1
  C  425  1  0.50540100  0.85348100  0.01022800  1
  C  426  1  0.50701300  0.87174400  0.01048700  1
  C  427  1  0.49954900  0.00351500  0.93826100  1
  C  428  1  0.51481400  0.00191500  0.92818200  1
  C  429  1  0.48347800  0.00567200  0.92967100  1
  C  430  1  0.48273600  0.00637700  0.91140600  1
  C  431  1  0.49796700  0.00489600  0.90112600  1
  C  432  1  0.51400000  0.00252800  0.90989000  1
  C  433  1  0.49707400  0.00582500  0.88255000  1
  C  434  1  0.50636000  0.99408700  0.87180900  1
  C  435  1  0.50472600  0.99456900  0.85355200  1
  C  436  1  0.49379100  0.00689500  0.84535000  1
  C  437  1  0.48479300  0.01885300  0.85604600  1
  C  438  1  0.48644700  0.01835700  0.87425100  1
  C  481  1  0.49100500  0.17722100  0.00694200  1
  C  482  1  0.49098400  0.99881600  0.17738500  1
  C  483  1  0.49065100  0.82734000  0.99907500  1
  C  484  1  0.49077700  0.00693900  0.82750500  1
  C  489  1  0.95807500  0.50027800  0.03568100  1
  C  490  1  0.97101600  0.50025000  0.04812300  1
  C  491  1  0.98708500  0.50047700  0.03964600  1
  C  493  1  0.96590900  0.50040700  0.01928500  1
  C  494  1  0.95679000  0.50025000  0.00317500  1
  C  495  1  0.96482200  0.50022000  0.98654800  1
  C  497  1  0.98503100  0.50013700  0.96553600  1
  C  498  1  0.96869800  0.49975300  0.95760300  1
  C  499  1  0.95625600  0.49976500  0.97054000  1
  C  500  1  0.00133000  0.50014800  0.95685500  1
  C  501  1  0.01778500  0.50032700  0.96532000  1
  C  503  1  0.03896200  0.50036300  0.98567400  1
  C  504  1  0.04679500  0.50032100  0.96927600  1
  C  505  1  0.03385200  0.50025500  0.95683700  1
  C  506  1  0.04808100  0.50028700  0.00178300  1
  C  507  1  0.04004700  0.50033300  0.01841000  1
  C  509  1  0.01983800  0.50034200  0.03942800  1
  C  510  1  0.03617700  0.50009100  0.04735700  1
  C  511  1  0.04861600  0.50002600  0.03441700  1
  C  512  1  0.00354000  0.50035000  0.04811800  1
  C  513  1  0.00377200  0.49966700  0.06665600  1
  C  514  1  0.00578800  0.48359500  0.07528000  1
  C  515  1  0.00637400  0.48287100  0.09355000  1
  C  516  1  0.00492200  0.49812300  0.10380100  1
  C  517  1  0.00265900  0.51415400  0.09500800  1
  C  518  1  0.00217000  0.51495000  0.07670900  1
  C  519  1  0.00582800  0.49725000  0.12237800  1
  C  520  1  0.99409300  0.50656100  0.13310100  1
  C  521  1  0.99455700  0.50493700  0.15136000  1
  C  522  1  0.00687900  0.49401200  0.15958400  1
  C  523  1  0.01883800  0.48499700  0.14890300  1
  C  524  1  0.01835000  0.48662900  0.13069500  1
  C  525  1  0.06661300  0.49964500  0.00126300  1
  C  526  1  0.07524500  0.48359200  0.99914400  1
  C  527  1  0.09351500  0.48288400  0.99852900  1
  C  528  1  0.10376000  0.49813500  0.00005500  1
  C  529  1  0.09494900  0.51415400  0.00234800  1
  C  530  1  0.07665300  0.51493200  0.00288900  1
  C  531  1  0.12234700  0.49727000  0.99928900  1
  C  532  1  0.13078600  0.48657100  0.98691000  1
  C  533  1  0.14899700  0.48492400  0.98661300  1
  C  534  1  0.15954900  0.49401300  0.99862400  1
  C  535  1  0.15122100  0.50501600  0.01080000  1
  C  536  1  0.13296100  0.50664200  0.01107700  1
  C  537  1  0.00110700  0.49943700  0.93832500  1
  C  538  1  0.00177400  0.51478500  0.92827100  1
  C  539  1  0.00135500  0.51394800  0.90997400  1
  C  540  1  0.00012800  0.49780200  0.90118200  1
  C  541  1  0.99958800  0.48249700  0.91144500  1
  C  542  1  0.00008400  0.48326700  0.92971700  1
  C  543  1  0.99938700  0.49686800  0.88259600  1
  C  544  1  0.98770800  0.48537900  0.87419800  1
  C  545  1  0.98744500  0.48372800  0.85598800  1
  C  546  1  0.99878700  0.49359100  0.84538600  1
  C  547  1  0.01024000  0.50537400  0.85368000  1
  C  548  1  0.01048100  0.50700800  0.87194100  1
  C  549  1  0.93826000  0.49955700  0.00369600  1
  C  550  1  0.92818000  0.51481900  0.00207700  1
  C  551  1  0.92967000  0.48348500  0.00584500  1
  C  552  1  0.91140300  0.48273900  0.00652100  1
  C  553  1  0.90112300  0.49796700  0.00502200  1
  C  554  1  0.90988700  0.51400200  0.00266800  1
  C  555  1  0.88254600  0.49707000  0.00592400  1
  C  556  1  0.87182000  0.50635200  0.99416900  1
  C  557  1  0.85356300  0.50471400  0.99462300  1
  C  558  1  0.84534600  0.49377900  0.00694000  1
  C  559  1  0.85602700  0.48478500  0.01891600  1
  C  560  1  0.87423200  0.48644300  0.01844500  1
  C  603  1  0.00692100  0.49101300  0.17743300  1
  C  604  1  0.17737900  0.49100100  0.99884500  1
  C  605  1  0.99908000  0.49063400  0.82754000  1
  C  606  1  0.82750100  0.49076200  0.00695900  1
  C  611  1  0.03549700  0.95791900  0.49940500  1
  C  612  1  0.04793600  0.97086100  0.49950600  1
  C  613  1  0.03945600  0.98692800  0.49987700  1
  C  615  1  0.01910000  0.96574900  0.49963700  1
  C  616  1  0.00299400  0.95662500  0.49944600  1
  C  617  1  0.98636700  0.96465800  0.49954300  1
  C  619  1  0.96535800  0.98487500  0.49963200  1
  C  620  1  0.95742200  0.96854000  0.49931800  1
  C  621  1  0.97035800  0.95609600  0.49920500  1
  C  622  1  0.95668000  0.00117700  0.49967400  1
  C  623  1  0.96514600  0.01763500  0.49974100  1
  C  625  1  0.98550000  0.03881500  0.49963700  1
  C  626  1  0.96910300  0.04664700  0.49950900  1
  C  627  1  0.95666400  0.03370300  0.49954900  1
  C  628  1  0.00160700  0.04793800  0.49954500  1
  C  629  1  0.01823100  0.03990200  0.49969300  1
  C  631  1  0.03924000  0.01968700  0.49984800  1
  C  632  1  0.04717500  0.03602500  0.49966600  1
  C  633  1  0.03424000  0.04846900  0.49950200  1
  C  634  1  0.04792400  0.00338500  0.49987300  1
  C  635  1  0.06646300  0.00361700  0.49927700  1
  C  636  1  0.07515700  0.00565200  0.48324700  1
  C  637  1  0.09342800  0.00625300  0.48260900  1
  C  638  1  0.10360600  0.00479900  0.49790800  1
  C  639  1  0.09474300  0.00251200  0.51389700  1
  C  640  1  0.07644200  0.00199500  0.51460600  1
  C  641  1  0.12218100  0.00574000  0.49712000  1
  C  642  1  0.13288400  0.99399000  0.50643300  1
  C  643  1  0.15114800  0.99448300  0.50487300  1
  C  644  1  0.15938800  0.00684300  0.49400300  1
  C  645  1  0.14872600  0.01882900  0.48500300  1
  C  646  1  0.13051500  0.01831000  0.48656900  1
  C  647  1  0.00108700  0.06646800  0.49879900  1
  C  648  1  0.99927000  0.07502700  0.48266800  1
  C  649  1  0.99853300  0.09329200  0.48187700  1
  C  650  1  0.99961300  0.10360900  0.49711700  1
  C  651  1  0.00164000  0.09486600  0.51321300  1
  C  652  1  0.00231100  0.07657900  0.51407400  1
  C  653  1  0.99850800  0.12218600  0.49621300  1
  C  654  1  0.98621800  0.13037700  0.48522200  1
  C  655  1  0.98532500  0.14859400  0.48385900  1
  C  656  1  0.99662500  0.15941400  0.49353000  1
  C  657  1  0.00880200  0.15131900  0.50470700  1
  C  658  1  0.00969100  0.13305300  0.50603000  1
  C  659  1  0.93814500  0.00096000  0.49905800  1
  C  660  1  0.92816300  0.00168500  0.51445000  1
  C  661  1  0.90986100  0.00128900  0.51370200  1
  C  662  1  0.90098900  0.00003700  0.49760000  1
  C  663  1  0.91118200  0.99945800  0.48224900  1
  C  664  1  0.92945700  0.99992000  0.48293000  1
  C  665  1  0.88239800  0.99930200  0.49675000  1
  C  666  1  0.87395000  0.98761000  0.48531200  1
  C  667  1  0.85573400  0.98736700  0.48371500  1
  C  668  1  0.84517500  0.99873700  0.49359100  1
  C  669  1  0.85351500  0.01018300  0.50534600  1
  C  670  1  0.87178400  0.01042000  0.50690900  1
  C  671  1  0.00352600  0.93809800  0.49864400  1
  C  672  1  0.00252000  0.92795600  0.51391400  1
  C  673  1  0.00520900  0.92957500  0.48248100  1
  C  674  1  0.00600900  0.91131200  0.48164800  1
  C  675  1  0.00514300  0.90096000  0.49688000  1
  C  676  1  0.00327700  0.90967400  0.51301300  1
  C  677  1  0.00625900  0.88238100  0.49593000  1
  C  678  1  0.99524800  0.87149400  0.50592100  1
  C  679  1  0.99609100  0.85323300  0.50453100  1
  C  680  1  0.00804500  0.84516400  0.49310400  1
  C  681  1  0.01918900  0.85598500  0.48326300  1
  C  682  1  0.01835200  0.87420200  0.48470400  1
  C  725  1  0.17724500  0.00691000  0.49105200  1
  C  726  1  0.99587300  0.17734900  0.49125600  1
  C  727  1  0.82732100  0.99905800  0.49066200  1
  C  728  1  0.00862900  0.82724900  0.49072000  1
  C  733  1  0.99714900  0.50124300  0.29948000  1
  C  734  1  0.98713700  0.48881700  0.29057100  1
  C  735  1  0.98663300  0.48812400  0.27215100  1
  C  736  1  0.99713100  0.49970400  0.26212600  1
  C  737  1  0.00674000  0.51274500  0.27121300  1
  C  738  1  0.00686200  0.51323500  0.28958700  1
  C  740  1  0.99766300  0.49987300  0.24327300  1
  C  741  1  0.99589100  0.48463800  0.23304400  1
  C  742  1  0.99691600  0.48513500  0.21480000  1
  C  743  1  0.00034000  0.50086500  0.20597700  1
  C  744  1  0.00280500  0.51602000  0.21596700  1
  C  745  1  0.00189100  0.51558700  0.23435600  1
  C  750  1  0.00611700  0.53141900  0.24466200  1
  C  751  1  0.01637100  0.52632100  0.26125500  1
  C  761  1  0.00617800  0.50083600  0.70564200  1
  C  762  1  0.01854700  0.49063900  0.71441500  1
  C  763  1  0.01944900  0.49019900  0.73282600  1
  C  764  1  0.00750400  0.50018700  0.74293500  1
  C  765  1  0.99599700  0.51166500  0.73394400  1
  C  766  1  0.99524100  0.51167300  0.71558000  1
  C  768  1  0.00726100  0.50042400  0.76177500  1
  C  769  1  0.01100400  0.48555500  0.77200600  1
  C  770  1  0.01000900  0.48596400  0.79025400  1
  C  771  1  0.00466400  0.50116100  0.79905600  1
  C  772  1  0.00029500  0.51588000  0.78906100  1
  C  773  1  0.00115600  0.51551400  0.77066900  1
  C  778  1  0.99490900  0.53062700  0.76031400  1
  C  779  1  0.98504100  0.52415700  0.74395600  1
  C  789  1  0.29924600  0.99711300  0.50123100  1
  C  790  1  0.29033700  0.98709000  0.48881400  1
  C  791  1  0.27191900  0.98658100  0.48813200  1
  C  792  1  0.26190000  0.99708400  0.49971300  1
  C  793  1  0.27098900  0.00670400  0.51274400  1
  C  794  1  0.28936100  0.00683000  0.51322500  1
  C  796  1  0.24305000  0.99760900  0.49989000  1
  C  797  1  0.23281900  0.99583000  0.48465800  1
  C  798  1  0.21457600  0.99684200  0.48516200  1
  C  799  1  0.20575900  0.00026400  0.50089500  1
  C  800  1  0.21575000  0.00273900  0.51604700  1
  C  801  1  0.23413900  0.00183600  0.51560800  1
  C  806  1  0.24445000  0.00607700  0.53143300  1
  C  807  1  0.26103400  0.01633800  0.52632000  1
  C  817  1  0.70542100  0.00618900  0.50080000  1
  C  818  1  0.71420700  0.01856200  0.49062000  1
  C  819  1  0.73261900  0.01945900  0.49019200  1
  C  820  1  0.74272000  0.00750700  0.50018100  1
  C  821  1  0.73371600  0.99599300  0.51164000  1
  C  822  1  0.71535100  0.99524100  0.51163400  1
  C  824  1  0.76156200  0.00726000  0.50043100  1
  C  825  1  0.77180700  0.01102400  0.48557500  1
  C  826  1  0.79005500  0.01002900  0.48599800  1
  C  827  1  0.79884800  0.00466300  0.50119400  1
  C  828  1  0.78883700  0.00027500  0.51589800  1
  C  829  1  0.77044600  0.00113700  0.51552000  1
  C  834  1  0.76007700  0.99487400  0.53061600  1
  C  835  1  0.74371800  0.98502100  0.52412800  1
  C  845  1  0.50122600  0.29923800  0.99710800  1
  C  846  1  0.48881500  0.29032700  0.98708000  1
  C  847  1  0.48812400  0.27190800  0.98658600  1
  C  848  1  0.49969900  0.26189200  0.99709700  1
  C  849  1  0.51273200  0.27098300  0.00671300  1
  C  850  1  0.51321600  0.28935600  0.00683200  1
  C  852  1  0.49986900  0.24304200  0.99763800  1
  C  853  1  0.48463300  0.23281400  0.99586600  1
  C  854  1  0.48512800  0.21457200  0.99690100  1
  C  855  1  0.50085700  0.20575200  0.00033300  1
  C  856  1  0.51601400  0.21574100  0.00279900  1
  C  857  1  0.51558200  0.23412800  0.00187500  1
  C  862  1  0.53141100  0.24443700  0.00610700  1
  C  863  1  0.52630400  0.26103100  0.01635500  1
  C  873  1  0.50078500  0.70541700  0.00618700  1
  C  874  1  0.49059900  0.71420700  0.01855300  1
  C  875  1  0.49016900  0.73261900  0.01944300  1
  C  876  1  0.50015700  0.74271700  0.00749000  1
  C  877  1  0.51162300  0.73371100  0.99598400  1
  C  878  1  0.51162100  0.71534500  0.99523900  1
  C  880  1  0.50040300  0.76155800  0.00723500  1
  C  881  1  0.48554600  0.77180300  0.01098800  1
  C  882  1  0.48596700  0.79005000  0.00998900  1
  C  883  1  0.50116500  0.79884300  0.00463200  1
  C  884  1  0.51587200  0.78883300  0.00025300  1
  C  885  1  0.51549500  0.77044200  0.00111600  1
  C  890  1  0.53059700  0.76007300  0.99486400  1
  C  891  1  0.52411300  0.74371000  0.98501300  1
  C  901  1  0.50112000  0.99734200  0.70546100  1
  C  902  1  0.48875400  0.98723700  0.71435000  1
  C  903  1  0.48805900  0.98670300  0.73276900  1
  C  904  1  0.49957200  0.99725700  0.74281100  1
  C  905  1  0.51256100  0.00695500  0.73374400  1
  C  906  1  0.51305300  0.00711000  0.71537100  1
  C  908  1  0.49972600  0.99776900  0.76166400  1
  C  909  1  0.48449300  0.99590900  0.77188000  1
  C  910  1  0.48497000  0.99692900  0.79012400  1
  C  911  1  0.50067400  0.00043100  0.79896000  1
  C  912  1  0.51582500  0.00298100  0.78898300  1
  C  913  1  0.51541200  0.00207400  0.77059400  1
  C  918  1  0.53122600  0.00639400  0.76030100  1
  C  919  1  0.52608200  0.01664400  0.74371900  1
  C  929  1  0.50072300  0.00595200  0.29928100  1
  C  930  1  0.49033000  0.01816500  0.29051700  1
  C  931  1  0.48991800  0.01912000  0.27210800  1
  C  932  1  0.50013500  0.00738400  0.26198300  1
  C  933  1  0.51178400  0.99604500  0.27096700  1
  C  934  1  0.51177000  0.99523800  0.28932700  1
  C  936  1  0.50042900  0.00721000  0.24314200  1
  C  937  1  0.48552700  0.01072700  0.23287900  1
  C  938  1  0.48600200  0.00977900  0.21462900  1
  C  939  1  0.50131300  0.00471800  0.20586000  1
  C  940  1  0.51608000  0.00058700  0.21588400  1
  C  941  1  0.51565000  0.00139400  0.23427400  1
  C  946  1  0.53083600  0.99536800  0.24465300  1
  C  947  1  0.52448200  0.98533000  0.26095100  1
  C  957  1  0.99790300  0.29916800  0.50496400  1
  C  958  1  0.98836300  0.29010400  0.51765000  1
  C  959  1  0.98792800  0.27167200  0.51817200  1
  C  960  1  0.99803100  0.26178700  0.50612900  1
  C  961  1  0.00727700  0.27105100  0.49294700  1
  C  962  1  0.00731200  0.28942600  0.49261800  1
  C  964  1  0.99830500  0.24293000  0.50553100  1
  C  965  1  0.99689300  0.23231100  0.52054700  1
  C  966  1  0.99741600  0.21404600  0.51951200  1
  C  967  1  0.99959600  0.20560700  0.50341900  1
  C  968  1  0.00228600  0.21599700  0.48850600  1
  C  969  1  0.00187600  0.23436800  0.48946500  1
  C  974  1  0.00591100  0.24495600  0.47376400  1
  C  975  1  0.01652200  0.26127100  0.47898900  1
  C  985  1  0.00584400  0.70553700  0.50525000  1
  C  986  1  0.01783000  0.71442000  0.51580800  1
  C  987  1  0.01869700  0.73284000  0.51613300  1
  C  988  1  0.00710700  0.74286300  0.50565400  1
  C  989  1  0.99592700  0.73375200  0.49394800  1
  C  990  1  0.99521700  0.71538500  0.49403100  1
  C  992  1  0.00712000  0.76170100  0.50501200  1
  C  993  1  0.01047100  0.77226600  0.51975300  1
  C  994  1  0.00996000  0.79053200  0.51880600  1
  C  995  1  0.00587400  0.79901000  0.50310900  1
  C  996  1  0.00132100  0.78867700  0.48861300  1
  C  997  1  0.00168000  0.77030000  0.48950700  1
  C  1002  1  0.99561200  0.75971600  0.47447400  1
  C  1003  1  0.98535300  0.74365300  0.48105100  1
  C  1013  1  0.29927500  0.50068400  0.00591900  1
  C  1014  1  0.29051500  0.49030500  0.01814600  1
  C  1015  1  0.27210600  0.48990600  0.01911500  1
  C  1016  1  0.26198100  0.50014100  0.00739600  1
  C  1017  1  0.27096300  0.51177500  0.99604300  1
  C  1018  1  0.28932300  0.51174500  0.99522000  1
  C  1020  1  0.24314100  0.50043700  0.00722400  1
  C  1021  1  0.23287600  0.48553900  0.01075900  1
  C  1022  1  0.21462700  0.48601200  0.00980300  1
  C  1023  1  0.20585800  0.50132500  0.00474100  1
  C  1024  1  0.21588100  0.51609000  0.00060500  1
  C  1025  1  0.23427300  0.51565900  0.00141600  1
  C  1030  1  0.24465400  0.53084300  0.99538600  1
  C  1031  1  0.26094800  0.52448600  0.98534200  1
  C  1041  1  0.70546100  0.50112900  0.99732700  1
  C  1042  1  0.71435300  0.48877600  0.98720900  1
  C  1043  1  0.73277100  0.48806900  0.98669000  1
  C  1044  1  0.74281200  0.49956500  0.99726500  1
  C  1045  1  0.73374400  0.51256200  0.00695000  1
  C  1046  1  0.71537100  0.51305600  0.00710300  1
  C  1048  1  0.76166500  0.49971800  0.99777600  1
  C  1049  1  0.77188000  0.48448300  0.99593100  1
  C  1050  1  0.79012400  0.48496100  0.99694400  1
  C  1051  1  0.79896000  0.50066500  0.00044900  1
  C  1052  1  0.78898400  0.51581700  0.00299500  1
  C  1053  1  0.77059400  0.51540300  0.00209000  1
  C  1058  1  0.76030400  0.53122100  0.00640500  1
  C  1059  1  0.74371800  0.52607600  0.01664900  1
  C  1069  1  0.10278400  0.63946100  0.56221400  1
  C  1070  1  0.10306600  0.65194800  0.57510800  1
  C  1071  1  0.10294400  0.64352600  0.59120500  1
  C  1073  1  0.10237400  0.62309100  0.57010100  1
  C  1074  1  0.10193700  0.60695000  0.56103700  1
  C  1075  1  0.10182200  0.59035400  0.56914300  1
  C  1077  1  0.10184900  0.56940300  0.58943400  1
  C  1078  1  0.10142200  0.56142100  0.57312700  1
  C  1079  1  0.10131800  0.57431500  0.56064200  1
  C  1080  1  0.10199400  0.56076500  0.60576300  1
  C  1081  1  0.10240700  0.56930600  0.62217800  1
  C  1083  1  0.10293200  0.58975100  0.64326400  1
  C  1084  1  0.10260000  0.57339600  0.65117500  1
  C  1085  1  0.10223500  0.56090300  0.63828900  1
  C  1086  1  0.10319700  0.60589600  0.65231000  1
  C  1087  1  0.10330200  0.62249400  0.64422200  1
  C  1089  1  0.10321500  0.64344000  0.62395100  1
  C  1090  1  0.10327200  0.65143200  0.64025800  1
  C  1091  1  0.10330600  0.63853400  0.65274100  1
  C  1092  1  0.10312700  0.65206500  0.60762200  1
  C  1093  1  0.10283800  0.67061300  0.60779000  1
  C  1094  1  0.08686550  0.67959900  0.60862600  1
  C  1095  1  0.08650850  0.69788900  0.60904500  1
  C  1096  1  0.10204100  0.70781900  0.60866500  1
  C  1097  1  0.11799000  0.69862900  0.60767700  1
  C  1098  1  0.11841500  0.68031500  0.60729500  1
  C  1099  1  0.10153400  0.72645400  0.60923300  1
  C  1100  1  0.11242300  0.73675300  0.59850100  1
  C  1101  1  0.11134500  0.75505300  0.59858700  1
  C  1102  1  0.09931550  0.76370700  0.60946300  1
  C  1103  1  0.08858050  0.75354300  0.62036600  1
  C  1104  1  0.08976750  0.73528400  0.62032300  1
  C  1105  1  0.10288600  0.60545800  0.67084500  1
  C  1106  1  0.08691250  0.60451700  0.67981900  1
  C  1107  1  0.08655150  0.60409300  0.69810700  1
  C  1108  1  0.10208200  0.60459300  0.70803500  1
  C  1109  1  0.11803100  0.60563500  0.69885500  1
  C  1110  1  0.11845900  0.60603200  0.68054700  1
  C  1111  1  0.10157600  0.60413900  0.72666300  1
  C  1112  1  0.08989850  0.59301300  0.73556300  1
  C  1113  1  0.08872850  0.59307600  0.75382100  1
  C  1114  1  0.09937350  0.60414200  0.76390700  1
  C  1115  1  0.11130500  0.61506600  0.75517500  1
  C  1116  1  0.11237500  0.61503800  0.73687800  1
  C  1117  1  0.10156500  0.54221200  0.60561600  1
  C  1118  1  0.11701100  0.53247200  0.60756000  1
  C  1119  1  0.11660500  0.51417200  0.60706100  1
  C  1120  1  0.10081300  0.50505400  0.60444400  1
  C  1121  1  0.08538650  0.51495700  0.60260100  1
  C  1122  1  0.08571850  0.53324900  0.60325000  1
  C  1123  1  0.10054600  0.48650300  0.60310200  1
  C  1124  1  0.09130950  0.47819200  0.58952100  1
  C  1125  1  0.09157550  0.45999400  0.58762700  1
  C  1126  1  0.10090800  0.44938500  0.59939100  1
  C  1127  1  0.10998600  0.45759500  0.61312500  1
  C  1128  1  0.10986000  0.47584000  0.61488200  1
  C  1129  1  0.10153800  0.60741200  0.54248600  1
  C  1130  1  0.11685400  0.60479200  0.53270000  1
  C  1131  1  0.08582950  0.61071900  0.53357400  1
  C  1132  1  0.08551450  0.61161200  0.51529400  1
  C  1133  1  0.10081400  0.60907200  0.50535000  1
  C  1134  1  0.11645800  0.60552800  0.51440700  1
  C  1135  1  0.10059200  0.61061400  0.48681800  1
  C  1136  1  0.10918100  0.59841500  0.47602000  1
  C  1137  1  0.10935200  0.60033300  0.45779400  1
  C  1138  1  0.10107100  0.61465200  0.44974400  1
  C  1139  1  0.09247350  0.62684300  0.46048900  1
  C  1140  1  0.09213150  0.62478400  0.47866800  1
  C  1183  1  0.09703750  0.78157500  0.60884800  1
  C  1184  1  0.09717550  0.60478000  0.78178500  1
  C  1185  1  0.10168800  0.43155000  0.59665600  1
  C  1186  1  0.10195400  0.61749300  0.43193300  1
  C  1191  1  0.56193300  0.10192900  0.63930600  1
  C  1192  1  0.57482300  0.10185900  0.65179600  1
  C  1193  1  0.59092700  0.10208400  0.64338500  1
  C  1195  1  0.56982300  0.10201900  0.62293500  1
  C  1196  1  0.56075600  0.10196500  0.60678900  1
  C  1197  1  0.56886000  0.10222700  0.59019700  1
  C  1199  1  0.58915400  0.10271900  0.56927300  1
  C  1200  1  0.57286500  0.10218400  0.56126300  1
  C  1201  1  0.56037300  0.10182900  0.57414600  1
  C  1202  1  0.60548500  0.10305100  0.56066100  1
  C  1203  1  0.62190700  0.10327600  0.56918700  1
  C  1205  1  0.64300200  0.10331300  0.58961900  1
  C  1206  1  0.65090300  0.10348800  0.57325700  1
  C  1207  1  0.63800900  0.10346200  0.56076700  1
  C  1208  1  0.65205000  0.10320200  0.60576200  1
  C  1209  1  0.64395300  0.10292700  0.62235400  1
  C  1211  1  0.62367500  0.10237400  0.64330100  1
  C  1212  1  0.63999100  0.10253900  0.65128300  1
  C  1213  1  0.65247400  0.10281500  0.63838800  1
  C  1214  1  0.60734400  0.10208000  0.65193300  1
  C  1215  1  0.60751600  0.10168400  0.67048900  1
  C  1216  1  0.61066500  0.08596950  0.67944700  1
  C  1217  1  0.61146200  0.08568150  0.69773000  1
  C  1218  1  0.60896400  0.10101400  0.70762900  1
  C  1219  1  0.60554400  0.11666200  0.69853100  1
  C  1220  1  0.60491300  0.11703000  0.68023300  1
  C  1221  1  0.61050100  0.10083200  0.72615700  1
  C  1222  1  0.59829300  0.10943200  0.73693400  1
  C  1223  1  0.60021600  0.10964500  0.75515900  1
  C  1224  1  0.61454200  0.10138600  0.76322200  1
  C  1225  1  0.62674300  0.09277950  0.75249600  1
  C  1226  1  0.62468800  0.09241050  0.73431900  1
  C  1227  1  0.67058800  0.10291500  0.60531900  1
  C  1228  1  0.67956600  0.08694750  0.60431900  1
  C  1229  1  0.69785600  0.08659150  0.60391500  1
  C  1230  1  0.70778500  0.10211800  0.60448300  1
  C  1231  1  0.69859700  0.11806100  0.60558400  1
  C  1232  1  0.68028800  0.11848600  0.60596200  1
  C  1233  1  0.72641700  0.10161200  0.60404600  1
  C  1234  1  0.73532900  0.08994850  0.59291300  1
  C  1235  1  0.75358800  0.08877250  0.59299100  1
  C  1236  1  0.76366800  0.09940350  0.60407400  1
  C  1237  1  0.75492800  0.11132300  0.61500600  1
  C  1238  1  0.73662900  0.11238400  0.61497500  1
  C  1239  1  0.60534200  0.10270200  0.54212400  1
  C  1240  1  0.60482200  0.11826800  0.53241000  1
  C  1241  1  0.60454400  0.11779800  0.51410100  1
  C  1242  1  0.60471000  0.10180700  0.50493400  1
  C  1243  1  0.60533300  0.08629050  0.51487700  1
  C  1244  1  0.60563200  0.08669550  0.53316500  1
  C  1245  1  0.60429300  0.10125300  0.48630600  1
  C  1246  1  0.59405700  0.08877850  0.47742100  1
  C  1247  1  0.59417400  0.08761750  0.45916300  1
  C  1248  1  0.60439600  0.09905850  0.44905400  1
  C  1249  1  0.61439600  0.11178500  0.45777300  1
  C  1250  1  0.61433200  0.11283900  0.47607100  1
  C  1251  1  0.54220600  0.10153400  0.60723800  1
  C  1252  1  0.53241700  0.11687200  0.60475700  1
  C  1253  1  0.53330100  0.08579350  0.61040100  1
  C  1254  1  0.51502200  0.08546850  0.61131600  1
  C  1255  1  0.50508000  0.10079200  0.60893000  1
  C  1256  1  0.51412700  0.11647000  0.60552000  1
  C  1257  1  0.48655800  0.10056200  0.61050900  1
  C  1258  1  0.47574200  0.10920700  0.59836600  1
  C  1259  1  0.45752300  0.10937300  0.60032100  1
  C  1260  1  0.44950100  0.10102600  0.61462000  1
  C  1261  1  0.46026600  0.09237850  0.62675600  1
  C  1262  1  0.47844000  0.09205050  0.62466600  1
  C  1305  1  0.61737200  0.10228600  0.78103100  1
  C  1306  1  0.78154800  0.09720450  0.60470900  1
  C  1307  1  0.60512600  0.09692050  0.43116400  1
  C  1308  1  0.43169500  0.10187200  0.61747900  1
  C  1313  1  0.63930600  0.56192900  0.10190600  1
  C  1314  1  0.65179600  0.57481900  0.10183800  1
  C  1315  1  0.64338500  0.59092300  0.10207400  1
  C  1317  1  0.62293500  0.56981900  0.10201100  1
  C  1318  1  0.60679000  0.56075100  0.10196800  1
  C  1319  1  0.59019700  0.56885500  0.10223900  1
  C  1321  1  0.56927300  0.58914900  0.10273000  1
  C  1322  1  0.56126300  0.57286000  0.10219000  1
  C  1323  1  0.57414600  0.56036700  0.10184800  1
  C  1324  1  0.56066100  0.60548000  0.10306100  1
  C  1325  1  0.56918600  0.62190200  0.10328500  1
  C  1327  1  0.58961700  0.64299700  0.10331100  1
  C  1328  1  0.57325400  0.65089800  0.10349600  1
  C  1329  1  0.56076500  0.63800200  0.10346900  1
  C  1330  1  0.60575900  0.65204600  0.10318700  1
  C  1331  1  0.62235100  0.64394900  0.10291800  1
  C  1333  1  0.64329900  0.62367200  0.10237400  1
  C  1334  1  0.65128000  0.63998900  0.10253900  1
  C  1335  1  0.63838600  0.65247100  0.10280800  1
  C  1336  1  0.65193100  0.60734200  0.10207900  1
  C  1337  1  0.67048800  0.60751500  0.10168200  1
  C  1338  1  0.67944400  0.61066200  0.08596550  1
  C  1339  1  0.69772900  0.61146200  0.08567850  1
  C  1340  1  0.70762800  0.60896500  0.10101200  1
  C  1341  1  0.69853000  0.60554800  0.11665900  1
  C  1342  1  0.68023200  0.60491600  0.11702800  1
  C  1343  1  0.72615600  0.61049700  0.10082400  1
  C  1344  1  0.73693100  0.59829400  0.10943200  1
  C  1345  1  0.75515700  0.60021600  0.10964400  1
  C  1346  1  0.76322200  0.61453500  0.10137800  1
  C  1347  1  0.75249600  0.62673900  0.09277750  1
  C  1348  1  0.73431900  0.62468400  0.09240250  1
  C  1349  1  0.60531500  0.67058300  0.10290700  1
  C  1350  1  0.60431200  0.67956600  0.08694250  1
  C  1351  1  0.60390200  0.69785600  0.08659050  1
  C  1352  1  0.60447500  0.70778100  0.10212100  1
  C  1353  1  0.60557500  0.69859000  0.11806100  1
  C  1354  1  0.60595700  0.68027900  0.11848100  1
  C  1355  1  0.60403700  0.72641300  0.10162000  1
  C  1356  1  0.59290100  0.73532700  0.08995950  1
  C  1357  1  0.59297900  0.75358400  0.08878550  1
  C  1358  1  0.60406800  0.76366300  0.09941450  1
  C  1359  1  0.61499000  0.75492300  0.11134100  1
  C  1360  1  0.61495600  0.73662400  0.11240300  1
  C  1361  1  0.54212300  0.60533600  0.10270600  1
  C  1362  1  0.53240600  0.60481600  0.11827000  1
  C  1363  1  0.51409700  0.60453300  0.11779500  1
  C  1364  1  0.50493200  0.60470100  0.10180200  1
  C  1365  1  0.51487900  0.60532500  0.08628850  1
  C  1366  1  0.53316900  0.60562400  0.08669650  1
  C  1367  1  0.48630600  0.60428100  0.10124600  1
  C  1368  1  0.47742500  0.59404500  0.08876750  1
  C  1369  1  0.45916700  0.59415700  0.08760650  1
  C  1370  1  0.44905200  0.60437500  0.09904650  1
  C  1371  1  0.45777000  0.61439100  0.11176200  1
  C  1372  1  0.47606900  0.61432300  0.11282600  1
  C  1373  1  0.60723800  0.54220000  0.10153700  1
  C  1374  1  0.60475800  0.53241000  0.11687400  1
  C  1375  1  0.61039700  0.53329400  0.08579450  1
  C  1376  1  0.61132000  0.51501600  0.08547150  1
  C  1377  1  0.60892800  0.50507400  0.10079300  1
  C  1378  1  0.60550500  0.51412000  0.11646900  1
  C  1379  1  0.61050700  0.48655100  0.10056400  1
  C  1380  1  0.59836200  0.47573600  0.10920700  1
  C  1381  1  0.60031800  0.45751600  0.10937600  1
  C  1382  1  0.61461300  0.44949300  0.10102500  1
  C  1383  1  0.62675400  0.46025800  0.09237950  1
  C  1384  1  0.62466600  0.47843200  0.09205450  1
  C  1427  1  0.78102800  0.61737300  0.10229400  1
  C  1428  1  0.60471300  0.78154000  0.09720750  1
  C  1429  1  0.43116400  0.60510800  0.09690150  1
  C  1430  1  0.61747200  0.43168700  0.10187200  1
  C  1435  1  0.60423600  0.13950400  0.06208850  1
  C  1436  1  0.60423000  0.15194400  0.07503050  1
  C  1437  1  0.60446700  0.14346400  0.09109850  1
  C  1439  1  0.60439300  0.12310600  0.06992050  1
  C  1440  1  0.60425100  0.10699800  0.06079950  1
  C  1441  1  0.60423300  0.09037050  0.06883050  1
  C  1443  1  0.60415200  0.06935750  0.08903950  1
  C  1444  1  0.60377700  0.06142550  0.07270650  1
  C  1445  1  0.60378700  0.07436350  0.06026450  1
  C  1446  1  0.60415800  0.06067350  0.10533800  1
  C  1447  1  0.60434100  0.06913850  0.12179400  1
  C  1449  1  0.60437500  0.08949150  0.14297300  1
  C  1450  1  0.60432500  0.07309350  0.15080500  1
  C  1451  1  0.60425600  0.06065550  0.13786100  1
  C  1452  1  0.60429900  0.10560000  0.15209200  1
  C  1453  1  0.60434800  0.12222700  0.14405900  1
  C  1455  1  0.60435800  0.14324400  0.12385200  1
  C  1456  1  0.60411700  0.15117300  0.14019000  1
  C  1457  1  0.60405000  0.13823400  0.15262900  1
  C  1458  1  0.60437000  0.15193300  0.10755400  1
  C  1459  1  0.60368300  0.17046900  0.10778800  1
  C  1460  1  0.58760900  0.17909000  0.10980200  1
  C  1461  1  0.58688300  0.19735800  0.11039500  1
  C  1462  1  0.60213600  0.20760800  0.10895300  1
  C  1463  1  0.61817000  0.19881900  0.10670200  1
  C  1464  1  0.61896600  0.18052100  0.10619400  1
  C  1465  1  0.60126400  0.22618200  0.10986500  1
  C  1466  1  0.61057000  0.23690400  0.09812750  1
  C  1467  1  0.60893800  0.25516200  0.09858750  1
  C  1468  1  0.59800800  0.26338000  0.11090900  1
  C  1469  1  0.58901400  0.25270100  0.12288400  1
  C  1470  1  0.59064700  0.23449400  0.12239400  1
  C  1471  1  0.60365500  0.10508400  0.17062500  1
  C  1472  1  0.58759800  0.10298400  0.17925500  1
  C  1473  1  0.58688400  0.10240000  0.19752600  1
  C  1474  1  0.60213200  0.10393700  0.20777300  1
  C  1475  1  0.61815500  0.10621500  0.19896400  1
  C  1476  1  0.61893900  0.10672300  0.18066700  1
  C  1477  1  0.60126000  0.10320200  0.22636100  1
  C  1478  1  0.59056100  0.09083350  0.23481400  1
  C  1479  1  0.58891000  0.09056350  0.25302600  1
  C  1480  1  0.59800400  0.10258300  0.26356200  1
  C  1481  1  0.60901700  0.11474000  0.25522200  1
  C  1482  1  0.61062300  0.11501000  0.23695900  1
  C  1483  1  0.60345000  0.04214350  0.10511300  1
  C  1484  1  0.61879800  0.03209050  0.10579700  1
  C  1485  1  0.61796600  0.01379350  0.10536700  1
  C  1486  1  0.60182100  0.00499649  0.10413400  1
  C  1487  1  0.58651700  0.01525850  0.10358100  1
  C  1488  1  0.58728200  0.03353050  0.10407500  1
  C  1489  1  0.60089300  0.98640900  0.10339100  1
  C  1490  1  0.58940400  0.97800900  0.09171550  1
  C  1491  1  0.58775600  0.95979700  0.09144950  1
  C  1492  1  0.59762900  0.94919400  0.10278200  1
  C  1493  1  0.60940900  0.95748900  0.11423600  1
  C  1494  1  0.61102100  0.97575200  0.11449500  1
  C  1495  1  0.60355700  0.10752300  0.04226950  1
  C  1496  1  0.61882200  0.10592300  0.03219050  1
  C  1497  1  0.58748600  0.10968000  0.03367950  1
  C  1498  1  0.58674400  0.11038500  0.01541450  1
  C  1499  1  0.60197500  0.10890400  0.00513449  1
  C  1500  1  0.61800800  0.10653600  0.01389850  1
  C  1501  1  0.60108200  0.10983300  0.98655800  1
  C  1502  1  0.61036800  0.09809550  0.97581700  1
  C  1503  1  0.60873400  0.09857750  0.95756000  1
  C  1504  1  0.59779900  0.11090300  0.94935800  1
  C  1505  1  0.58880100  0.12286100  0.96005400  1
  C  1506  1  0.59045500  0.12236500  0.97825900  1
  C  1549  1  0.59501300  0.28122900  0.11095000  1
  C  1550  1  0.59499200  0.10282400  0.28139300  1
  C  1551  1  0.59465900  0.93134800  0.10308300  1
  C  1552  1  0.59478500  0.11094700  0.93151300  1
  C  1557  1  0.06208350  0.60428600  0.13968900  1
  C  1558  1  0.07502450  0.60425800  0.15213100  1
  C  1559  1  0.09109350  0.60448500  0.14365400  1
  C  1561  1  0.06991750  0.60441500  0.12329300  1
  C  1562  1  0.06079850  0.60425800  0.10718300  1
  C  1563  1  0.06883050  0.60422800  0.09055650  1
  C  1565  1  0.08903950  0.60414500  0.06954450  1
  C  1566  1  0.07270650  0.60376100  0.06161150  1
  C  1567  1  0.06026450  0.60377300  0.07454850  1
  C  1568  1  0.10533800  0.60415600  0.06086350  1
  C  1569  1  0.12179300  0.60433500  0.06932850  1
  C  1571  1  0.14297000  0.60437100  0.08968250  1
  C  1572  1  0.15080300  0.60432900  0.07328450  1
  C  1573  1  0.13786000  0.60426300  0.06084550  1
  C  1574  1  0.15208900  0.60429500  0.10579100  1
  C  1575  1  0.14405500  0.60434100  0.12241800  1
  C  1577  1  0.12384600  0.60435000  0.14343600  1
  C  1578  1  0.14018500  0.60409900  0.15136500  1
  C  1579  1  0.15262400  0.60403400  0.13842500  1
  C  1580  1  0.10754800  0.60435800  0.15212600  1
  C  1581  1  0.10778000  0.60367500  0.17066400  1
  C  1582  1  0.10979600  0.58760300  0.17928800  1
  C  1583  1  0.11038200  0.58687900  0.19755800  1
  C  1584  1  0.10893000  0.60213100  0.20780900  1
  C  1585  1  0.10666700  0.61816200  0.19901600  1
  C  1586  1  0.10617800  0.61895800  0.18071700  1
  C  1587  1  0.10983600  0.60125800  0.22638600  1
  C  1588  1  0.09810150  0.61056900  0.23710900  1
  C  1589  1  0.09856550  0.60894500  0.25536800  1
  C  1590  1  0.11088700  0.59802000  0.26359200  1
  C  1591  1  0.12284600  0.58900500  0.25291100  1
  C  1592  1  0.12235800  0.59063700  0.23470300  1
  C  1593  1  0.17062100  0.60365300  0.10527100  1
  C  1594  1  0.17925300  0.58760000  0.10315200  1
  C  1595  1  0.19752300  0.58689200  0.10253700  1
  C  1596  1  0.20776800  0.60214300  0.10406300  1
  C  1597  1  0.19895700  0.61816200  0.10635600  1
  C  1598  1  0.18066100  0.61894000  0.10689700  1
  C  1599  1  0.22635500  0.60127800  0.10329700  1
  C  1600  1  0.23479400  0.59057900  0.09091850  1
  C  1601  1  0.25300500  0.58893200  0.09062150  1
  C  1602  1  0.26355700  0.59802100  0.10263200  1
  C  1603  1  0.25522900  0.60902400  0.11480800  1
  C  1604  1  0.23696900  0.61065000  0.11508500  1
  C  1605  1  0.10511500  0.60344500  0.04233350  1
  C  1606  1  0.10578200  0.61879300  0.03227950  1
  C  1607  1  0.10536300  0.61795600  0.01398250  1
  C  1608  1  0.10413600  0.60181000  0.00519049  1
  C  1609  1  0.10359600  0.58650500  0.01545350  1
  C  1610  1  0.10409200  0.58727500  0.03372550  1
  C  1611  1  0.10339500  0.60087600  0.98660400  1
  C  1612  1  0.09171650  0.58938700  0.97820600  1
  C  1613  1  0.09145350  0.58773600  0.95999600  1
  C  1614  1  0.10279500  0.59759900  0.94939400  1
  C  1615  1  0.11424800  0.60938200  0.95768800  1
  C  1616  1  0.11448900  0.61101600  0.97594900  1
  C  1617  1  0.04226850  0.60356500  0.10770400  1
  C  1618  1  0.03218850  0.61882700  0.10608500  1
  C  1619  1  0.03367850  0.58749300  0.10985300  1
  C  1620  1  0.01541150  0.58674700  0.11052900  1
  C  1621  1  0.00513149  0.60197500  0.10903000  1
  C  1622  1  0.01389550  0.61801000  0.10667600  1
  C  1623  1  0.98655400  0.60107800  0.10993200  1
  C  1624  1  0.97582800  0.61036000  0.09817750  1
  C  1625  1  0.95757100  0.60872200  0.09863150  1
  C  1626  1  0.94935400  0.59778700  0.11094800  1
  C  1627  1  0.96003500  0.58879300  0.12292400  1
  C  1628  1  0.97824000  0.59045100  0.12245300  1
  C  1671  1  0.11092900  0.59502100  0.28144100  1
  C  1672  1  0.28138700  0.59500900  0.10285300  1
  C  1673  1  0.10308800  0.59464200  0.93154800  1
  C  1674  1  0.93150900  0.59477000  0.11096700  1
  C  1679  1  0.13950500  0.06192750  0.60341300  1
  C  1680  1  0.15194400  0.07486950  0.60351400  1
  C  1681  1  0.14346400  0.09093650  0.60388500  1
  C  1683  1  0.12310800  0.06975750  0.60364500  1
  C  1684  1  0.10700200  0.06063350  0.60345400  1
  C  1685  1  0.09037550  0.06866650  0.60355100  1
  C  1687  1  0.06936650  0.08888350  0.60364000  1
  C  1688  1  0.06143050  0.07254850  0.60332600  1
  C  1689  1  0.07436650  0.06010450  0.60321300  1
  C  1690  1  0.06068850  0.10518500  0.60368200  1
  C  1691  1  0.06915450  0.12164300  0.60374900  1
  C  1693  1  0.08950850  0.14282300  0.60364500  1
  C  1694  1  0.07311150  0.15065500  0.60351700  1
  C  1695  1  0.06067250  0.13771100  0.60355700  1
  C  1696  1  0.10561500  0.15194600  0.60355300  1
  C  1697  1  0.12223900  0.14391000  0.60370100  1
  C  1699  1  0.14324800  0.12369500  0.60385600  1
  C  1700  1  0.15118300  0.14003300  0.60367400  1
  C  1701  1  0.13824800  0.15247700  0.60351000  1
  C  1702  1  0.15193200  0.10739300  0.60388100  1
  C  1703  1  0.17047100  0.10762500  0.60328500  1
  C  1704  1  0.17916500  0.10966000  0.58725500  1
  C  1705  1  0.19743600  0.11026100  0.58661700  1
  C  1706  1  0.20761400  0.10880700  0.60191600  1
  C  1707  1  0.19875100  0.10652000  0.61790500  1
  C  1708  1  0.18045000  0.10600300  0.61861400  1
  C  1709  1  0.22618900  0.10974800  0.60112800  1
  C  1710  1  0.23689200  0.09799850  0.61044100  1
  C  1711  1  0.25515600  0.09849150  0.60888100  1
  C  1712  1  0.26339600  0.11085100  0.59801100  1
  C  1713  1  0.25273400  0.12283700  0.58901100  1
  C  1714  1  0.23452300  0.12231800  0.59057700  1
  C  1715  1  0.10509500  0.17047600  0.60280700  1
  C  1716  1  0.10327800  0.17903500  0.58667600  1
  C  1717  1  0.10254100  0.19730000  0.58588500  1
  C  1718  1  0.10362100  0.20761700  0.60112500  1
  C  1719  1  0.10564800  0.19887400  0.61722100  1
  C  1720  1  0.10631900  0.18058700  0.61808200  1
  C  1721  1  0.10251600  0.22619400  0.60022100  1
  C  1722  1  0.09022650  0.23438500  0.58923000  1
  C  1723  1  0.08933350  0.25260200  0.58786700  1
  C  1724  1  0.10063300  0.26342200  0.59753800  1
  C  1725  1  0.11281000  0.25532700  0.60871500  1
  C  1726  1  0.11369900  0.23706100  0.61003800  1
  C  1727  1  0.04215350  0.10496800  0.60306600  1
  C  1728  1  0.03217150  0.10569300  0.61845800  1
  C  1729  1  0.01386950  0.10529700  0.61771000  1
  C  1730  1  0.00499749  0.10404500  0.60160800  1
  C  1731  1  0.01519050  0.10346600  0.58625700  1
  C  1732  1  0.03346550  0.10392800  0.58693800  1
  C  1733  1  0.98640600  0.10331000  0.60075800  1
  C  1734  1  0.97795800  0.09161850  0.58932000  1
  C  1735  1  0.95974200  0.09137550  0.58772300  1
  C  1736  1  0.94918300  0.10274500  0.59759900  1
  C  1737  1  0.95752300  0.11419100  0.60935400  1
  C  1738  1  0.97579200  0.11442800  0.61091700  1
  C  1739  1  0.10753400  0.04210650  0.60265200  1
  C  1740  1  0.10652800  0.03196450  0.61792200  1
  C  1741  1  0.10921700  0.03358350  0.58648900  1
  C  1742  1  0.11001700  0.01532050  0.58565600  1
  C  1743  1  0.10915100  0.00496849  0.60088800  1
  C  1744  1  0.10728500  0.01368250  0.61702100  1
  C  1745  1  0.11026700  0.98638900  0.59993800  1
  C  1746  1  0.09925650  0.97550200  0.60992900  1
  C  1747  1  0.10009900  0.95724100  0.60853900  1
  C  1748  1  0.11205300  0.94917200  0.59711200  1
  C  1749  1  0.12319700  0.95999300  0.58727100  1
  C  1750  1  0.12236000  0.97821000  0.58871200  1
  C  1793  1  0.28125300  0.11091800  0.59506000  1
  C  1794  1  0.09988150  0.28135700  0.59526400  1
  C  1795  1  0.93132900  0.10306600  0.59467000  1
  C  1796  1  0.11263700  0.93125700  0.59472800  1
  C  1801  1  0.10115700  0.60525100  0.40348800  1
  C  1802  1  0.09114550  0.59282500  0.39457900  1
  C  1803  1  0.09064150  0.59213200  0.37615900  1
  C  1804  1  0.10113900  0.60371200  0.36613400  1
  C  1805  1  0.11074800  0.61675300  0.37522100  1
  C  1806  1  0.11087000  0.61724300  0.39359500  1
  C  1808  1  0.10167100  0.60388100  0.34728100  1
  C  1809  1  0.09989950  0.58864600  0.33705200  1
  C  1810  1  0.10092400  0.58914300  0.31880800  1
  C  1811  1  0.10434800  0.60487300  0.30998500  1
  C  1812  1  0.10681300  0.62002800  0.31997500  1
  C  1813  1  0.10589900  0.61959500  0.33836400  1
  C  1818  1  0.11012500  0.63542700  0.34867000  1
  C  1819  1  0.12037900  0.63032900  0.36526300  1
  C  1829  1  0.11018600  0.60484400  0.80965000  1
  C  1830  1  0.12255500  0.59464700  0.81842300  1
  C  1831  1  0.12345700  0.59420700  0.83683400  1
  C  1832  1  0.11151200  0.60419500  0.84694300  1
  C  1833  1  0.10000500  0.61567300  0.83795200  1
  C  1834  1  0.09924950  0.61568100  0.81958800  1
  C  1836  1  0.11126900  0.60443200  0.86578300  1
  C  1837  1  0.11501200  0.58956300  0.87601400  1
  C  1838  1  0.11401700  0.58997200  0.89426200  1
  C  1839  1  0.10867200  0.60516900  0.90306400  1
  C  1840  1  0.10430300  0.61988800  0.89306900  1
  C  1841  1  0.10516400  0.61952200  0.87467700  1
  C  1846  1  0.09891750  0.63463500  0.86432200  1
  C  1847  1  0.08904950  0.62816500  0.84796400  1
  C  1857  1  0.40325400  0.10112100  0.60523900  1
  C  1858  1  0.39434500  0.09109850  0.59282200  1
  C  1859  1  0.37592700  0.09058950  0.59214000  1
  C  1860  1  0.36590800  0.10109200  0.60372100  1
  C  1861  1  0.37499700  0.11071200  0.61675200  1
  C  1862  1  0.39336900  0.11083800  0.61723300  1
  C  1864  1  0.34705800  0.10161700  0.60389800  1
  C  1865  1  0.33682700  0.09983850  0.58866600  1
  C  1866  1  0.31858400  0.10085000  0.58917000  1
  C  1867  1  0.30976700  0.10427200  0.60490300  1
  C  1868  1  0.31975800  0.10674700  0.62005500  1
  C  1869  1  0.33814700  0.10584400  0.61961600  1
  C  1874  1  0.34845800  0.11008500  0.63544100  1
  C  1875  1  0.36504200  0.12034600  0.63032800  1
  C  1885  1  0.80942900  0.11019700  0.60480800  1
  C  1886  1  0.81821500  0.12257000  0.59462800  1
  C  1887  1  0.83662700  0.12346700  0.59420000  1
  C  1888  1  0.84672800  0.11151500  0.60418900  1
  C  1889  1  0.83772400  0.10000100  0.61564800  1
  C  1890  1  0.81935900  0.09924950  0.61564200  1
  C  1892  1  0.86557000  0.11126800  0.60443900  1
  C  1893  1  0.87581500  0.11503200  0.58958300  1
  C  1894  1  0.89406300  0.11403700  0.59000600  1
  C  1895  1  0.90285600  0.10867100  0.60520200  1
  C  1896  1  0.89284500  0.10428300  0.61990600  1
  C  1897  1  0.87445400  0.10514500  0.61952800  1
  C  1902  1  0.86408500  0.09888250  0.63462400  1
  C  1903  1  0.84772600  0.08902950  0.62813600  1
  C  1913  1  0.60523400  0.40324600  0.10111600  1
  C  1914  1  0.59282300  0.39433500  0.09108850  1
  C  1915  1  0.59213200  0.37591600  0.09059450  1
  C  1916  1  0.60370700  0.36590000  0.10110500  1
  C  1917  1  0.61674000  0.37499100  0.11072100  1
  C  1918  1  0.61722400  0.39336400  0.11084000  1
  C  1920  1  0.60387700  0.34705000  0.10164600  1
  C  1921  1  0.58864100  0.33682200  0.09987450  1
  C  1922  1  0.58913600  0.31858000  0.10090900  1
  C  1923  1  0.60486500  0.30976000  0.10434100  1
  C  1924  1  0.62002200  0.31974900  0.10680700  1
  C  1925  1  0.61959000  0.33813600  0.10588300  1
  C  1930  1  0.63541900  0.34844500  0.11011500  1
  C  1931  1  0.63031200  0.36503900  0.12036300  1
  C  1941  1  0.60479300  0.80942500  0.11019500  1
  C  1942  1  0.59460700  0.81821500  0.12256100  1
  C  1943  1  0.59417700  0.83662700  0.12345100  1
  C  1944  1  0.60416500  0.84672500  0.11149800  1
  C  1945  1  0.61563100  0.83771900  0.09999250  1
  C  1946  1  0.61562900  0.81935300  0.09924750  1
  C  1948  1  0.60441100  0.86556600  0.11124300  1
  C  1949  1  0.58955400  0.87581100  0.11499600  1
  C  1950  1  0.58997500  0.89405800  0.11399700  1
  C  1951  1  0.60517300  0.90285100  0.10864000  1
  C  1952  1  0.61988000  0.89284100  0.10426100  1
  C  1953  1  0.61950300  0.87445000  0.10512400  1
  C  1958  1  0.63460500  0.86408100  0.09887250  1
  C  1959  1  0.62812100  0.84771800  0.08902150  1
  C  1969  1  0.60512800  0.10135000  0.80946900  1
  C  1970  1  0.59276200  0.09124550  0.81835800  1
  C  1971  1  0.59206700  0.09071150  0.83677700  1
  C  1972  1  0.60358000  0.10126500  0.84681900  1
  C  1973  1  0.61656900  0.11096300  0.83775200  1
  C  1974  1  0.61706100  0.11111800  0.81937900  1
  C  1976  1  0.60373400  0.10177700  0.86567200  1
  C  1977  1  0.58850100  0.09991750  0.87588800  1
  C  1978  1  0.58897800  0.10093700  0.89413200  1
  C  1979  1  0.60468200  0.10443900  0.90296800  1
  C  1980  1  0.61983300  0.10698900  0.89299100  1
  C  1981  1  0.61942000  0.10608200  0.87460200  1
  C  1986  1  0.63523400  0.11040200  0.86430900  1
  C  1987  1  0.63009000  0.12065200  0.84772700  1
  C  1997  1  0.60473100  0.10996000  0.40328900  1
  C  1998  1  0.59433800  0.12217300  0.39452500  1
  C  1999  1  0.59392600  0.12312800  0.37611600  1
  C  2000  1  0.60414300  0.11139200  0.36599100  1
  C  2001  1  0.61579200  0.10005300  0.37497500  1
  C  2002  1  0.61577800  0.09924650  0.39333500  1
  C  2004  1  0.60443700  0.11121800  0.34715000  1
  C  2005  1  0.58953500  0.11473500  0.33688700  1
  C  2006  1  0.59001000  0.11378700  0.31863700  1
  C  2007  1  0.60532100  0.10872600  0.30986800  1
  C  2008  1  0.62008800  0.10459500  0.31989200  1
  C  2009  1  0.61965800  0.10540200  0.33828200  1
  C  2014  1  0.63484400  0.09937650  0.34866100  1
  C  2015  1  0.62849000  0.08933850  0.36495900  1
  C  2025  1  0.10191100  0.40317600  0.60897200  1
  C  2026  1  0.09237150  0.39411200  0.62165800  1
  C  2027  1  0.09193650  0.37568000  0.62218000  1
  C  2028  1  0.10203900  0.36579500  0.61013700  1
  C  2029  1  0.11128500  0.37505900  0.59695500  1
  C  2030  1  0.11132000  0.39343400  0.59662600  1
  C  2032  1  0.10231300  0.34693800  0.60953900  1
  C  2033  1  0.10090100  0.33631900  0.62455500  1
  C  2034  1  0.10142400  0.31805400  0.62352000  1
  C  2035  1  0.10360400  0.30961500  0.60742700  1
  C  2036  1  0.10629400  0.32000500  0.59251400  1
  C  2037  1  0.10588400  0.33837600  0.59347300  1
  C  2042  1  0.10991900  0.34896400  0.57777200  1
  C  2043  1  0.12053000  0.36527900  0.58299700  1
  C  2053  1  0.10985200  0.80954500  0.60925800  1
  C  2054  1  0.12183800  0.81842800  0.61981600  1
  C  2055  1  0.12270500  0.83684800  0.62014100  1
  C  2056  1  0.11111500  0.84687100  0.60966200  1
  C  2057  1  0.09993550  0.83776000  0.59795600  1
  C  2058  1  0.09922550  0.81939300  0.59803900  1
  C  2060  1  0.11112800  0.86570900  0.60902000  1
  C  2061  1  0.11447900  0.87627400  0.62376100  1
  C  2062  1  0.11396800  0.89454000  0.62281400  1
  C  2063  1  0.10988200  0.90301800  0.60711700  1
  C  2064  1  0.10532900  0.89268500  0.59262100  1
  C  2065  1  0.10568800  0.87430800  0.59351500  1
  C  2070  1  0.09962050  0.86372400  0.57848200  1
  C  2071  1  0.08936150  0.84766100  0.58505900  1
  C  2081  1  0.40328300  0.60469200  0.10992700  1
  C  2082  1  0.39452300  0.59431300  0.12215400  1
  C  2083  1  0.37611400  0.59391400  0.12312300  1
  C  2084  1  0.36598900  0.60414900  0.11140400  1
  C  2085  1  0.37497100  0.61578300  0.10005100  1
  C  2086  1  0.39333100  0.61575300  0.09922850  1
  C  2088  1  0.34714900  0.60444500  0.11123200  1
  C  2089  1  0.33688400  0.58954700  0.11476700  1
  C  2090  1  0.31863500  0.59002000  0.11381100  1
  C  2091  1  0.30986600  0.60533300  0.10874900  1
  C  2092  1  0.31988900  0.62009800  0.10461300  1
  C  2093  1  0.33828100  0.61966700  0.10542400  1
  C  2098  1  0.34866200  0.63485100  0.09939450  1
  C  2099  1  0.36495600  0.62849400  0.08935050  1
  C  2109  1  0.80946900  0.60513700  0.10133500  1
  C  2110  1  0.81836100  0.59278400  0.09121750  1
  C  2111  1  0.83677900  0.59207700  0.09069850  1
  C  2112  1  0.84682000  0.60357300  0.10127300  1
  C  2113  1  0.83775200  0.61657000  0.11095800  1
  C  2114  1  0.81937900  0.61706400  0.11111100  1
  C  2116  1  0.86567300  0.60372600  0.10178400  1
  C  2117  1  0.87588800  0.58849100  0.09993950  1
  C  2118  1  0.89413200  0.58896900  0.10095200  1
  C  2119  1  0.90296800  0.60467300  0.10445700  1
  C  2120  1  0.89299200  0.61982500  0.10700300  1
  C  2121  1  0.87460200  0.61941100  0.10609800  1
  C  2126  1  0.86431200  0.63522900  0.11041300  1
  C  2127  1  0.84772600  0.63008400  0.12065700  1
  N  4  1  0.99854600  0.52228700  0.48343800  1
  N  8  1  0.99809700  0.48270100  0.48233300  1
  N  14  1  0.99885900  0.48252900  0.52191300  1
  N  20  1  0.99925500  0.52212500  0.52301700  1
  N  126  1  0.48316100  0.99816200  0.52214000  1
  N  130  1  0.48204600  0.99872900  0.48256800  1
  N  136  1  0.52165100  0.99925400  0.48241200  1
  N  142  1  0.52274800  0.99865900  0.52198800  1
  N  248  1  0.52214000  0.48315700  0.99815500  1
  N  252  1  0.48256800  0.48204100  0.99874200  1
  N  258  1  0.48241100  0.52164600  0.99925900  1
  N  264  1  0.52198600  0.52274400  0.99865300  1
  N  370  1  0.50062000  0.02223700  0.98326800  1
  N  374  1  0.50043700  0.98266200  0.98200600  1
  N  380  1  0.50047000  0.98234900  0.02160800  1
  N  386  1  0.50052300  0.02192000  0.02286700  1
  N  492  1  0.98326400  0.50063700  0.02242600  1
  N  496  1  0.98200600  0.50043700  0.98284900  1
  N  502  1  0.02160600  0.50045800  0.98253900  1
  N  508  1  0.02286200  0.50052200  0.02211200  1
  N  614  1  0.02223800  0.98310300  0.50001700  1
  N  618  1  0.98267300  0.98184400  0.49979200  1
  N  624  1  0.98236400  0.02145800  0.49985700  1
  N  630  1  0.02192500  0.02271600  0.49990300  1
  N  756  1  0.97462200  0.47678200  0.26400700  1
  N  759  1  0.00127400  0.50206900  0.18867400  1
  N  760  1  0.99684500  0.50101400  0.31682600  1
  N  784  1  0.03308600  0.48080700  0.74088500  1
  N  787  1  0.00361300  0.50224300  0.81635400  1
  N  788  1  0.00616100  0.50067100  0.68831200  1
  N  812  1  0.26377200  0.97455900  0.47680400  1
  N  815  1  0.18845800  0.00118700  0.50209300  1
  N  816  1  0.31658800  0.99680600  0.50099600  1
  N  840  1  0.74068600  0.03310100  0.48081200  1
  N  843  1  0.81614800  0.00359900  0.50227900  1
  N  844  1  0.68808800  0.00617800  0.50061400  1
  N  868  1  0.47679500  0.26375700  0.97456800  1
  N  871  1  0.50205800  0.18845200  0.00127600  1
  N  872  1  0.50099100  0.31658000  0.99680100  1
  N  896  1  0.48078300  0.74069200  0.03307900  1
  N  899  1  0.50226000  0.81614200  0.00357800  1
  N  900  1  0.50059700  0.68808400  0.00618000  1
  N  924  1  0.47679200  0.97460900  0.74089400  1
  N  927  1  0.50186300  0.00136000  0.81626100  1
  N  928  1  0.50090000  0.99705300  0.68811500  1
  N  952  1  0.48031400  0.03262100  0.26406900  1
  N  955  1  0.50245000  0.00370300  0.18856600  1
  N  956  1  0.50051400  0.00588800  0.31661400  1
  N  980  1  0.97634400  0.26337600  0.52983800  1
  N  983  1  0.99988700  0.18824600  0.50331400  1
  N  984  1  0.99748500  0.31651500  0.50523400  1
  N  1008  1  0.03199500  0.74099700  0.52591900  1
  N  1011  1  0.00558500  0.81636400  0.50306600  1
  N  1012  1  0.00593500  0.68819700  0.50541900  1
  N  1036  1  0.26407200  0.48031000  0.03262700  1
  N  1039  1  0.18856500  0.50246300  0.00373300  1
  N  1040  1  0.31661000  0.50048000  0.00586400  1
  N  1064  1  0.74090300  0.47679800  0.97460400  1
  N  1067  1  0.81626100  0.50185400  0.00138500  1
  N  1068  1  0.68811500  0.50090500  0.99704000  1
  N  1072  1  0.10255400  0.62629500  0.58744600  1
  N  1076  1  0.10210500  0.58670900  0.58634100  1
  N  1082  1  0.10286700  0.58653700  0.62592100  1
  N  1088  1  0.10326300  0.62613300  0.62702500  1
  N  1194  1  0.58716900  0.10217000  0.62614800  1
  N  1198  1  0.58605400  0.10273700  0.58657600  1
  N  1204  1  0.62565900  0.10326200  0.58642000  1
  N  1210  1  0.62675600  0.10266700  0.62599600  1
  N  1316  1  0.62614800  0.58716500  0.10216300  1
  N  1320  1  0.58657600  0.58604900  0.10275000  1
  N  1326  1  0.58641900  0.62565400  0.10326700  1
  N  1332  1  0.62599400  0.62675200  0.10266100  1
  N  1438  1  0.60462800  0.12624500  0.08727650  1
  N  1442  1  0.60444500  0.08667050  0.08601450  1
  N  1448  1  0.60447800  0.08635750  0.12561600  1
  N  1454  1  0.60453100  0.12592800  0.12687500  1
  N  1560  1  0.08727250  0.60464500  0.12643400  1
  N  1564  1  0.08601450  0.60444500  0.08685750  1
  N  1570  1  0.12561400  0.60446600  0.08654750  1
  N  1576  1  0.12687000  0.60453000  0.12612000  1
  N  1682  1  0.12624600  0.08711150  0.60402500  1
  N  1686  1  0.08668150  0.08585250  0.60380000  1
  N  1692  1  0.08637250  0.12546600  0.60386500  1
  N  1698  1  0.12593300  0.12672400  0.60391100  1
  N  1824  1  0.07863050  0.58079000  0.36801500  1
  N  1827  1  0.10528200  0.60607700  0.29268200  1
  N  1828  1  0.10085300  0.60502200  0.42083400  1
  N  1852  1  0.13709400  0.58481500  0.84489300  1
  N  1855  1  0.10762100  0.60625100  0.92036200  1
  N  1856  1  0.11016900  0.60467900  0.79232000  1
  N  1880  1  0.36778000  0.07856750  0.58081200  1
  N  1883  1  0.29246600  0.10519500  0.60610100  1
  N  1884  1  0.42059600  0.10081400  0.60500400  1
  N  1908  1  0.84469400  0.13710900  0.58482000  1
  N  1911  1  0.92015600  0.10760700  0.60628700  1
  N  1912  1  0.79209600  0.11018600  0.60462200  1
  N  1936  1  0.58080300  0.36776500  0.07857650  1
  N  1939  1  0.60606600  0.29246000  0.10528400  1
  N  1940  1  0.60499900  0.42058800  0.10080900  1
  N  1964  1  0.58479100  0.84470000  0.13708700  1
  N  1967  1  0.60626800  0.92015000  0.10758600  1
  N  1968  1  0.60460500  0.79209200  0.11018800  1
  N  1992  1  0.58080000  0.07861750  0.84490200  1
  N  1995  1  0.60587100  0.10536800  0.92026900  1
  N  1996  1  0.60490800  0.10106100  0.79212300  1
  N  2020  1  0.58432200  0.13662900  0.36807700  1
  N  2023  1  0.60645800  0.10771100  0.29257400  1
  N  2024  1  0.60452200  0.10989600  0.42062200  1
  N  2048  1  0.08035250  0.36738400  0.63384600  1
  N  2051  1  0.10389500  0.29225400  0.60732200  1
  N  2052  1  0.10149300  0.42052300  0.60924200  1
  N  2076  1  0.13600300  0.84500500  0.62992700  1
  N  2079  1  0.10959300  0.92037200  0.60707400  1
  N  2080  1  0.10994300  0.79220500  0.60942700  1
  N  2104  1  0.36808000  0.58431800  0.13663500  1
  N  2107  1  0.29257300  0.60647100  0.10774100  1
  N  2108  1  0.42061800  0.60448800  0.10987200  1
  N  2132  1  0.84491100  0.58080600  0.07861250  1
  N  2135  1  0.92026900  0.60586200  0.10539300  1
  N  2136  1  0.79212300  0.60491300  0.10104800  1
  O  757  1  0.97728400  0.46114800  0.26799700  1
  O  758  1  0.95916700  0.48062200  0.26768500  1
  O  785  1  0.03262400  0.46490900  0.73708000  1
  O  786  1  0.04776700  0.48676600  0.73688100  1
  O  813  1  0.26775300  0.97720900  0.46116600  1
  O  814  1  0.26745800  0.95910800  0.48065300  1
  O  841  1  0.73689300  0.03264600  0.46491200  1
  O  842  1  0.73667900  0.04778000  0.48677500  1
  O  869  1  0.46115700  0.26774700  0.97721300  1
  O  870  1  0.48064700  0.26742900  0.95911500  1
  O  897  1  0.46488300  0.73689400  0.03262300  1
  O  898  1  0.48674600  0.73669200  0.04776100  1
  O  925  1  0.46114300  0.97717400  0.73690200  1
  O  926  1  0.48073300  0.95918500  0.73719700  1
  O  953  1  0.46441800  0.03187600  0.26783400  1
  O  954  1  0.48601200  0.04738800  0.26813400  1
  O  981  1  0.97958100  0.26718100  0.54540800  1
  O  982  1  0.96075400  0.26708900  0.52661600  1
  O  1009  1  0.03095300  0.73735400  0.54182600  1
  O  1010  1  0.04688000  0.73693000  0.52053300  1
  O  1037  1  0.26782300  0.46441100  0.03188100  1
  O  1038  1  0.26815900  0.48600800  0.04738900  1
  O  1065  1  0.73689800  0.46115200  0.97716400  1
  O  1066  1  0.73722200  0.48074200  0.95917600  1
  O  1825  1  0.08129250  0.56515600  0.37200500  1
  O  1826  1  0.06317550  0.58463000  0.37169300  1
  O  1853  1  0.13663200  0.56891700  0.84108800  1
  O  1854  1  0.15177500  0.59077400  0.84088900  1
  O  1881  1  0.37176100  0.08121750  0.56517400  1
  O  1882  1  0.37146600  0.06311650  0.58466100  1
  O  1909  1  0.84090100  0.13665400  0.56892000  1
  O  1910  1  0.84068700  0.15178800  0.59078300  1
  O  1937  1  0.56516500  0.37175500  0.08122150  1
  O  1938  1  0.58465500  0.37143700  0.06312350  1
  O  1965  1  0.56889100  0.84090200  0.13663100  1
  O  1966  1  0.59075400  0.84070000  0.15176900  1
  O  1993  1  0.56515100  0.08118250  0.84091000  1
  O  1994  1  0.58474100  0.06319350  0.84120500  1
  O  2021  1  0.56842600  0.13588400  0.37184200  1
  O  2022  1  0.59002000  0.15139600  0.37214200  1
  O  2049  1  0.08358950  0.37118900  0.64941600  1
  O  2050  1  0.06476250  0.37109700  0.63062400  1
  O  2077  1  0.13496100  0.84136200  0.64583400  1
  O  2078  1  0.15088800  0.84093800  0.62454100  1
  O  2105  1  0.37183100  0.56841900  0.13588900  1
  O  2106  1  0.37216700  0.59001600  0.15139700  1
  O  2133  1  0.84090600  0.56516000  0.08117250  1
  O  2134  1  0.84123000  0.58475000  0.06318450  1
