# generated using pymatgen
data_H120C151N12
_symmetry_space_group_name_H-M   'P 1'
_cell_length_a   38.69540000
_cell_length_b   40.82307615
_cell_length_c   40.82307615
_cell_angle_alpha   77.01968401
_cell_angle_beta   61.70983819
_cell_angle_gamma   61.70983819
_symmetry_Int_Tables_number   1
_chemical_formula_structural   H120C151N12
_chemical_formula_sum   'H360 C453 N36'
_cell_volume   50002.01017254
_cell_formula_units_Z   3
loop_
 _symmetry_equiv_pos_site_id
 _symmetry_equiv_pos_as_xyz
  1  'x, y, z'
loop_
 _atom_site_type_symbol
 _atom_site_label
 _atom_site_symmetry_multiplicity
 _atom_site_fract_x
 _atom_site_fract_y
 _atom_site_fract_z
 _atom_site_occupancy
  C  1  1  0.61602500  0.72905450  0.02970550  1
  C  2  1  0.64319200  0.70571600  0.04738400  1
  C  3  1  0.63605550  0.71644000  0.08135000  1
  C  4  1  0.60160950  0.75071400  0.09823700  1
  C  5  1  0.57478050  0.77403050  0.08017050  1
  C  6  1  0.58179200  0.76320050  0.04639050  1
  C  7  1  0.59413700  0.76276550  0.13116750  1
  C  8  1  0.58870350  0.74289650  0.16288850  1
  C  9  1  0.57647100  0.75746450  0.19634350  1
  C  10  1  0.53738400  0.78979600  0.21147700  1
  C  11  1  0.52504350  0.80557350  0.24492550  1
  C  12  1  0.55188250  0.78820950  0.26386150  1
  C  13  1  0.59036750  0.75515600  0.24988900  1
  C  14  1  0.60246100  0.74005050  0.21606050  1
  C  15  1  0.61680500  0.73896450  0.26836450  1
  C  16  1  0.62302850  0.70564450  0.28521150  1
  C  17  1  0.64884550  0.68984600  0.30427900  1
  C  18  1  0.69416200  0.67889150  0.28537750  1
  C  19  1  0.63025450  0.68368800  0.34303900  1
  C  20  1  0.65634700  0.66749800  0.36254500  1
  C  21  1  0.70169000  0.65619650  0.34358050  1
  C  22  1  0.72018450  0.66245500  0.30491700  1
  C  23  1  0.48714600  0.83787150  0.25813050  1
  C  24  1  0.48729950  0.87116550  0.25590150  1
  C  25  1  0.45022850  0.90446500  0.26284400  1
  C  26  1  0.44917950  0.93168700  0.23450600  1
  C  27  1  0.41305300  0.91193950  0.29734750  1
  C  28  1  0.37554900  0.94567200  0.30315100  1
  C  29  1  0.37444500  0.97259100  0.27470000  1
  C  30  1  0.41164300  0.96525350  0.24029450  1
  C  58  1  0.37634800  0.31090250  0.92719450  1
  C  59  1  0.39782950  0.33425800  0.90948900  1
  C  60  1  0.43537550  0.32353250  0.87551650  1
  C  61  1  0.45210650  0.28924400  0.85864900  1
  C  62  1  0.43055250  0.26591100  0.87674800  1
  C  63  1  0.39296050  0.27674250  0.91052950  1
  C  64  1  0.48961100  0.27718450  0.82572050  1
  C  65  1  0.49605650  0.29703700  0.79399000  1
  C  66  1  0.53185250  0.28244900  0.76054400  1
  C  67  1  0.54023750  0.25009750  0.74544050  1
  C  68  1  0.57713450  0.23429350  0.71200850  1
  C  69  1  0.60555350  0.25164650  0.69305950  1
  C  70  1  0.59700600  0.28472100  0.70699800  1
  C  71  1  0.56014650  0.29985900  0.74080800  1
  C  72  1  0.62574150  0.30089900  0.68851800  1
  C  73  1  0.61551850  0.33420000  0.67163500  1
  C  74  1  0.64461400  0.34998850  0.65255850  1
  C  75  1  0.66013500  0.36089050  0.67144250  1
  C  76  1  0.65856950  0.35619800  0.61380700  1
  C  77  1  0.68797500  0.37238950  0.59429450  1
  C  78  1  0.70311550  0.38363250  0.61324450  1
  C  79  1  0.68926250  0.37732500  0.65189600  1
  C  80  1  0.58473650  0.20197050  0.69885750  1
  C  81  1  0.61603000  0.16869150  0.70099250  1
  C  82  1  0.61925900  0.13538600  0.69399900  1
  C  83  1  0.61707500  0.10815000  0.72232100  1
  C  84  1  0.62410850  0.12793100  0.65946700  1
  C  85  1  0.62616450  0.09420150  0.65362350  1
  C  86  1  0.62350650  0.06726900  0.68206000  1
  C  87  1  0.61891900  0.07458550  0.71649050  1
  C  115  1  0.65745850  0.96867150  0.68746750  1
  C  116  1  0.65371300  0.95097050  0.66408450  1
  C  117  1  0.65010300  0.91701350  0.67480350  1
  C  118  1  0.65018250  0.90015150  0.70910850  1
  C  119  1  0.65360950  0.91824500  0.73246800  1
  C  120  1  0.65745450  0.95201300  0.72164300  1
  C  121  1  0.64557000  0.86723700  0.72115800  1
  C  122  1  0.67091150  0.83549500  0.70132400  1
  C  123  1  0.66856500  0.80204900  0.71592000  1
  C  124  1  0.67526700  0.78696400  0.74828100  1
  C  125  1  0.67179700  0.75353600  0.76409800  1
  C  126  1  0.66232850  0.73457800  0.74675100  1
  C  127  1  0.65695900  0.74849650  0.71366550  1
  C  128  1  0.66001450  0.78230150  0.69851350  1
  C  129  1  0.64670650  0.73000700  0.69749300  1
  C  130  1  0.67379550  0.71314850  0.66417850  1
  C  131  1  0.66377750  0.69406550  0.64839750  1
  C  132  1  0.62936350  0.71294550  0.63750550  1
  C  133  1  0.68858800  0.65531700  0.64217400  1
  C  134  1  0.67869000  0.63579900  0.62599200  1
  C  135  1  0.64458600  0.65474400  0.61476500  1
  C  136  1  0.61978550  0.69339650  0.62107050  1
  C  137  1  0.67733050  0.74040800  0.79643100  1
  C  138  1  0.64393200  0.74239500  0.82969200  1
  C  139  1  0.64769700  0.73546450  0.86299350  1
  C  140  1  0.62149200  0.76379600  0.89022300  1
  C  141  1  0.67744350  0.70098100  0.87044900  1
  C  142  1  0.68122600  0.69519550  0.90417450  1
  C  143  1  0.65537800  0.72364050  0.93110350  1
  C  144  1  0.62547450  0.75802250  0.92378350  1
  C  172  1  0.31522000  0.07119750  0.26929750  1
  C  173  1  0.27038900  0.08888600  0.29267700  1
  C  174  1  0.24353750  0.12285600  0.28197400  1
  C  175  1  0.26106250  0.13973750  0.24768350  1
  C  176  1  0.30594300  0.12166250  0.22433050  1
  C  177  1  0.33273350  0.08788050  0.23513950  1
  C  178  1  0.23558300  0.17266850  0.23565250  1
  C  179  1  0.20933150  0.20439400  0.25551400  1
  C  180  1  0.18812750  0.23785350  0.24094050  1
  C  181  1  0.21209750  0.25296450  0.20859950  1
  C  182  1  0.19101100  0.28641300  0.19281000  1
  C  183  1  0.14523700  0.30536450  0.21016350  1
  C  184  1  0.12070750  0.29141300  0.24322600  1
  C  185  1  0.14242450  0.25758550  0.25834450  1
  C  186  1  0.07579400  0.30989950  0.25940250  1
  C  187  1  0.05271450  0.32675300  0.29272000  1
  C  188  1  0.00783050  0.34582400  0.30850800  1
  C  189  1  0.98141500  0.32693050  0.31941750  1
  C  190  1  0.98765950  0.38457700  0.31470800  1
  C  191  1  0.94206050  0.40408500  0.33089000  1
  C  192  1  0.91568450  0.38512750  0.34213450  1
  C  193  1  0.93585200  0.34647200  0.33585000  1
  C  194  1  0.21572900  0.29958550  0.16050250  1
  C  195  1  0.21774100  0.29743550  0.12721450  1
  C  196  1  0.24785200  0.30440100  0.09392000  1
  C  197  1  0.27725450  0.27607250  0.06668850  1
  C  198  1  0.25050000  0.33891500  0.08646200  1
  C  199  1  0.28219250  0.34473700  0.05273400  1
  C  200  1  0.31175100  0.31629950  0.02580150  1
  C  201  1  0.30898350  0.28188600  0.03311900  1
  C  457  1  0.73732300  0.54923350  0.49883250  1
  C  458  1  0.77447600  0.54916800  0.49793900  1
  C  459  1  0.82320150  0.49069650  0.45894550  1
  C  460  1  0.78700450  0.49063850  0.45805150  1
  C  461  1  0.79478050  0.46185750  0.43775250  1
  C  462  1  0.83681850  0.43347600  0.41917700  1
  C  463  1  0.87177700  0.43368950  0.42170550  1
  C  464  1  0.86517150  0.46213350  0.44090050  1
  C  465  1  0.76984700  0.57772700  0.51598400  1
  C  466  1  0.72882000  0.60617000  0.53518300  1
  C  467  1  0.69111300  0.60639200  0.53771500  1
  C  468  1  0.69602350  0.57801800  0.51913500  1
  C  469  1  0.72481600  0.54033350  0.44914450  1
  C  470  1  0.68855750  0.53944600  0.44920700  1
  C  471  1  0.67881050  0.50045350  0.50767950  1
  C  472  1  0.71590550  0.49955250  0.50773850  1
  C  473  1  0.65487950  0.48241200  0.53624100  1
  C  474  1  0.66746700  0.46321100  0.56468400  1
  C  475  1  0.70495650  0.46067350  0.56489950  1
  C  476  1  0.72842350  0.47924850  0.53652250  1
  C  477  1  0.74582900  0.56062350  0.42035650  1
  C  478  1  0.73217350  0.57919800  0.39197300  1
  C  479  1  0.69699150  0.57667750  0.39219450  1
  C  480  1  0.67514600  0.55749200  0.42064600  1
  C  493  1  0.74126250  0.51993900  0.47844200  1
  C  494  1  0.66370000  0.51995400  0.47844500  1
  C  497  1  0.81882250  0.51993100  0.47843900  1
  C  500  1  0.64761600  0.63665600  0.55845500  1
  C  503  1  0.84431550  0.40321450  0.39844150  1
  C  506  1  0.71819800  0.43992850  0.59515850  1
  C  509  1  0.75495850  0.59991000  0.36169500  1
  C  567  1  0.33175300  0.72905450  0.02970550  1
  C  568  1  0.35892000  0.70571600  0.04738400  1
  C  569  1  0.35178350  0.71644000  0.08135000  1
  C  570  1  0.31733750  0.75071400  0.09823700  1
  C  571  1  0.29050850  0.77403050  0.08017050  1
  C  572  1  0.29752000  0.76320050  0.04639050  1
  C  573  1  0.30986500  0.76276550  0.13116750  1
  C  574  1  0.30443150  0.74289650  0.16288850  1
  C  575  1  0.29219900  0.75746450  0.19634350  1
  C  576  1  0.25311200  0.78979600  0.21147700  1
  C  577  1  0.24077150  0.80557350  0.24492550  1
  C  578  1  0.26761050  0.78820950  0.26386150  1
  C  579  1  0.30609550  0.75515600  0.24988900  1
  C  580  1  0.31818900  0.74005050  0.21606050  1
  C  581  1  0.33253300  0.73896450  0.26836450  1
  C  582  1  0.33875650  0.70564450  0.28521150  1
  C  583  1  0.36457350  0.68984600  0.30427900  1
  C  584  1  0.40989000  0.67889150  0.28537750  1
  C  585  1  0.34598250  0.68368800  0.34303900  1
  C  586  1  0.37207500  0.66749800  0.36254500  1
  C  587  1  0.41741825  0.65619650  0.34358050  1
  C  588  1  0.43591275  0.66245500  0.30491700  1
  C  589  1  0.20287400  0.83787150  0.25813050  1
  C  590  1  0.20302750  0.87116550  0.25590150  1
  C  591  1  0.16595650  0.90446500  0.26284400  1
  C  592  1  0.16490750  0.93168700  0.23450600  1
  C  593  1  0.12878100  0.91193950  0.29734750  1
  C  594  1  0.09127700  0.94567200  0.30315100  1
  C  595  1  0.09017300  0.97259100  0.27470000  1
  C  596  1  0.12737100  0.96525350  0.24029450  1
  C  624  1  0.09207600  0.31090250  0.92719450  1
  C  625  1  0.11355750  0.33425800  0.90948900  1
  C  626  1  0.15110350  0.32353250  0.87551650  1
  C  627  1  0.16783450  0.28924400  0.85864900  1
  C  628  1  0.14628050  0.26591100  0.87674800  1
  C  629  1  0.10868850  0.27674250  0.91052950  1
  C  630  1  0.20533900  0.27718450  0.82572050  1
  C  631  1  0.21178450  0.29703700  0.79399000  1
  C  632  1  0.24758050  0.28244900  0.76054400  1
  C  633  1  0.25596550  0.25009750  0.74544050  1
  C  634  1  0.29286250  0.23429350  0.71200850  1
  C  635  1  0.32128150  0.25164650  0.69305950  1
  C  636  1  0.31273400  0.28472100  0.70699800  1
  C  637  1  0.27587450  0.29985900  0.74080800  1
  C  638  1  0.34146950  0.30089900  0.68851800  1
  C  639  1  0.33124650  0.33420000  0.67163500  1
  C  640  1  0.36034200  0.34998850  0.65255850  1
  C  641  1  0.37586300  0.36089050  0.67144250  1
  C  642  1  0.37429750  0.35619800  0.61380700  1
  C  643  1  0.40370300  0.37238950  0.59429450  1
  C  644  1  0.41884375  0.38363250  0.61324450  1
  C  645  1  0.40499075  0.37732500  0.65189600  1
  C  646  1  0.30046450  0.20197050  0.69885750  1
  C  647  1  0.33175800  0.16869150  0.70099250  1
  C  648  1  0.33498700  0.13538600  0.69399900  1
  C  649  1  0.33280300  0.10815000  0.72232100  1
  C  650  1  0.33983650  0.12793100  0.65946700  1
  C  651  1  0.34189250  0.09420150  0.65362350  1
  C  652  1  0.33923450  0.06726900  0.68206000  1
  C  653  1  0.33464700  0.07458550  0.71649050  1
  C  681  1  0.37318650  0.96867150  0.68746750  1
  C  682  1  0.36944100  0.95097050  0.66408450  1
  C  683  1  0.36583100  0.91701350  0.67480350  1
  C  684  1  0.36591050  0.90015150  0.70910850  1
  C  685  1  0.36933750  0.91824500  0.73246800  1
  C  686  1  0.37318250  0.95201300  0.72164300  1
  C  687  1  0.36129800  0.86723700  0.72115800  1
  C  688  1  0.38663950  0.83549500  0.70132400  1
  C  689  1  0.38429300  0.80204900  0.71592000  1
  C  690  1  0.39099500  0.78696400  0.74828100  1
  C  691  1  0.38752500  0.75353600  0.76409800  1
  C  692  1  0.37805650  0.73457800  0.74675100  1
  C  693  1  0.37268700  0.74849650  0.71366550  1
  C  694  1  0.37574250  0.78230150  0.69851350  1
  C  695  1  0.36243450  0.73000700  0.69749300  1
  C  696  1  0.38952350  0.71314850  0.66417850  1
  C  697  1  0.37950550  0.69406550  0.64839750  1
  C  698  1  0.34509150  0.71294550  0.63750550  1
  C  699  1  0.40431600  0.65531700  0.64217400  1
  C  700  1  0.39441800  0.63579900  0.62599200  1
  C  701  1  0.36031424  0.65474400  0.61476500  1
  C  702  1  0.33551374  0.69339650  0.62107050  1
  C  703  1  0.39305850  0.74040800  0.79643100  1
  C  704  1  0.35966000  0.74239500  0.82969200  1
  C  705  1  0.36342500  0.73546450  0.86299350  1
  C  706  1  0.33722000  0.76379600  0.89022300  1
  C  707  1  0.39317150  0.70098100  0.87044900  1
  C  708  1  0.39695400  0.69519550  0.90417450  1
  C  709  1  0.37110600  0.72364050  0.93110350  1
  C  710  1  0.34120250  0.75802250  0.92378350  1
  C  738  1  0.03094800  0.07119750  0.26929750  1
  C  739  1  0.98611700  0.08888600  0.29267700  1
  C  740  1  0.95926550  0.12285600  0.28197400  1
  C  741  1  0.97679050  0.13973750  0.24768350  1
  C  742  1  0.02167100  0.12166250  0.22433050  1
  C  743  1  0.04846150  0.08788050  0.23513950  1
  C  744  1  0.95131100  0.17266850  0.23565250  1
  C  745  1  0.92505950  0.20439400  0.25551400  1
  C  746  1  0.90385550  0.23785350  0.24094050  1
  C  747  1  0.92782550  0.25296450  0.20859950  1
  C  748  1  0.90673900  0.28641300  0.19281000  1
  C  749  1  0.86096500  0.30536450  0.21016350  1
  C  750  1  0.83643550  0.29141300  0.24322600  1
  C  751  1  0.85815250  0.25758550  0.25834450  1
  C  752  1  0.79152200  0.30989950  0.25940250  1
  C  753  1  0.76844250  0.32675300  0.29272000  1
  C  754  1  0.72355850  0.34582400  0.30850800  1
  C  755  1  0.69714300  0.32693050  0.31941750  1
  C  756  1  0.70338750  0.38457700  0.31470800  1
  C  757  1  0.65778850  0.40408500  0.33089000  1
  C  758  1  0.63141274  0.38512750  0.34213450  1
  C  759  1  0.65158024  0.34647200  0.33585000  1
  C  760  1  0.93145700  0.29958550  0.16050250  1
  C  761  1  0.93346900  0.29743550  0.12721450  1
  C  762  1  0.96358000  0.30440100  0.09392000  1
  C  763  1  0.99298250  0.27607250  0.06668850  1
  C  764  1  0.96622800  0.33891500  0.08646200  1
  C  765  1  0.99792050  0.34473700  0.05273400  1
  C  766  1  0.02747900  0.31629950  0.02580150  1
  C  767  1  0.02471150  0.28188600  0.03311900  1
  C  1023  1  0.45305125  0.54923350  0.49883250  1
  C  1024  1  0.49020400  0.54916800  0.49793900  1
  C  1025  1  0.53892950  0.49069650  0.45894550  1
  C  1026  1  0.50273275  0.49063850  0.45805150  1
  C  1027  1  0.51050875  0.46185750  0.43775250  1
  C  1028  1  0.55254675  0.43347600  0.41917700  1
  C  1029  1  0.58750500  0.43368950  0.42170550  1
  C  1030  1  0.58089950  0.46213350  0.44090050  1
  C  1031  1  0.48557500  0.57772700  0.51598400  1
  C  1032  1  0.44454800  0.60617000  0.53518300  1
  C  1033  1  0.40684125  0.60639200  0.53771500  1
  C  1034  1  0.41175175  0.57801800  0.51913500  1
  C  1035  1  0.44054425  0.54033350  0.44914450  1
  C  1036  1  0.40428550  0.53944600  0.44920700  1
  C  1037  1  0.39453850  0.50045350  0.50767950  1
  C  1038  1  0.43163375  0.49955250  0.50773850  1
  C  1039  1  0.37060750  0.48241200  0.53624100  1
  C  1040  1  0.38319500  0.46321100  0.56468400  1
  C  1041  1  0.42068475  0.46067350  0.56489950  1
  C  1042  1  0.44415175  0.47924850  0.53652250  1
  C  1043  1  0.46155725  0.56062350  0.42035650  1
  C  1044  1  0.44790175  0.57919800  0.39197300  1
  C  1045  1  0.41271950  0.57667750  0.39219450  1
  C  1046  1  0.39087400  0.55749200  0.42064600  1
  C  1059  1  0.45699075  0.51993900  0.47844200  1
  C  1060  1  0.37942800  0.51995400  0.47844500  1
  C  1063  1  0.53455050  0.51993100  0.47843900  1
  C  1066  1  0.36334425  0.63665600  0.55845500  1
  C  1069  1  0.56004375  0.40321450  0.39844150  1
  C  1072  1  0.43392625  0.43992850  0.59515850  1
  C  1075  1  0.47068675  0.59991000  0.36169500  1
  C  1133  1  0.04748200  0.72905450  0.02970550  1
  C  1134  1  0.07464900  0.70571600  0.04738400  1
  C  1135  1  0.06751250  0.71644000  0.08135000  1
  C  1136  1  0.03306650  0.75071400  0.09823700  1
  C  1137  1  0.00623750  0.77403050  0.08017050  1
  C  1138  1  0.01324900  0.76320050  0.04639050  1
  C  1139  1  0.02559400  0.76276550  0.13116750  1
  C  1140  1  0.02016050  0.74289650  0.16288850  1
  C  1141  1  0.00792800  0.75746450  0.19634350  1
  C  1142  1  0.96884100  0.78979600  0.21147700  1
  C  1143  1  0.95650050  0.80557350  0.24492550  1
  C  1144  1  0.98333950  0.78820950  0.26386150  1
  C  1145  1  0.02182450  0.75515600  0.24988900  1
  C  1146  1  0.03391800  0.74005050  0.21606050  1
  C  1147  1  0.04826200  0.73896450  0.26836450  1
  C  1148  1  0.05448550  0.70564450  0.28521150  1
  C  1149  1  0.08030250  0.68984600  0.30427900  1
  C  1150  1  0.12561900  0.67889150  0.28537750  1
  C  1151  1  0.06171150  0.68368800  0.34303900  1
  C  1152  1  0.08780400  0.66749800  0.36254500  1
  C  1153  1  0.13314700  0.65619650  0.34358050  1
  C  1154  1  0.15164150  0.66245500  0.30491700  1
  C  1155  1  0.91860300  0.83787150  0.25813050  1
  C  1156  1  0.91875650  0.87116550  0.25590150  1
  C  1157  1  0.88168550  0.90446500  0.26284400  1
  C  1158  1  0.88063650  0.93168700  0.23450600  1
  C  1159  1  0.84451000  0.91193950  0.29734750  1
  C  1160  1  0.80700600  0.94567200  0.30315100  1
  C  1161  1  0.80590200  0.97259100  0.27470000  1
  C  1162  1  0.84310000  0.96525350  0.24029450  1
  C  1190  1  0.80780500  0.31090250  0.92719450  1
  C  1191  1  0.82928650  0.33425800  0.90948900  1
  C  1192  1  0.86683250  0.32353250  0.87551650  1
  C  1193  1  0.88356350  0.28924400  0.85864900  1
  C  1194  1  0.86200950  0.26591100  0.87674800  1
  C  1195  1  0.82441750  0.27674250  0.91052950  1
  C  1196  1  0.92106800  0.27718450  0.82572050  1
  C  1197  1  0.92751350  0.29703700  0.79399000  1
  C  1198  1  0.96330950  0.28244900  0.76054400  1
  C  1199  1  0.97169450  0.25009750  0.74544050  1
  C  1200  1  0.00859150  0.23429350  0.71200850  1
  C  1201  1  0.03701050  0.25164650  0.69305950  1
  C  1202  1  0.02846300  0.28472100  0.70699800  1
  C  1203  1  0.99160350  0.29985900  0.74080800  1
  C  1204  1  0.05719850  0.30089900  0.68851800  1
  C  1205  1  0.04697550  0.33420000  0.67163500  1
  C  1206  1  0.07607100  0.34998850  0.65255850  1
  C  1207  1  0.09159200  0.36089050  0.67144250  1
  C  1208  1  0.09002650  0.35619800  0.61380700  1
  C  1209  1  0.11943200  0.37238950  0.59429450  1
  C  1210  1  0.13457250  0.38363250  0.61324450  1
  C  1211  1  0.12071950  0.37732500  0.65189600  1
  C  1212  1  0.01619350  0.20197050  0.69885750  1
  C  1213  1  0.04748700  0.16869150  0.70099250  1
  C  1214  1  0.05071600  0.13538600  0.69399900  1
  C  1215  1  0.04853200  0.10815000  0.72232100  1
  C  1216  1  0.05556550  0.12793100  0.65946700  1
  C  1217  1  0.05762150  0.09420150  0.65362350  1
  C  1218  1  0.05496350  0.06726900  0.68206000  1
  C  1219  1  0.05037600  0.07458550  0.71649050  1
  C  1247  1  0.08891550  0.96867150  0.68746750  1
  C  1248  1  0.08517000  0.95097050  0.66408450  1
  C  1249  1  0.08156000  0.91701350  0.67480350  1
  C  1250  1  0.08163950  0.90015150  0.70910850  1
  C  1251  1  0.08506650  0.91824500  0.73246800  1
  C  1252  1  0.08891150  0.95201300  0.72164300  1
  C  1253  1  0.07702700  0.86723700  0.72115800  1
  C  1254  1  0.10236850  0.83549500  0.70132400  1
  C  1255  1  0.10002200  0.80204900  0.71592000  1
  C  1256  1  0.10672400  0.78696400  0.74828100  1
  C  1257  1  0.10325400  0.75353600  0.76409800  1
  C  1258  1  0.09378550  0.73457800  0.74675100  1
  C  1259  1  0.08841600  0.74849650  0.71366550  1
  C  1260  1  0.09147150  0.78230150  0.69851350  1
  C  1261  1  0.07816350  0.73000700  0.69749300  1
  C  1262  1  0.10525250  0.71314850  0.66417850  1
  C  1263  1  0.09523450  0.69406550  0.64839750  1
  C  1264  1  0.06082050  0.71294550  0.63750550  1
  C  1265  1  0.12004500  0.65531700  0.64217400  1
  C  1266  1  0.11014700  0.63579900  0.62599200  1
  C  1267  1  0.07604300  0.65474400  0.61476500  1
  C  1268  1  0.05124250  0.69339650  0.62107050  1
  C  1269  1  0.10878750  0.74040800  0.79643100  1
  C  1270  1  0.07538900  0.74239500  0.82969200  1
  C  1271  1  0.07915400  0.73546450  0.86299350  1
  C  1272  1  0.05294900  0.76379600  0.89022300  1
  C  1273  1  0.10890050  0.70098100  0.87044900  1
  C  1274  1  0.11268300  0.69519550  0.90417450  1
  C  1275  1  0.08683500  0.72364050  0.93110350  1
  C  1276  1  0.05693150  0.75802250  0.92378350  1
  C  1304  1  0.74667700  0.07119750  0.26929750  1
  C  1305  1  0.70184600  0.08888600  0.29267700  1
  C  1306  1  0.67499450  0.12285600  0.28197400  1
  C  1307  1  0.69251950  0.13973750  0.24768350  1
  C  1308  1  0.73740000  0.12166250  0.22433050  1
  C  1309  1  0.76419050  0.08788050  0.23513950  1
  C  1310  1  0.66704000  0.17266850  0.23565250  1
  C  1311  1  0.64078850  0.20439400  0.25551400  1
  C  1312  1  0.61958450  0.23785350  0.24094050  1
  C  1313  1  0.64355450  0.25296450  0.20859950  1
  C  1314  1  0.62246800  0.28641300  0.19281000  1
  C  1315  1  0.57669400  0.30536450  0.21016350  1
  C  1316  1  0.55216450  0.29141300  0.24322600  1
  C  1317  1  0.57388150  0.25758550  0.25834450  1
  C  1318  1  0.50725100  0.30989950  0.25940250  1
  C  1319  1  0.48417150  0.32675300  0.29272000  1
  C  1320  1  0.43928750  0.34582400  0.30850800  1
  C  1321  1  0.41287200  0.32693050  0.31941750  1
  C  1322  1  0.41911650  0.38457700  0.31470800  1
  C  1323  1  0.37351750  0.40408500  0.33089000  1
  C  1324  1  0.34714150  0.38512750  0.34213450  1
  C  1325  1  0.36730900  0.34647200  0.33585000  1
  C  1326  1  0.64718600  0.29958550  0.16050250  1
  C  1327  1  0.64919800  0.29743550  0.12721450  1
  C  1328  1  0.67930900  0.30440100  0.09392000  1
  C  1329  1  0.70871150  0.27607250  0.06668850  1
  C  1330  1  0.68195700  0.33891500  0.08646200  1
  C  1331  1  0.71364950  0.34473700  0.05273400  1
  C  1332  1  0.74320800  0.31629950  0.02580150  1
  C  1333  1  0.74044050  0.28188600  0.03311900  1
  C  1589  1  0.16878000  0.54923350  0.49883250  1
  C  1590  1  0.20593300  0.54916800  0.49793900  1
  C  1591  1  0.25465850  0.49069650  0.45894550  1
  C  1592  1  0.21846150  0.49063850  0.45805150  1
  C  1593  1  0.22623750  0.46185750  0.43775250  1
  C  1594  1  0.26827550  0.43347600  0.41917700  1
  C  1595  1  0.30323400  0.43368950  0.42170550  1
  C  1596  1  0.29662850  0.46213350  0.44090050  1
  C  1597  1  0.20130400  0.57772700  0.51598400  1
  C  1598  1  0.16027700  0.60617000  0.53518300  1
  C  1599  1  0.12257000  0.60639200  0.53771500  1
  C  1600  1  0.12748050  0.57801800  0.51913500  1
  C  1601  1  0.15627300  0.54033350  0.44914450  1
  C  1602  1  0.12001450  0.53944600  0.44920700  1
  C  1603  1  0.11026750  0.50045350  0.50767950  1
  C  1604  1  0.14736250  0.49955250  0.50773850  1
  C  1605  1  0.08633650  0.48241200  0.53624100  1
  C  1606  1  0.09892400  0.46321100  0.56468400  1
  C  1607  1  0.13641350  0.46067350  0.56489950  1
  C  1608  1  0.15988050  0.47924850  0.53652250  1
  C  1609  1  0.17728600  0.56062350  0.42035650  1
  C  1610  1  0.16363050  0.57919800  0.39197300  1
  C  1611  1  0.12844850  0.57667750  0.39219450  1
  C  1612  1  0.10660300  0.55749200  0.42064600  1
  C  1625  1  0.17271950  0.51993900  0.47844200  1
  C  1626  1  0.09515700  0.51995400  0.47844500  1
  C  1629  1  0.25027950  0.51993100  0.47843900  1
  C  1632  1  0.07907300  0.63665600  0.55845500  1
  C  1635  1  0.27577250  0.40321450  0.39844150  1
  C  1638  1  0.14965500  0.43992850  0.59515850  1
  C  1641  1  0.18641550  0.59991000  0.36169500  1
  H  31  1  0.66831250  0.68092650  0.03547650  1
  H  32  1  0.65646000  0.69922300  0.09342800  1
  H  33  1  0.56195750  0.78051700  0.03383400  1
  H  34  1  0.54970650  0.79911300  0.09151700  1
  H  35  1  0.63085250  0.71657200  0.20534000  1
  H  36  1  0.51803050  0.80239200  0.19758900  1
  H  37  1  0.54311500  0.79958850  0.28813850  1
  H  38  1  0.47544300  0.92704450  0.20912750  1
  H  39  1  0.70856950  0.68282300  0.25727300  1
  H  40  1  0.75285900  0.65499450  0.29075850  1
  H  41  1  0.64219000  0.66375000  0.39067300  1
  H  42  1  0.59751700  0.69139900  0.35746800  1
  H  43  1  0.41133600  0.98431800  0.21921000  1
  H  44  1  0.34886150  0.95042450  0.32816850  1
  H  45  1  0.41291050  0.89280500  0.31842600  1
  H  46  1  0.60781850  0.69176300  0.28499600  1
  H  47  1  0.63082300  0.75343100  0.26967300  1
  H  48  1  0.58953950  0.78884850  0.13169550  1
  H  49  1  0.59213050  0.71711500  0.16311100  1
  H  50  1  0.51561600  0.87258950  0.24550950  1
  H  51  1  0.45934000  0.83650350  0.26566150  1
  H  53  1  0.71394750  0.65208400  0.38834700  1
  H  55  1  0.61959800  0.69518850  0.99855450  1
  H  57  1  0.32633950  0.00663550  0.26096750  1
  H  88  1  0.38624500  0.35905650  0.92138250  1
  H  89  1  0.45062600  0.34076000  0.86341700  1
  H  90  1  0.37790950  0.25941000  0.92311300  1
  H  91  1  0.44192150  0.24081300  0.86542000  1
  H  92  1  0.55434900  0.32334200  0.75151500  1
  H  93  1  0.51958500  0.23751000  0.75934100  1
  H  94  1  0.63245650  0.24024100  0.66879800  1
  H  95  1  0.61326550  0.11278650  0.74772250  1
  H  96  1  0.65041000  0.35692600  0.69954100  1
  H  97  1  0.70035900  0.38475200  0.66604200  1
  H  98  1  0.69815450  0.37617300  0.56617400  1
  H  99  1  0.64792500  0.34852650  0.59938950  1
  H  100  1  0.61656050  0.05551900  0.73756800  1
  H  101  1  0.62928100  0.08946000  0.62858800  1
  H  102  1  0.62591900  0.14707850  0.63840450  1
  H  103  1  0.58621800  0.34808050  0.67183550  1
  H  104  1  0.65553100  0.28642600  0.68721500  1
  H  105  1  0.51164250  0.25111250  0.82521250  1
  H  106  1  0.47391850  0.32280850  0.79374550  1
  H  107  1  0.63539000  0.16726350  0.71137550  1
  H  108  1  0.56316850  0.20331950  0.69123850  1
  H  110  1  0.75599750  0.38777600  0.56845800  1
  H  112  1  0.31490050  0.34475500  0.95835800  1
  H  114  1  0.59571150  0.03323500  0.69572600  1
  H  145  1  0.65344650  0.96285900  0.63927300  1
  H  146  1  0.64697900  0.90491650  0.65755350  1
  H  147  1  0.65989550  0.96459250  0.73899750  1
  H  148  1  0.65352450  0.90691950  0.75757950  1
  H  149  1  0.65511450  0.79299900  0.67502700  1
  H  150  1  0.68201250  0.80087450  0.76086350  1
  H  151  1  0.65969300  0.71031550  0.75815950  1
  H  152  1  0.59984850  0.78916050  0.88558850  1
  H  153  1  0.61098700  0.74104350  0.64147150  1
  H  154  1  0.59453850  0.70754100  0.61364800  1
  H  155  1  0.69663450  0.60768000  0.62220500  1
  H  156  1  0.71364750  0.64090200  0.64984700  1
  H  157  1  0.60669800  0.77910500  0.94285100  1
  H  158  1  0.70319150  0.67019400  0.90891800  1
  H  159  1  0.69674700  0.67991300  0.85130400  1
  H  160  1  0.70289150  0.71335600  0.65029300  1
  H  161  1  0.61822800  0.72869100  0.71197400  1
  H  162  1  0.62402500  0.86673550  0.74722150  1
  H  163  1  0.69334650  0.83523300  0.67557700  1
  H  164  1  0.61419900  0.75273950  0.83111550  1
  H  165  1  0.70649900  0.73285800  0.79509300  1
  H  167  1  0.63649600  0.60995900  0.61061200  1
  H  169  1  0.68779050  0.99981200  0.65364300  1
  H  171  1  0.66942100  0.73741950  0.96513250  1
  H  202  1  0.25719900  0.07698300  0.31747800  1
  H  203  1  0.21106650  0.13494350  0.29922150  1
  H  204  1  0.36511150  0.07531400  0.21779000  1
  H  205  1  0.31964650  0.13300450  0.19923350  1
  H  206  1  0.12473900  0.24687800  0.28182600  1
  H  207  1  0.24533850  0.23906700  0.19601700  1
  H  208  1  0.12974200  0.32964150  0.19877450  1
  H  209  1  0.27637400  0.25069400  0.07131400  1
  H  210  1  0.99511100  0.29883050  0.31546450  1
  H  211  1  0.91733550  0.33231750  0.34328350  1
  H  212  1  0.92809200  0.43220750  0.33466550  1
  H  213  1  0.00597000  0.39900000  0.30702700  1
  H  214  1  0.33037500  0.26081250  0.01404450  1
  H  215  1  0.28384150  0.36976250  0.04799050  1
  H  216  1  0.22955900  0.35998200  0.10560700  1
  H  217  1  0.06813250  0.32653900  0.30660600  1
  H  218  1  0.06047650  0.31120550  0.24492850  1
  H  219  1  0.23960750  0.17319300  0.20958400  1
  H  220  1  0.20575000  0.20462900  0.28126800  1
  H  221  1  0.19980150  0.28706250  0.12578950  1
  H  222  1  0.23598200  0.30715000  0.16186400  1
  H  224  1  0.85865300  0.42990550  0.34628250  1
  H  226  1  0.34286100  0.04003400  0.30311700  1
  H  228  1  0.37358000  0.30259700  0.99174500  1
  H  481  1  0.68709950  0.58859700  0.37147000  1
  H  482  1  0.64943600  0.55650100  0.42016200  1
  H  483  1  0.62769600  0.48340550  0.53671950  1
  H  484  1  0.64877550  0.45128050  0.58540050  1
  H  485  1  0.75521600  0.47816650  0.53685650  1
  H  486  1  0.77188600  0.56169050  0.42001550  1
  H  487  1  0.76906550  0.46152300  0.43667800  1
  H  488  1  0.90239800  0.41296950  0.40977650  1
  H  489  1  0.89136550  0.46165050  0.44189050  1
  H  490  1  0.66889600  0.57835800  0.52021300  1
  H  491  1  0.79655350  0.57820500  0.51498800  1
  H  492  1  0.72679600  0.62688800  0.54711100  1
  H  495  1  0.63003950  0.54052400  0.49205500  1
  H  496  1  0.66420600  0.49939250  0.46483550  1
  H  498  1  0.83192100  0.50632000  0.49900400  1
  H  499  1  0.83887500  0.53353900  0.45787300  1
  H  501  1  0.62285850  0.63471600  0.55412100  1
  H  502  1  0.64775650  0.66353800  0.54696700  1
  H  504  1  0.81328050  0.40515950  0.40277650  1
  H  505  1  0.85984500  0.37633050  0.40993150  1
  H  507  1  0.69118200  0.45141850  0.62204250  1
  H  508  1  0.74490350  0.44425250  0.59321250  1
  H  510  1  0.78404600  0.59557400  0.36364100  1
  H  511  1  0.76631500  0.58840000  0.33482100  1
  H  597  1  0.38404050  0.68092650  0.03547650  1
  H  598  1  0.37218800  0.69922300  0.09342800  1
  H  599  1  0.27768550  0.78051700  0.03383400  1
  H  600  1  0.26543450  0.79911300  0.09151700  1
  H  601  1  0.34658050  0.71657200  0.20534000  1
  H  602  1  0.23375850  0.80239200  0.19758900  1
  H  603  1  0.25884300  0.79958850  0.28813850  1
  H  604  1  0.19117100  0.92704450  0.20912750  1
  H  605  1  0.42429750  0.68282300  0.25727300  1
  H  606  1  0.46858725  0.65499450  0.29075850  1
  H  607  1  0.35791800  0.66375000  0.39067300  1
  H  608  1  0.31324500  0.69139900  0.35746800  1
  H  609  1  0.12706400  0.98431800  0.21921000  1
  H  610  1  0.06458950  0.95042450  0.32816850  1
  H  611  1  0.12863850  0.89280500  0.31842600  1
  H  612  1  0.32354650  0.69176300  0.28499600  1
  H  613  1  0.34655100  0.75343100  0.26967300  1
  H  614  1  0.30526750  0.78884850  0.13169550  1
  H  615  1  0.30785850  0.71711500  0.16311100  1
  H  616  1  0.23134400  0.87258950  0.24550950  1
  H  617  1  0.17506800  0.83650350  0.26566150  1
  H  619  1  0.42967575  0.65208400  0.38834700  1
  H  621  1  0.33532600  0.69518850  0.99855450  1
  H  623  1  0.04206750  0.00663550  0.26096750  1
  H  654  1  0.10197300  0.35905650  0.92138250  1
  H  655  1  0.16635400  0.34076000  0.86341700  1
  H  656  1  0.09363750  0.25941000  0.92311300  1
  H  657  1  0.15764950  0.24081300  0.86542000  1
  H  658  1  0.27007700  0.32334200  0.75151500  1
  H  659  1  0.23531300  0.23751000  0.75934100  1
  H  660  1  0.34818450  0.24024100  0.66879800  1
  H  661  1  0.32899350  0.11278650  0.74772250  1
  H  662  1  0.36613800  0.35692600  0.69954100  1
  H  663  1  0.41608725  0.38475200  0.66604200  1
  H  664  1  0.41388250  0.37617300  0.56617400  1
  H  665  1  0.36365300  0.34852650  0.59938950  1
  H  666  1  0.33228850  0.05551900  0.73756800  1
  H  667  1  0.34500900  0.08946000  0.62858800  1
  H  668  1  0.34164700  0.14707850  0.63840450  1
  H  669  1  0.30194600  0.34808050  0.67183550  1
  H  670  1  0.37125900  0.28642600  0.68721500  1
  H  671  1  0.22737050  0.25111250  0.82521250  1
  H  672  1  0.18964650  0.32280850  0.79374550  1
  H  673  1  0.35111800  0.16726350  0.71137550  1
  H  674  1  0.27889650  0.20331950  0.69123850  1
  H  676  1  0.47172575  0.38777600  0.56845800  1
  H  678  1  0.03062850  0.34475500  0.95835800  1
  H  680  1  0.31143950  0.03323500  0.69572600  1
  H  711  1  0.36917450  0.96285900  0.63927300  1
  H  712  1  0.36270700  0.90491650  0.65755350  1
  H  713  1  0.37562350  0.96459250  0.73899750  1
  H  714  1  0.36925250  0.90691950  0.75757950  1
  H  715  1  0.37084250  0.79299900  0.67502700  1
  H  716  1  0.39774050  0.80087450  0.76086350  1
  H  717  1  0.37542100  0.71031550  0.75815950  1
  H  718  1  0.31557650  0.78916050  0.88558850  1
  H  719  1  0.32671500  0.74104350  0.64147150  1
  H  720  1  0.31026675  0.70754100  0.61364800  1
  H  721  1  0.41236250  0.60768000  0.62220500  1
  H  722  1  0.42937550  0.64090200  0.64984700  1
  H  723  1  0.32242600  0.77910500  0.94285100  1
  H  724  1  0.41891950  0.67019400  0.90891800  1
  H  725  1  0.41247500  0.67991300  0.85130400  1
  H  726  1  0.41861950  0.71335600  0.65029300  1
  H  727  1  0.33395600  0.72869100  0.71197400  1
  H  728  1  0.33975300  0.86673550  0.74722150  1
  H  729  1  0.40907450  0.83523300  0.67557700  1
  H  730  1  0.32992700  0.75273950  0.83111550  1
  H  731  1  0.42222700  0.73285800  0.79509300  1
  H  733  1  0.35222425  0.60995900  0.61061200  1
  H  735  1  0.40351850  0.99981200  0.65364300  1
  H  737  1  0.38514900  0.73741950  0.96513250  1
  H  768  1  0.97292700  0.07698300  0.31747800  1
  H  769  1  0.92679450  0.13494350  0.29922150  1
  H  770  1  0.08083950  0.07531400  0.21779000  1
  H  771  1  0.03537450  0.13300450  0.19923350  1
  H  772  1  0.84046700  0.24687800  0.28182600  1
  H  773  1  0.96106650  0.23906700  0.19601700  1
  H  774  1  0.84547000  0.32964150  0.19877450  1
  H  775  1  0.99210200  0.25069400  0.07131400  1
  H  776  1  0.71083900  0.29883050  0.31546450  1
  H  777  1  0.63306375  0.33231750  0.34328350  1
  H  778  1  0.64382000  0.43220750  0.33466550  1
  H  779  1  0.72169800  0.39900000  0.30702700  1
  H  780  1  0.04610300  0.26081250  0.01404450  1
  H  781  1  0.99956950  0.36976250  0.04799050  1
  H  782  1  0.94528700  0.35998200  0.10560700  1
  H  783  1  0.78386050  0.32653900  0.30660600  1
  H  784  1  0.77620450  0.31120550  0.24492850  1
  H  785  1  0.95533550  0.17319300  0.20958400  1
  H  786  1  0.92147800  0.20462900  0.28126800  1
  H  787  1  0.91552950  0.28706250  0.12578950  1
  H  788  1  0.95171000  0.30715000  0.16186400  1
  H  790  1  0.57438125  0.42990550  0.34628250  1
  H  792  1  0.05858900  0.04003400  0.30311700  1
  H  794  1  0.08930800  0.30259700  0.99174500  1
  H  1047  1  0.40282750  0.58859700  0.37147000  1
  H  1048  1  0.36516400  0.55650100  0.42016200  1
  H  1049  1  0.34342400  0.48340550  0.53671950  1
  H  1050  1  0.36450350  0.45128050  0.58540050  1
  H  1051  1  0.47094425  0.47816650  0.53685650  1
  H  1052  1  0.48761425  0.56169050  0.42001550  1
  H  1053  1  0.48479375  0.46152300  0.43667800  1
  H  1054  1  0.61812600  0.41296950  0.40977650  1
  H  1055  1  0.60709350  0.46165050  0.44189050  1
  H  1056  1  0.38462425  0.57835800  0.52021300  1
  H  1057  1  0.51228150  0.57820500  0.51498800  1
  H  1058  1  0.44252400  0.62688800  0.54711100  1
  H  1061  1  0.34576750  0.54052400  0.49205500  1
  H  1062  1  0.37993400  0.49939250  0.46483550  1
  H  1064  1  0.54764900  0.50632000  0.49900400  1
  H  1065  1  0.55460300  0.53353900  0.45787300  1
  H  1067  1  0.33858675  0.63471600  0.55412100  1
  H  1068  1  0.36348475  0.66353800  0.54696700  1
  H  1070  1  0.52900875  0.40515950  0.40277650  1
  H  1071  1  0.57557325  0.37633050  0.40993150  1
  H  1073  1  0.40691025  0.45141850  0.62204250  1
  H  1074  1  0.46063175  0.44425250  0.59321250  1
  H  1076  1  0.49977425  0.59557400  0.36364100  1
  H  1077  1  0.48204325  0.58840000  0.33482100  1
  H  1163  1  0.09976950  0.68092650  0.03547650  1
  H  1164  1  0.08791700  0.69922300  0.09342800  1
  H  1165  1  0.99341450  0.78051700  0.03383400  1
  H  1166  1  0.98116350  0.79911300  0.09151700  1
  H  1167  1  0.06230950  0.71657200  0.20534000  1
  H  1168  1  0.94948750  0.80239200  0.19758900  1
  H  1169  1  0.97457200  0.79958850  0.28813850  1
  H  1170  1  0.90690000  0.92704450  0.20912750  1
  H  1171  1  0.14002650  0.68282300  0.25727300  1
  H  1172  1  0.18431600  0.65499450  0.29075850  1
  H  1173  1  0.07364700  0.66375000  0.39067300  1
  H  1174  1  0.02897400  0.69139900  0.35746800  1
  H  1175  1  0.84279300  0.98431800  0.21921000  1
  H  1176  1  0.78031850  0.95042450  0.32816850  1
  H  1177  1  0.84436750  0.89280500  0.31842600  1
  H  1178  1  0.03927550  0.69176300  0.28499600  1
  H  1179  1  0.06228000  0.75343100  0.26967300  1
  H  1180  1  0.02099650  0.78884850  0.13169550  1
  H  1181  1  0.02358750  0.71711500  0.16311100  1
  H  1182  1  0.94707300  0.87258950  0.24550950  1
  H  1183  1  0.89079700  0.83650350  0.26566150  1
  H  1185  1  0.14540450  0.65208400  0.38834700  1
  H  1187  1  0.05105500  0.69518850  0.99855450  1
  H  1189  1  0.75779650  0.00663550  0.26096750  1
  H  1220  1  0.81770200  0.35905650  0.92138250  1
  H  1221  1  0.88208300  0.34076000  0.86341700  1
  H  1222  1  0.80936650  0.25941000  0.92311300  1
  H  1223  1  0.87337850  0.24081300  0.86542000  1
  H  1224  1  0.98580600  0.32334200  0.75151500  1
  H  1225  1  0.95104200  0.23751000  0.75934100  1
  H  1226  1  0.06391350  0.24024100  0.66879800  1
  H  1227  1  0.04472250  0.11278650  0.74772250  1
  H  1228  1  0.08186700  0.35692600  0.69954100  1
  H  1229  1  0.13181600  0.38475200  0.66604200  1
  H  1230  1  0.12961150  0.37617300  0.56617400  1
  H  1231  1  0.07938200  0.34852650  0.59938950  1
  H  1232  1  0.04801750  0.05551900  0.73756800  1
  H  1233  1  0.06073800  0.08946000  0.62858800  1
  H  1234  1  0.05737600  0.14707850  0.63840450  1
  H  1235  1  0.01767500  0.34808050  0.67183550  1
  H  1236  1  0.08698800  0.28642600  0.68721500  1
  H  1237  1  0.94309950  0.25111250  0.82521250  1
  H  1238  1  0.90537550  0.32280850  0.79374550  1
  H  1239  1  0.06684700  0.16726350  0.71137550  1
  H  1240  1  0.99462550  0.20331950  0.69123850  1
  H  1242  1  0.18745450  0.38777600  0.56845800  1
  H  1244  1  0.74635750  0.34475500  0.95835800  1
  H  1246  1  0.02716850  0.03323500  0.69572600  1
  H  1277  1  0.08490350  0.96285900  0.63927300  1
  H  1278  1  0.07843600  0.90491650  0.65755350  1
  H  1279  1  0.09135250  0.96459250  0.73899750  1
  H  1280  1  0.08498150  0.90691950  0.75757950  1
  H  1281  1  0.08657150  0.79299900  0.67502700  1
  H  1282  1  0.11346950  0.80087450  0.76086350  1
  H  1283  1  0.09115000  0.71031550  0.75815950  1
  H  1284  1  0.03130550  0.78916050  0.88558850  1
  H  1285  1  0.04244400  0.74104350  0.64147150  1
  H  1286  1  0.02599550  0.70754100  0.61364800  1
  H  1287  1  0.12809150  0.60768000  0.62220500  1
  H  1288  1  0.14510450  0.64090200  0.64984700  1
  H  1289  1  0.03815500  0.77910500  0.94285100  1
  H  1290  1  0.13464850  0.67019400  0.90891800  1
  H  1291  1  0.12820400  0.67991300  0.85130400  1
  H  1292  1  0.13434850  0.71335600  0.65029300  1
  H  1293  1  0.04968500  0.72869100  0.71197400  1
  H  1294  1  0.05548200  0.86673550  0.74722150  1
  H  1295  1  0.12480350  0.83523300  0.67557700  1
  H  1296  1  0.04565600  0.75273950  0.83111550  1
  H  1297  1  0.13795600  0.73285800  0.79509300  1
  H  1299  1  0.06795300  0.60995900  0.61061200  1
  H  1301  1  0.11924750  0.99981200  0.65364300  1
  H  1303  1  0.10087800  0.73741950  0.96513250  1
  H  1334  1  0.68865600  0.07698300  0.31747800  1
  H  1335  1  0.64252350  0.13494350  0.29922150  1
  H  1336  1  0.79656850  0.07531400  0.21779000  1
  H  1337  1  0.75110350  0.13300450  0.19923350  1
  H  1338  1  0.55619600  0.24687800  0.28182600  1
  H  1339  1  0.67679550  0.23906700  0.19601700  1
  H  1340  1  0.56119900  0.32964150  0.19877450  1
  H  1341  1  0.70783100  0.25069400  0.07131400  1
  H  1342  1  0.42656800  0.29883050  0.31546450  1
  H  1343  1  0.34879250  0.33231750  0.34328350  1
  H  1344  1  0.35954900  0.43220750  0.33466550  1
  H  1345  1  0.43742700  0.39900000  0.30702700  1
  H  1346  1  0.76183200  0.26081250  0.01404450  1
  H  1347  1  0.71529850  0.36976250  0.04799050  1
  H  1348  1  0.66101600  0.35998200  0.10560700  1
  H  1349  1  0.49958950  0.32653900  0.30660600  1
  H  1350  1  0.49193350  0.31120550  0.24492850  1
  H  1351  1  0.67106450  0.17319300  0.20958400  1
  H  1352  1  0.63720700  0.20462900  0.28126800  1
  H  1353  1  0.63125850  0.28706250  0.12578950  1
  H  1354  1  0.66743900  0.30715000  0.16186400  1
  H  1356  1  0.29011000  0.42990550  0.34628250  1
  H  1358  1  0.77431800  0.04003400  0.30311700  1
  H  1360  1  0.80503700  0.30259700  0.99174500  1
  H  1613  1  0.11855650  0.58859700  0.37147000  1
  H  1614  1  0.08089300  0.55650100  0.42016200  1
  H  1615  1  0.05915300  0.48340550  0.53671950  1
  H  1616  1  0.08023250  0.45128050  0.58540050  1
  H  1617  1  0.18667300  0.47816650  0.53685650  1
  H  1618  1  0.20334300  0.56169050  0.42001550  1
  H  1619  1  0.20052250  0.46152300  0.43667800  1
  H  1620  1  0.33385500  0.41296950  0.40977650  1
  H  1621  1  0.32282250  0.46165050  0.44189050  1
  H  1622  1  0.10035300  0.57835800  0.52021300  1
  H  1623  1  0.22801050  0.57820500  0.51498800  1
  H  1624  1  0.15825300  0.62688800  0.54711100  1
  H  1627  1  0.06149650  0.54052400  0.49205500  1
  H  1628  1  0.09566300  0.49939250  0.46483550  1
  H  1630  1  0.26337800  0.50632000  0.49900400  1
  H  1631  1  0.27033200  0.53353900  0.45787300  1
  H  1633  1  0.05431550  0.63471600  0.55412100  1
  H  1634  1  0.07921350  0.66353800  0.54696700  1
  H  1636  1  0.24473750  0.40515950  0.40277650  1
  H  1637  1  0.29130200  0.37633050  0.40993150  1
  H  1639  1  0.12263900  0.45141850  0.62204250  1
  H  1640  1  0.17636050  0.44425250  0.59321250  1
  H  1642  1  0.21550300  0.59557400  0.36364100  1
  H  1643  1  0.19777200  0.58840000  0.33482100  1
  N  52  1  0.72885000  0.64088750  0.36235450  1
  N  54  1  0.62174350  0.71991650  0.99552650  1
  N  56  1  0.33593650  0.00571300  0.28087400  1
  N  109  1  0.73372900  0.39895300  0.59446300  1
  N  111  1  0.33876300  0.32003750  0.96138250  1
  N  113  1  0.62430650  0.03415450  0.67584950  1
  N  166  1  0.63277100  0.63596000  0.59943100  1
  N  168  1  0.66088050  0.00284900  0.67834200  1
  N  170  1  0.66078200  0.71748550  0.96421550  1
  N  223  1  0.86975100  0.40390450  0.35746350  1
  N  225  1  0.34369650  0.03701450  0.27840850  1
  N  227  1  0.34407050  0.32249550  0.99267750  1
  N  618  1  0.44457825  0.64088750  0.36235450  1
  N  620  1  0.33747150  0.71991650  0.99552650  1
  N  622  1  0.05166450  0.00571300  0.28087400  1
  N  675  1  0.44945725  0.39895300  0.59446300  1
  N  677  1  0.05449100  0.32003750  0.96138250  1
  N  679  1  0.34003450  0.03415450  0.67584950  1
  N  732  1  0.34849925  0.63596000  0.59943100  1
  N  734  1  0.37660850  0.00284900  0.67834200  1
  N  736  1  0.37651000  0.71748550  0.96421550  1
  N  789  1  0.58547925  0.40390450  0.35746350  1
  N  791  1  0.05942450  0.03701450  0.27840850  1
  N  793  1  0.05979850  0.32249550  0.99267750  1
  N  1184  1  0.16030700  0.64088750  0.36235450  1
  N  1186  1  0.05320050  0.71991650  0.99552650  1
  N  1188  1  0.76739350  0.00571300  0.28087400  1
  N  1241  1  0.16518600  0.39895300  0.59446300  1
  N  1243  1  0.77022000  0.32003750  0.96138250  1
  N  1245  1  0.05576350  0.03415450  0.67584950  1
  N  1298  1  0.06422800  0.63596000  0.59943100  1
  N  1300  1  0.09233750  0.00284900  0.67834200  1
  N  1302  1  0.09223900  0.71748550  0.96421550  1
  N  1355  1  0.30120800  0.40390450  0.35746350  1
  N  1357  1  0.77515350  0.03701450  0.27840850  1
  N  1359  1  0.77552750  0.32249550  0.99267750  1
