# generated using pymatgen
data_H14C18N7
_symmetry_space_group_name_H-M   'P 1'
_cell_length_a   28.66640000
_cell_length_b   77.92330000
_cell_length_c   77.92330000
_cell_angle_alpha   90.00000000
_cell_angle_beta   90.00000000
_cell_angle_gamma   90.00000000
_symmetry_Int_Tables_number   1
_chemical_formula_structural   H14C18N7
_chemical_formula_sum   'H448 C576 N224'
_cell_volume   174063.54703200
_cell_formula_units_Z   32
loop_
 _symmetry_equiv_pos_site_id
 _symmetry_equiv_pos_as_xyz
  1  'x, y, z'
loop_
 _atom_site_type_symbol
 _atom_site_label
 _atom_site_symmetry_multiplicity
 _atom_site_fract_x
 _atom_site_fract_y
 _atom_site_fract_z
 _atom_site_occupancy
  H  7  1  0.30859300  0.06415700  0.00855500  1
  H  8  1  0.40210900  0.09171800  0.97805300  1
  H  15  1  0.12856900  0.07816000  0.03484600  1
  H  16  1  0.24432700  0.10716700  0.02005800  1
  H  19  1  0.22227300  0.11020200  0.98576500  1
  H  20  1  0.25949200  0.12181200  0.97477600  1
  H  21  1  0.19909200  0.04710900  0.98984700  1
  H  22  1  0.24233300  0.05921100  0.98325500  1
  H  24  1  0.12992200  0.11062900  0.03826200  1
  H  25  1  0.16866700  0.10238100  0.05390200  1
  H  27  1  0.16288600  0.03946400  0.01628500  1
  H  28  1  0.11822200  0.05012400  0.02715200  1
  H  30  1  0.38782000  0.11866000  0.96787600  1
  H  31  1  0.33989600  0.12989700  0.97594100  1
  H  33  1  0.40860100  0.05883000  0.98280600  1
  H  34  1  0.42820600  0.06951200  0.00150800  1
  H  41  1  0.80859900  0.43679300  0.99239100  1
  H  42  1  0.90212700  0.40923300  0.02288800  1
  H  49  1  0.62853500  0.42278600  0.96612500  1
  H  50  1  0.74432200  0.39378500  0.98089500  1
  H  53  1  0.72230000  0.39071600  0.01514900  1
  H  54  1  0.75953100  0.37910100  0.02612400  1
  H  55  1  0.69902500  0.45381500  0.01113300  1
  H  56  1  0.74231300  0.44172900  0.01771300  1
  H  58  1  0.62989500  0.39031400  0.96270900  1
  H  59  1  0.66862000  0.39856900  0.94706400  1
  H  61  1  0.66288800  0.46148600  0.98468500  1
  H  62  1  0.61823700  0.45083000  0.97380600  1
  H  64  1  0.88783200  0.38230300  0.03308700  1
  H  65  1  0.83993900  0.37105600  0.02500700  1
  H  67  1  0.90862300  0.44211800  0.01813000  1
  H  68  1  0.92821700  0.43143600  0.99942600  1
  H  75  1  0.55845900  0.24240500  0.81410700  1
  H  76  1  0.65204300  0.27290000  0.84164500  1
  H  83  1  0.37845800  0.21613400  0.82812400  1
  H  84  1  0.49421700  0.23092600  0.85713000  1
  H  87  1  0.47223300  0.26519500  0.86017500  1
  H  88  1  0.50947200  0.27617000  0.87178900  1
  H  89  1  0.44883300  0.26117300  0.79711600  1
  H  90  1  0.49211000  0.26775400  0.80921200  1
  H  92  1  0.37980100  0.21273200  0.86060000  1
  H  93  1  0.41853200  0.19708600  0.85235300  1
  H  95  1  0.41283600  0.23470100  0.78942000  1
  H  96  1  0.36823300  0.22378700  0.80006500  1
  H  98  1  0.63780000  0.28308600  0.86858700  1
  H  99  1  0.58990400  0.27501400  0.87983700  1
  H  101  1  0.65845500  0.26812300  0.80873700  1
  H  102  1  0.67810800  0.24944800  0.81945400  1
  H  109  1  0.05844900  0.25855400  0.18684400  1
  H  110  1  0.15202700  0.22804700  0.15931600  1
  H  117  1  0.87846500  0.28482900  0.17282900  1
  H  118  1  0.99422800  0.27003300  0.14382600  1
  H  121  1  0.97221300  0.23573900  0.14079100  1
  H  122  1  0.00945700  0.22474900  0.12919200  1
  H  123  1  0.94896200  0.23982700  0.20388400  1
  H  124  1  0.99221200  0.23323600  0.19178600  1
  H  126  1  0.87982600  0.28823600  0.14035300  1
  H  127  1  0.91855400  0.30387800  0.14860600  1
  H  129  1  0.91280200  0.26627200  0.21152800  1
  H  130  1  0.86816000  0.27715300  0.20087200  1
  H  132  1  0.13779500  0.21787100  0.13237000  1
  H  133  1  0.08988100  0.22593200  0.12112300  1
  H  135  1  0.15842900  0.23282900  0.19222500  1
  H  136  1  0.17809800  0.25150100  0.18150300  1
  H  143  1  0.69307000  0.93672200  0.99280800  1
  H  144  1  0.59835600  0.90918200  0.02283800  1
  H  151  1  0.87421300  0.92258900  0.96751500  1
  H  152  1  0.75692900  0.89384800  0.98116800  1
  H  155  1  0.77813900  0.89038200  0.01564400  1
  H  156  1  0.74049500  0.87879600  0.02646200  1
  H  157  1  0.80271800  0.95321400  0.01260600  1
  H  158  1  0.75866600  0.94124100  0.01868900  1
  H  160  1  0.87198000  0.89023500  0.96348300  1
  H  161  1  0.83392200  0.89884100  0.94780900  1
  H  163  1  0.84039300  0.96112600  0.98659200  1
  H  164  1  0.88497500  0.95046100  0.97570300  1
  H  166  1  0.61217100  0.88227500  0.03318200  1
  H  167  1  0.65998300  0.87092800  0.02516200  1
  H  169  1  0.59240500  0.94212200  0.01810800  1
  H  170  1  0.57307200  0.93141400  0.99938200  1
  H  177  1  0.19305700  0.56423000  0.00814900  1
  H  178  1  0.09833500  0.59177700  0.97812800  1
  H  185  1  0.37424400  0.57836700  0.03341700  1
  H  186  1  0.25692600  0.60710200  0.01978800  1
  H  189  1  0.27811100  0.61060300  0.98534800  1
  H  190  1  0.24046000  0.62219400  0.97454600  1
  H  191  1  0.30278200  0.54776900  0.98831500  1
  H  192  1  0.25868100  0.55972700  0.98224600  1
  H  194  1  0.37200000  0.61072000  0.03745600  1
  H  195  1  0.33396200  0.60210900  0.05313300  1
  H  197  1  0.34040300  0.53982900  0.01433600  1
  H  198  1  0.38497000  0.55048900  0.02523700  1
  H  200  1  0.11216400  0.61867400  0.96776400  1
  H  201  1  0.15994600  0.63002700  0.97579800  1
  H  203  1  0.09237200  0.55884000  0.98285700  1
  H  204  1  0.07305500  0.56954500  0.00158600  1
  H  211  1  0.44210700  0.75815800  0.18679800  1
  H  212  1  0.34878500  0.72755000  0.15926400  1
  H  219  1  0.62195900  0.78457000  0.17281200  1
  H  220  1  0.50631500  0.76965500  0.14380700  1
  H  223  1  0.52858500  0.73540900  0.14077200  1
  H  224  1  0.49144000  0.72439900  0.12915100  1
  H  225  1  0.55185200  0.73948300  0.20384300  1
  H  226  1  0.50863100  0.73285800  0.19174400  1
  H  228  1  0.62058500  0.78796800  0.14033900  1
  H  229  1  0.58171300  0.80357300  0.14857700  1
  H  231  1  0.58774100  0.76598500  0.21151900  1
  H  232  1  0.63230200  0.77691400  0.20086300  1
  H  234  1  0.36319600  0.71726900  0.13237900  1
  H  235  1  0.41092100  0.72545500  0.12110800  1
  H  237  1  0.34220400  0.73239800  0.19216100  1
  H  238  1  0.32251300  0.75104000  0.18139400  1
  H  245  1  0.94212900  0.74278800  0.81415700  1
  H  246  1  0.84880700  0.77340800  0.84167900  1
  H  253  1  0.12195500  0.71637100  0.82814000  1
  H  254  1  0.00631400  0.73129200  0.85714400  1
  H  257  1  0.02861400  0.76556200  0.86016600  1
  H  258  1  0.99146500  0.77658700  0.87177200  1
  H  259  1  0.05172600  0.76141600  0.79706000  1
  H  260  1  0.00853500  0.76805600  0.80916100  1
  H  262  1  0.12056800  0.71296900  0.86061300  1
  H  263  1  0.08169600  0.69736800  0.85237000  1
  H  265  1  0.08776800  0.73493900  0.78943600  1
  H  266  1  0.13236900  0.72404400  0.80010300  1
  H  268  1  0.86320700  0.78367800  0.86856900  1
  H  269  1  0.91094900  0.77550200  0.87983700  1
  H  271  1  0.84223800  0.76855600  0.80878200  1
  H  272  1  0.82253200  0.74991700  0.81955200  1
  H  279  1  0.80870400  0.56416400  0.50815200  1
  H  280  1  0.90207800  0.59165600  0.47753000  1
  H  287  1  0.62895000  0.57815000  0.53457800  1
  H  288  1  0.74456600  0.60715500  0.51963600  1
  H  291  1  0.72230000  0.61018400  0.48536700  1
  H  292  1  0.75946900  0.62178300  0.47434200  1
  H  293  1  0.69911200  0.54707500  0.48951700  1
  H  294  1  0.74229500  0.55917500  0.48287100  1
  H  296  1  0.63033800  0.61062200  0.53798300  1
  H  297  1  0.66923700  0.60238100  0.55357400  1
  H  299  1  0.66312600  0.53944700  0.51599800  1
  H  300  1  0.61855800  0.55011000  0.52691400  1
  H  302  1  0.88772000  0.61854700  0.46724700  1
  H  303  1  0.84000200  0.62982700  0.47542600  1
  H  305  1  0.90857000  0.55874300  0.48240800  1
  H  306  1  0.92833200  0.56954600  0.50101900  1
  H  313  1  0.30871900  0.93678900  0.49279500  1
  H  314  1  0.40209800  0.90929100  0.52341100  1
  H  321  1  0.12892100  0.92279800  0.46639200  1
  H  322  1  0.24456600  0.89379800  0.48131700  1
  H  325  1  0.22232500  0.89073600  0.51554700  1
  H  326  1  0.25950300  0.87913200  0.52655700  1
  H  327  1  0.19904900  0.95385200  0.51146200  1
  H  328  1  0.24228000  0.94176600  0.51809800  1
  H  330  1  0.13031500  0.89032500  0.46298600  1
  H  331  1  0.16919700  0.89857200  0.44739100  1
  H  333  1  0.16313100  0.96150400  0.48497000  1
  H  334  1  0.11857600  0.95084600  0.47404300  1
  H  336  1  0.38772600  0.88241400  0.53371400  1
  H  337  1  0.34003800  0.87112600  0.52552200  1
  H  339  1  0.40860400  0.94220100  0.51853000  1
  H  340  1  0.42834500  0.93140000  0.49991600  1
  H  347  1  0.05776800  0.74281500  0.31423700  1
  H  348  1  0.15253600  0.77284900  0.34174700  1
  H  355  1  0.87664400  0.71754500  0.32838100  1
  H  356  1  0.99393500  0.73119600  0.35711900  1
  H  359  1  0.97278500  0.76565100  0.36059800  1
  H  360  1  0.01044300  0.77646100  0.37218300  1
  H  361  1  0.94799300  0.76267900  0.29780400  1
  H  362  1  0.99208300  0.76874900  0.30977200  1
  H  364  1  0.87887700  0.71351900  0.36073900  1
  H  365  1  0.91691400  0.69784100  0.35212700  1
  H  367  1  0.91050600  0.73663300  0.28983700  1
  H  368  1  0.86598400  0.72569900  0.30048800  1
  H  370  1  0.13875500  0.78321200  0.36865000  1
  H  371  1  0.09098100  0.77518400  0.38001200  1
  H  373  1  0.15840200  0.76808700  0.30878700  1
  H  374  1  0.17780500  0.74939600  0.31953700  1
  H  381  1  0.55775800  0.75814400  0.68671500  1
  H  382  1  0.65251400  0.72809900  0.65921000  1
  H  389  1  0.37665400  0.78342100  0.67257500  1
  H  390  1  0.49394500  0.76976600  0.64383800  1
  H  393  1  0.47276000  0.73528700  0.64036900  1
  H  394  1  0.51041700  0.72446300  0.62879600  1
  H  395  1  0.44812100  0.73832500  0.70319900  1
  H  396  1  0.49218000  0.73224300  0.69123000  1
  H  398  1  0.37890400  0.78745200  0.64021800  1
  H  399  1  0.41694200  0.80312700  0.64883500  1
  H  401  1  0.41047800  0.76434400  0.71111300  1
  H  402  1  0.36591700  0.77524400  0.70045100  1
  H  404  1  0.63873800  0.71774800  0.63230200  1
  H  405  1  0.59094700  0.72576600  0.62094400  1
  H  407  1  0.65838100  0.73286100  0.69216900  1
  H  408  1  0.67779100  0.75155200  0.68142000  1
  H  415  1  0.19296100  0.43671600  0.49320800  1
  H  416  1  0.09838600  0.40924300  0.52335900  1
  H  423  1  0.37384200  0.42260100  0.46778000  1
  H  424  1  0.25669300  0.39386200  0.48159000  1
  H  427  1  0.27811600  0.39040200  0.51604400  1
  H  428  1  0.24052400  0.37882900  0.52689700  1
  H  429  1  0.30270700  0.45325100  0.51293500  1
  H  430  1  0.25870900  0.44127700  0.51907300  1
  H  432  1  0.37157100  0.39024800  0.46376000  1
  H  433  1  0.33333333  0.39884600  0.44813400  1
  H  435  1  0.34016900  0.46114700  0.48687600  1
  H  436  1  0.38465600  0.45047900  0.47593800  1
  H  438  1  0.11227700  0.38238900  0.53381200  1
  H  439  1  0.15988400  0.37100100  0.52568100  1
  H  441  1  0.09242900  0.44220700  0.51850100  1
  H  442  1  0.07294900  0.43137900  0.49986400  1
  H  449  1  0.69295200  0.06423500  0.50775300  1
  H  450  1  0.59836000  0.09170800  0.47760800  1
  H  457  1  0.87387800  0.07835700  0.53315000  1
  H  458  1  0.75668800  0.10708900  0.51936600  1
  H  461  1  0.77807900  0.11058200  0.48494600  1
  H  462  1  0.74047400  0.12215900  0.47410700  1
  H  463  1  0.80277400  0.04773200  0.48798600  1
  H  464  1  0.75872600  0.05968900  0.48186100  1
  H  466  1  0.87159300  0.11071100  0.53717700  1
  H  467  1  0.83339500  0.10210600  0.55280600  1
  H  469  1  0.84018300  0.03981000  0.51405100  1
  H  470  1  0.88465700  0.05047400  0.52499900  1
  H  472  1  0.61225800  0.11855200  0.46713500  1
  H  473  1  0.65983300  0.12995000  0.47527900  1
  H  475  1  0.59240200  0.05874700  0.48247000  1
  H  476  1  0.57293300  0.06957600  0.50110700  1
  H  483  1  0.94281900  0.25774700  0.68667000  1
  H  484  1  0.84828700  0.22760600  0.65916500  1
  H  491  1  0.12378600  0.28316000  0.67255700  1
  H  492  1  0.00659700  0.26938800  0.64381900  1
  H  495  1  0.02802700  0.23495400  0.64034400  1
  H  496  1  0.99045700  0.22411300  0.62875100  1
  H  497  1  0.05272700  0.23796700  0.70314600  1
  H  498  1  0.00868500  0.23185400  0.69117700  1
  H  500  1  0.12151300  0.28718900  0.64020400  1
  H  501  1  0.08332900  0.30282300  0.64880700  1
  H  503  1  0.09009500  0.26404200  0.71109900  1
  H  504  1  0.13456300  0.27500000  0.70044100  1
  H  506  1  0.86222700  0.21714800  0.63231800  1
  H  507  1  0.90982600  0.22528900  0.62093200  1
  H  509  1  0.84224900  0.23243600  0.69210900  1
  H  510  1  0.82283900  0.25110300  0.68132000  1
  H  517  1  0.44282900  0.24319800  0.31428300  1
  H  518  1  0.34831200  0.27334900  0.34178300  1
  H  525  1  0.62376900  0.21777200  0.32839300  1
  H  526  1  0.50659000  0.23155700  0.35713200  1
  H  529  1  0.52805800  0.26601200  0.36059300  1
  H  530  1  0.49048800  0.27686800  0.37217400  1
  H  531  1  0.55259200  0.26292400  0.29775200  1
  H  532  1  0.50858600  0.26905300  0.30972400  1
  H  534  1  0.62148800  0.21374500  0.36074700  1
  H  535  1  0.58330000  0.19811300  0.35214000  1
  H  537  1  0.59010300  0.23687100  0.28985300  1
  H  538  1  0.63461500  0.22594800  0.30052400  1
  H  540  1  0.36224700  0.28379700  0.36863500  1
  H  541  1  0.40986700  0.27566600  0.38001600  1
  H  543  1  0.34227300  0.26852000  0.30884100  1
  H  544  1  0.32285300  0.24985200  0.31963000  1
  H  551  1  0.97111000  0.95448700  0.98374400  1
  H  555  1  0.88975700  0.97938600  0.02130200  1
  H  560  1  0.11384700  0.02059800  0.98197400  1
  H  562  1  0.03163000  0.04519700  0.01948100  1
  H  564  1  0.09078400  0.06025200  0.99831600  1
  H  566  1  0.91105000  0.93964800  0.00452200  1
  H  573  1  0.47111700  0.54646900  0.01720500  1
  H  577  1  0.38979100  0.52158100  0.97963200  1
  H  582  1  0.61381700  0.48034800  0.01898800  1
  H  584  1  0.53163000  0.45576100  0.98146400  1
  H  586  1  0.59075200  0.44069700  0.00263500  1
  H  588  1  0.41107800  0.56131500  0.99642600  1
  H  595  1  0.22081000  0.26705900  0.70444800  1
  H  599  1  0.13976200  0.22941000  0.72934500  1
  H  604  1  0.36354100  0.26897200  0.77055900  1
  H  606  1  0.28160100  0.23138000  0.79515500  1
  H  608  1  0.34060900  0.25260000  0.81020900  1
  H  610  1  0.16092300  0.24622200  0.68960500  1
  H  617  1  0.72082700  0.23392400  0.29651600  1
  H  621  1  0.63967300  0.27150800  0.27156700  1
  H  626  1  0.86361200  0.23199700  0.23042000  1
  H  628  1  0.78156100  0.26952100  0.20577200  1
  H  630  1  0.84066100  0.24831600  0.19074600  1
  H  632  1  0.66086200  0.25475300  0.31132700  1
  H  639  1  0.02586400  0.54661200  0.01791300  1
  H  643  1  0.12648000  0.51723000  0.99159100  1
  H  648  1  0.87471900  0.48359600  0.00950400  1
  H  650  1  0.97600800  0.45455500  0.98315100  1
  H  652  1  0.88249400  0.45019800  0.98229100  1
  H  654  1  0.11921200  0.55087100  0.01865000  1
  H  661  1  0.52588800  0.95433800  0.98304500  1
  H  665  1  0.62648700  0.98372600  0.00936500  1
  H  670  1  0.37472100  0.01734900  0.99143700  1
  H  672  1  0.47599700  0.04639900  0.01778600  1
  H  674  1  0.38248300  0.05075000  0.01864500  1
  H  676  1  0.61923500  0.95008000  0.98231100  1
  H  683  1  0.77557500  0.26753500  0.70418800  1
  H  687  1  0.87626800  0.24136200  0.73366700  1
  H  692  1  0.62451900  0.25935200  0.76726700  1
  H  694  1  0.72588600  0.23312900  0.79638800  1
  H  696  1  0.63236800  0.23225900  0.80074700  1
  H  698  1  0.86889700  0.26828700  0.69991800  1
  H  705  1  0.27558400  0.23342400  0.29676400  1
  H  709  1  0.37627700  0.25958900  0.26727800  1
  H  714  1  0.12451300  0.24160700  0.23369100  1
  H  716  1  0.22587600  0.26782500  0.20456400  1
  H  718  1  0.13235800  0.26869700  0.20020600  1
  H  720  1  0.36890600  0.23266800  0.30103100  1
  H  727  1  0.77979900  0.73367600  0.29649500  1
  H  731  1  0.86090100  0.77129900  0.27158200  1
  H  736  1  0.63706700  0.73175500  0.23039100  1
  H  738  1  0.71900700  0.76933800  0.20578000  1
  H  740  1  0.66002500  0.74811200  0.19073000  1
  H  742  1  0.83975100  0.75449900  0.31132400  1
  H  749  1  0.27976500  0.76723000  0.70443500  1
  H  753  1  0.36098400  0.72967800  0.72940000  1
  H  758  1  0.13699300  0.76917000  0.77052700  1
  H  760  1  0.21904200  0.73165500  0.79518900  1
  H  762  1  0.15997500  0.75287000  0.81020900  1
  H  764  1  0.33980900  0.74642100  0.68963600  1
  H  771  1  0.22499400  0.73302100  0.29666900  1
  H  775  1  0.12426500  0.75918500  0.26719900  1
  H  780  1  0.37603300  0.74123000  0.23359600  1
  H  782  1  0.27461400  0.76739900  0.20445200  1
  H  784  1  0.36810700  0.76829600  0.20008600  1
  H  786  1  0.13163800  0.73225800  0.30093600  1
  H  793  1  0.72498600  0.76792500  0.70428500  1
  H  797  1  0.62425800  0.74176800  0.73376200  1
  H  802  1  0.87604400  0.75971600  0.76734900  1
  H  804  1  0.77463300  0.73355200  0.79650100  1
  H  806  1  0.86812600  0.73265400  0.80086500  1
  H  808  1  0.63162500  0.76869000  0.70002400  1
  H  815  1  0.47089000  0.45445700  0.48388000  1
  H  819  1  0.38989600  0.47946000  0.52147400  1
  H  824  1  0.61373000  0.52052800  0.48180100  1
  H  826  1  0.53186700  0.54523000  0.51934600  1
  H  828  1  0.59088100  0.56022400  0.49809300  1
  H  830  1  0.41096600  0.43968000  0.50474500  1
  H  837  1  0.97090100  0.04650100  0.51706900  1
  H  841  1  0.88993500  0.02150800  0.47946000  1
  H  846  1  0.11370300  0.98041900  0.51916000  1
  H  848  1  0.03187200  0.95572900  0.48159900  1
  H  850  1  0.09085100  0.94072700  0.50285600  1
  H  852  1  0.91099500  0.06128600  0.49620200  1
  H  859  1  0.52566800  0.04675900  0.51757200  1
  H  863  1  0.62647600  0.01720200  0.49154700  1
  H  868  1  0.37472800  0.98362600  0.50956800  1
  H  870  1  0.47622400  0.95441100  0.48351600  1
  H  872  1  0.38272700  0.95003900  0.48261000  1
  H  874  1  0.61900100  0.05103700  0.51834900  1
  H  881  1  0.02568300  0.45419000  0.48339800  1
  H  885  1  0.12648200  0.48375800  0.50941500  1
  H  890  1  0.87472200  0.51732000  0.49138000  1
  H  892  1  0.97620700  0.54654400  0.51742800  1
  H  894  1  0.88271100  0.55091300  0.51833300  1
  H  896  1  0.11901700  0.44991800  0.48262200  1
  H  903  1  0.41152400  0.12016700  0.93568600  1
  H  907  1  0.28422600  0.14648500  0.94200400  1
  H  912  1  0.48616600  0.18156800  0.88463800  1
  H  914  1  0.35935200  0.20799900  0.89182300  1
  H  916  1  0.43979800  0.22130700  0.88063500  1
  H  918  1  0.33266700  0.10652000  0.94588100  1
  H  925  1  0.91147600  0.38080400  0.06527700  1
  H  929  1  0.78423300  0.35445600  0.05893300  1
  H  934  1  0.98616300  0.31941300  0.11633000  1
  H  936  1  0.85940100  0.29295700  0.10912600  1
  H  938  1  0.93984700  0.27966500  0.12032300  1
  H  940  1  0.83261000  0.39443300  0.05506500  1
  H  947  1  0.66149300  0.31527300  0.87010900  1
  H  951  1  0.53423900  0.30893700  0.89645000  1
  H  956  1  0.73622200  0.36629000  0.93152300  1
  H  958  1  0.60945000  0.35909000  0.95797500  1
  H  960  1  0.68990300  0.37027800  0.97127300  1
  H  962  1  0.58261700  0.30508300  0.85647300  1
  H  969  1  0.16152900  0.18568500  0.13084400  1
  H  973  1  0.03424600  0.19199900  0.10451800  1
  H  978  1  0.23625700  0.13466800  0.06943000  1
  H  980  1  0.10945900  0.14185000  0.04299000  1
  H  982  1  0.18991300  0.13066800  0.02968600  1
  H  984  1  0.08265500  0.19586300  0.14448900  1
  H  991  1  0.58824700  0.88053700  0.06534300  1
  H  995  1  0.71579400  0.85436900  0.05907800  1
  H  1000  1  0.51393700  0.81899100  0.11629000  1
  H  1002  1  0.64100200  0.79271800  0.10912800  1
  H  1004  1  0.56067800  0.77931100  0.12030600  1
  H  1006  1  0.66710600  0.89428400  0.05525500  1
  H  1013  1  0.08829300  0.62040200  0.93560300  1
  H  1017  1  0.21579200  0.64659700  0.94189100  1
  H  1022  1  0.01394000  0.68193700  0.88465200  1
  H  1024  1  0.14096500  0.70823300  0.89182900  1
  H  1026  1  0.06064100  0.72162600  0.88064300  1
  H  1028  1  0.16716100  0.60667200  0.94570800  1
  H  1035  1  0.34015300  0.68494800  0.13089100  1
  H  1039  1  0.46693800  0.69180400  0.10437600  1
  H  1044  1  0.26573800  0.63408400  0.06929400  1
  H  1046  1  0.39194700  0.64186600  0.04264300  1
  H  1048  1  0.31129100  0.63067100  0.02942100  1
  H  1050  1  0.41878700  0.69539300  0.14445400  1
  H  1057  1  0.84012400  0.81600000  0.87006000  1
  H  1061  1  0.96693800  0.80916500  0.89656200  1
  H  1066  1  0.76570600  0.86685900  0.93166100  1
  H  1068  1  0.89194100  0.85909500  0.95830100  1
  H  1070  1  0.81128500  0.87028200  0.97152900  1
  H  1072  1  0.91875600  0.80556800  0.85648900  1
  H  1079  1  0.91079200  0.62005800  0.43492600  1
  H  1083  1  0.78397500  0.64655500  0.44178000  1
  H  1088  1  0.98517900  0.68168400  0.38409300  1
  H  1090  1  0.85894100  0.70831800  0.39187900  1
  H  1092  1  0.93958900  0.72155400  0.38068800  1
  H  1094  1  0.83216400  0.60648100  0.44536000  1
  H  1101  1  0.41074300  0.88091100  0.56603500  1
  H  1105  1  0.28397900  0.85438600  0.55915900  1
  H  1110  1  0.48517500  0.81929600  0.61687400  1
  H  1112  1  0.35898500  0.79263900  0.60907300  1
  H  1114  1  0.43963000  0.77941900  0.62027100  1
  H  1116  1  0.33210400  0.89446900  0.55558500  1
  H  1123  1  0.16263900  0.81537600  0.37039600  1
  H  1127  1  0.03513100  0.80907700  0.39658200  1
  H  1132  1  0.23696800  0.86630200  0.43195700  1
  H  1134  1  0.10993700  0.85910700  0.45824400  1
  H  1136  1  0.19024200  0.87029500  0.47164400  1
  H  1138  1  0.08378000  0.80527500  0.35665700  1
  H  1145  1  0.66266200  0.68558400  0.63055600  1
  H  1149  1  0.53512900  0.69186100  0.60438100  1
  H  1154  1  0.73699600  0.63466000  0.56899500  1
  H  1156  1  0.60994100  0.64183600  0.54271700  1
  H  1158  1  0.69024800  0.63065300  0.52931100  1
  H  1160  1  0.58380300  0.69567400  0.64430100  1
  H  1167  1  0.08897300  0.38064900  0.56610500  1
  H  1171  1  0.21605000  0.35430500  0.55930800  1
  H  1176  1  0.01492000  0.31887900  0.61683600  1
  H  1178  1  0.14141900  0.29240400  0.60907600  1
  H  1180  1  0.06089200  0.27906800  0.62025300  1
  H  1182  1  0.16760700  0.39432700  0.55577700  1
  H  1189  1  0.58900400  0.12028700  0.43484300  1
  H  1193  1  0.71603800  0.14665600  0.44166100  1
  H  1198  1  0.51491700  0.18204800  0.38410600  1
  H  1200  1  0.64137900  0.20854200  0.39188100  1
  H  1202  1  0.56085600  0.22186600  0.38069500  1
  H  1204  1  0.66764700  0.10662400  0.44518400  1
  H  1211  1  0.83898300  0.18485000  0.63060200  1
  H  1215  1  0.96603800  0.19166500  0.60424500  1
  H  1220  1  0.76498700  0.13407500  0.56885700  1
  H  1222  1  0.89146700  0.14184800  0.54237500  1
  H  1224  1  0.81096100  0.13065700  0.52904600  1
  H  1226  1  0.91760900  0.19520200  0.64426900  1
  H  1233  1  0.33896500  0.31609400  0.37035300  1
  H  1237  1  0.46604500  0.30930100  0.39669500  1
  H  1242  1  0.26496100  0.36686700  0.43209800  1
  H  1244  1  0.39146900  0.35911300  0.45856900  1
  H  1246  1  0.31096000  0.37030000  0.47190400  1
  H  1248  1  0.41758700  0.30575400  0.35667800  1
  C  1  1  0.27971300  0.08644700  0.99733200  1
  C  2  1  0.31549100  0.07436400  0.00069300  1
  C  3  1  0.36025200  0.07588500  0.99338400  1
  C  4  1  0.36942600  0.09043700  0.98322200  1
  C  5  1  0.33520200  0.10304900  0.97974400  1
  C  6  1  0.28912700  0.10083700  0.98644300  1
  C  9  1  0.23628800  0.08401400  0.00618100  1
  C  10  1  0.20810400  0.06896800  0.00421200  1
  C  11  1  0.16912300  0.06652900  0.01539700  1
  C  12  1  0.15730900  0.07963600  0.02716600  1
  C  13  1  0.18322600  0.09491100  0.02863700  1
  C  14  1  0.22363300  0.09658100  0.01847600  1
  C  23  1  0.16671400  0.10811800  0.04110000  1
  C  26  1  0.13981800  0.05061300  0.01556600  1
  C  29  1  0.34979000  0.11817800  0.96914400  1
  C  32  1  0.39828600  0.06300900  0.99568000  1
  C  35  1  0.77971500  0.41451000  0.00362500  1
  C  36  1  0.81550300  0.42658500  0.00025000  1
  C  37  1  0.86026600  0.42506400  0.00755500  1
  C  38  1  0.86944400  0.41051300  0.01772000  1
  C  39  1  0.83521600  0.39790400  0.02120300  1
  C  40  1  0.78914100  0.40011500  0.01450600  1
  C  43  1  0.73630600  0.41694200  0.99476500  1
  C  44  1  0.70810500  0.43198200  0.99674700  1
  C  45  1  0.66911200  0.43441900  0.98556800  1
  C  46  1  0.65729300  0.42131200  0.97379800  1
  C  47  1  0.68320100  0.40603500  0.97232900  1
  C  48  1  0.72362900  0.40436900  0.98248000  1
  C  57  1  0.66666667  0.39283000  0.95986700  1
  C  60  1  0.63981300  0.45033800  0.98539600  1
  C  63  1  0.84980400  0.38277600  0.03180800  1
  C  66  1  0.89830400  0.43793800  0.00525600  1
  C  69  1  0.52961400  0.25364600  0.83639400  1
  C  70  1  0.56538000  0.25026500  0.82431300  1
  C  71  1  0.61015100  0.25756900  0.82582500  1
  C  72  1  0.61935300  0.26773800  0.84037100  1
  C  73  1  0.58514900  0.27121900  0.85298900  1
  C  74  1  0.53906400  0.26452700  0.85078500  1
  C  77  1  0.48619700  0.24478700  0.83396900  1
  C  78  1  0.45800000  0.24676300  0.81892600  1
  C  79  1  0.41902800  0.23557500  0.81648700  1
  C  80  1  0.40720200  0.22381200  0.82959900  1
  C  81  1  0.43310700  0.22234800  0.84487700  1
  C  82  1  0.47352400  0.23250500  0.84654400  1
  C  91  1  0.41658900  0.20989100  0.85808700  1
  C  94  1  0.38975000  0.23539200  0.80056500  1
  C  97  1  0.59976900  0.28181700  0.86811600  1
  C  100  1  0.64817100  0.25525500  0.81294700  1
  C  103  1  0.02961100  0.24731500  0.16455500  1
  C  104  1  0.06537000  0.25069000  0.17664200  1
  C  105  1  0.11013800  0.24338400  0.17513200  1
  C  106  1  0.11933600  0.23321000  0.16059000  1
  C  107  1  0.08513600  0.22972800  0.14797000  1
  C  108  1  0.03905400  0.23642300  0.15016900  1
  C  111  1  0.98617300  0.25616100  0.16698100  1
  C  112  1  0.95799000  0.25419300  0.18202600  1
  C  113  1  0.91901400  0.26537900  0.18446300  1
  C  114  1  0.90720300  0.27714700  0.17135300  1
  C  115  1  0.93312200  0.27861500  0.15607800  1
  C  116  1  0.97352800  0.26845200  0.15441100  1
  C  125  1  0.91661400  0.29107600  0.14287000  1
  C  128  1  0.88972600  0.26555800  0.20038300  1
  C  131  1  0.09976100  0.21913200  0.13284200  1
  C  134  1  0.14815400  0.24569700  0.18801200  1
  C  137  1  0.72132600  0.91433100  0.00404900  1
  C  138  1  0.68580400  0.92648500  0.00058700  1
  C  139  1  0.64079600  0.92498600  0.00769200  1
  C  140  1  0.63118900  0.91042800  0.01779300  1
  C  141  1  0.66518700  0.89776300  0.02137600  1
  C  142  1  0.71145100  0.89990900  0.01483600  1
  C  145  1  0.76508500  0.91675200  0.99543900  1
  C  146  1  0.79363800  0.93164000  0.99782300  1
  C  147  1  0.83320300  0.93407700  0.98692300  1
  C  148  1  0.84509200  0.92111600  0.97500000  1
  C  149  1  0.81874700  0.90598400  0.97312200  1
  C  150  1  0.77786600  0.90432400  0.98302500  1
  C  159  1  0.83534100  0.89291200  0.96053100  1
  C  162  1  0.86304300  0.94985600  0.98719700  1
  C  165  1  0.65021900  0.88266900  0.03194900  1
  C  168  1  0.60292600  0.93790300  0.00526900  1
  C  171  1  0.22132000  0.58661800  0.99690200  1
  C  172  1  0.18578600  0.57447000  0.00037400  1
  C  173  1  0.14077500  0.57597000  0.99327100  1
  C  174  1  0.13117000  0.59053100  0.98317200  1
  C  175  1  0.16517200  0.60319200  0.97958500  1
  C  176  1  0.21143700  0.60104300  0.98612300  1
  C  179  1  0.26506300  0.58419500  0.00552200  1
  C  180  1  0.29363300  0.56931400  0.00312100  1
  C  181  1  0.33321100  0.56687800  0.01401600  1
  C  182  1  0.34510500  0.57983700  0.02594100  1
  C  183  1  0.31876800  0.59497100  0.02782000  1
  C  184  1  0.27786600  0.59662800  0.01792800  1
  C  193  1  0.33536600  0.60804000  0.04041100  1
  C  196  1  0.36305300  0.55109900  0.01373900  1
  C  199  1  0.15020900  0.61828500  0.96900800  1
  C  202  1  0.10290500  0.56305600  0.99569500  1
  C  205  1  0.47108900  0.74690600  0.16454000  1
  C  206  1  0.43526300  0.75027600  0.17660100  1
  C  207  1  0.39053400  0.74294300  0.17507600  1
  C  208  1  0.38144400  0.73273700  0.16054600  1
  C  209  1  0.41571000  0.72926000  0.14794900  1
  C  210  1  0.46174000  0.73600400  0.15015500  1
  C  213  1  0.51443200  0.75580800  0.16697100  1
  C  214  1  0.54262900  0.75386700  0.18201700  1
  C  215  1  0.58152800  0.76509100  0.18445300  1
  C  216  1  0.59327000  0.77686200  0.17133900  1
  C  217  1  0.56735500  0.77829800  0.15606100  1
  C  218  1  0.52701800  0.76809900  0.15439400  1
  C  227  1  0.58377100  0.79076800  0.14284900  1
  C  230  1  0.61082000  0.76529800  0.20037100  1
  C  233  1  0.40120500  0.71862800  0.13283100  1
  C  236  1  0.35245100  0.74526200  0.18792800  1
  C  239  1  0.97109600  0.75403900  0.83641500  1
  C  240  1  0.93528100  0.75067400  0.82434900  1
  C  241  1  0.89055600  0.75801100  0.82587100  1
  C  242  1  0.88146900  0.76822100  0.84039700  1
  C  243  1  0.91573200  0.77169700  0.85299600  1
  C  244  1  0.96175800  0.76495100  0.85079400  1
  C  247  1  0.01446400  0.74514900  0.83398500  1
  C  248  1  0.04264400  0.74707900  0.81893500  1
  C  249  1  0.08154400  0.73585700  0.81650000  1
  C  250  1  0.09327400  0.72408100  0.82961300  1
  C  251  1  0.06734700  0.72264500  0.84489000  1
  C  252  1  0.02702100  0.73284900  0.84655800  1
  C  261  1  0.08375300  0.71017100  0.85810000  1
  C  264  1  0.11084300  0.73564800  0.80058300  1
  C  267  1  0.90122000  0.78232700  0.86811500  1
  C  270  1  0.85247700  0.75569200  0.81301700  1
  C  273  1  0.77976800  0.58642100  0.49689100  1
  C  274  1  0.81556900  0.57435200  0.50026400  1
  C  275  1  0.86030500  0.57586500  0.49293300  1
  C  276  1  0.86941600  0.59038400  0.48271700  1
  C  277  1  0.83517100  0.60298800  0.47923400  1
  C  278  1  0.78913800  0.60079600  0.48597800  1
  C  281  1  0.73640000  0.58399800  0.50577800  1
  C  282  1  0.70821300  0.56894800  0.50385300  1
  C  283  1  0.66933500  0.56651200  0.51508600  1
  C  284  1  0.65761800  0.57962500  0.52686200  1
  C  285  1  0.68354300  0.59490100  0.52829400  1
  C  286  1  0.72385500  0.59657000  0.51808100  1
  C  295  1  0.66715800  0.60811100  0.54077100  1
  C  298  1  0.64004300  0.55059400  0.51530100  1
  C  301  1  0.84970700  0.61810100  0.46860200  1
  C  304  1  0.89836300  0.56300700  0.49526600  1
  C  307  1  0.27977400  0.91453600  0.50406500  1
  C  308  1  0.31558400  0.92659800  0.50068100  1
  C  309  1  0.36032100  0.92508400  0.50800800  1
  C  310  1  0.36943300  0.91056400  0.51822500  1
  C  311  1  0.33518500  0.89796400  0.52171300  1
  C  312  1  0.28915000  0.90015700  0.51497000  1
  C  315  1  0.23642100  0.91695900  0.49516800  1
  C  316  1  0.20822000  0.93200500  0.49710500  1
  C  317  1  0.16932900  0.93443900  0.48587800  1
  C  318  1  0.15760600  0.92132600  0.47410100  1
  C  319  1  0.18352300  0.90604700  0.47267100  1
  C  320  1  0.22385400  0.90438300  0.48287300  1
  C  329  1  0.16713100  0.89283900  0.46019200  1
  C  332  1  0.14004500  0.95035900  0.48566100  1
  C  335  1  0.34971700  0.88285100  0.53234900  1
  C  338  1  0.39838700  0.93794000  0.50567300  1
  C  341  1  0.02954200  0.75407300  0.33662300  1
  C  342  1  0.06505700  0.75059300  0.32447200  1
  C  343  1  0.11007000  0.75769600  0.32595900  1
  C  344  1  0.11969500  0.76780700  0.34050900  1
  C  345  1  0.08571700  0.77139400  0.35317900  1
  C  346  1  0.03944900  0.76485600  0.35104500  1
  C  349  1  0.98579300  0.74545500  0.33420800  1
  C  350  1  0.95722700  0.74784900  0.31932500  1
  C  351  1  0.91766400  0.73694600  0.31688800  1
  C  352  1  0.90576600  0.72502700  0.32985200  1
  C  353  1  0.93210600  0.72315200  0.34498500  1
  C  354  1  0.97299400  0.73305100  0.34664500  1
  C  363  1  0.91551200  0.71056400  0.35805800  1
  C  366  1  0.88784200  0.73721200  0.30110600  1
  C  369  1  0.10070900  0.78197100  0.36826800  1
  C  372  1  0.14792300  0.75525500  0.31304100  1
  C  375  1  0.52953700  0.74688800  0.66432600  1
  C  376  1  0.56504200  0.75036200  0.67648300  1
  C  377  1  0.61005300  0.74325500  0.67499700  1
  C  378  1  0.61967400  0.73314000  0.66044900  1
  C  379  1  0.58569700  0.72955600  0.64777800  1
  C  380  1  0.53943000  0.73609700  0.64991100  1
  C  383  1  0.48577100  0.75549500  0.66674300  1
  C  384  1  0.45721500  0.75311000  0.68162800  1
  C  385  1  0.41765300  0.76401300  0.68406500  1
  C  386  1  0.40577200  0.77593600  0.67110200  1
  C  387  1  0.43212000  0.77781300  0.65597200  1
  C  388  1  0.47300000  0.76790900  0.65431200  1
  C  397  1  0.41553600  0.79040600  0.64290100  1
  C  400  1  0.38782000  0.76374300  0.69984400  1
  C  403  1  0.60069000  0.71898000  0.63268700  1
  C  406  1  0.64790600  0.74569300  0.68791600  1
  C  409  1  0.22127400  0.41435700  0.50448800  1
  C  410  1  0.18572900  0.42649700  0.50101600  1
  C  411  1  0.14074400  0.42500800  0.50814200  1
  C  412  1  0.13120200  0.41048000  0.51829700  1
  C  413  1  0.16522200  0.39782600  0.52188600  1
  C  414  1  0.21144500  0.39995100  0.51530000  1
  C  417  1  0.26497700  0.41677000  0.49584100  1
  C  418  1  0.29353400  0.43166300  0.49818200  1
  C  419  1  0.33300200  0.43409700  0.48723300  1
  C  420  1  0.34479400  0.42113100  0.47530200  1
  C  421  1  0.31843700  0.40599800  0.47346400  1
  C  422  1  0.27765000  0.40433700  0.48341800  1
  C  431  1  0.33490300  0.39292200  0.46085800  1
  C  434  1  0.36283300  0.44987800  0.48746100  1
  C  437  1  0.15030600  0.38274700  0.53249300  1
  C  440  1  0.10285000  0.43790500  0.50568000  1
  C  443  1  0.72126700  0.08658900  0.49646200  1
  C  444  1  0.68571300  0.07445500  0.49994800  1
  C  445  1  0.64072300  0.07594600  0.49282400  1
  C  446  1  0.63117900  0.09047200  0.48266900  1
  C  447  1  0.66519800  0.10312500  0.47907500  1
  C  448  1  0.71142600  0.10099900  0.48565700  1
  C  451  1  0.76495600  0.08417700  0.50511800  1
  C  452  1  0.79353300  0.06929200  0.50276200  1
  C  453  1  0.83301500  0.06685900  0.51370500  1
  C  454  1  0.84480900  0.07982500  0.52563700  1
  C  455  1  0.81845800  0.09495900  0.52747600  1
  C  456  1  0.77764700  0.09661500  0.51753300  1
  C  465  1  0.83492600  0.10803200  0.54008300  1
  C  468  1  0.86284400  0.05107900  0.51347400  1
  C  471  1  0.65028500  0.11820100  0.46846300  1
  C  474  1  0.60282900  0.06304900  0.49529100  1
  C  477  1  0.97116600  0.24647800  0.66430900  1
  C  478  1  0.93560200  0.24994700  0.67644400  1
  C  479  1  0.89062200  0.24281600  0.67494600  1
  C  480  1  0.88109900  0.23267100  0.66040900  1
  C  481  1  0.91513500  0.22908900  0.64775900  1
  C  482  1  0.96135300  0.23567700  0.64989400  1
  C  485  1  0.01484800  0.25513900  0.66666667  1
  C  486  1  0.04342200  0.25277700  0.68161500  1
  C  487  1  0.08290800  0.26371700  0.68405100  1
  C  488  1  0.09471700  0.27564900  0.67108700  1
  C  489  1  0.06836100  0.27749700  0.65595400  1
  C  490  1  0.02755200  0.26755400  0.65429300  1
  C  499  1  0.08485000  0.29010100  0.64288100  1
  C  502  1  0.11275000  0.26347400  0.69982800  1
  C  505  1  0.90025000  0.21847600  0.63268000  1
  C  508  1  0.85271400  0.24526300  0.68783900  1
  C  511  1  0.47117200  0.25446300  0.33664500  1
  C  512  1  0.43561500  0.25100100  0.32450600  1
  C  513  1  0.39064300  0.25813700  0.32600500  1
  C  514  1  0.38112300  0.26828600  0.34053700  1
  C  515  1  0.41515900  0.27186600  0.35319000  1
  C  516  1  0.46137400  0.26527500  0.35105500  1
  C  519  1  0.51487200  0.24581300  0.33422600  1
  C  520  1  0.54342800  0.24816300  0.31933600  1
  C  521  1  0.58291300  0.23722200  0.31690100  1
  C  522  1  0.59470800  0.22528800  0.32986500  1
  C  523  1  0.56834600  0.22344100  0.34499600  1
  C  524  1  0.52754900  0.23339000  0.34665700  1
  C  533  1  0.58482500  0.21083500  0.35806900  1
  C  536  1  0.61275700  0.23746200  0.30112400  1
  C  539  1  0.40027400  0.28247600  0.36827000  1
  C  542  1  0.35273100  0.25569100  0.31311000  1
  C  545  1  0.92517900  0.96466500  0.00248800  1
  C  546  1  0.91789800  0.97895000  0.01326800  1
  C  548  1  0.98572300  0.99302200  0.00237300  1
  C  549  1  0.99510400  0.97888700  0.99145400  1
  C  550  1  0.96470600  0.96472100  0.99161800  1
  C  552  1  0.01623600  0.00719900  0.00192700  1
  C  553  1  0.07799600  0.03516600  0.00071300  1
  C  554  1  0.08566600  0.02083700  0.99002800  1
  C  557  1  0.05500300  0.00673300  0.99061600  1
  C  561  1  0.03862800  0.03499900  0.01165900  1
  C  567  1  0.42520600  0.53629800  0.99845100  1
  C  568  1  0.41793200  0.52201700  0.98766500  1
  C  570  1  0.48573700  0.50793800  0.99857000  1
  C  571  1  0.49511300  0.52207100  0.00949100  1
  C  572  1  0.46472200  0.53623700  0.00932500  1
  C  574  1  0.51623900  0.49375700  0.99901900  1
  C  575  1  0.57798100  0.46578500  0.00024100  1
  C  576  1  0.58565200  0.48011300  0.01092600  1
  C  579  1  0.55499500  0.49421900  0.01033600  1
  C  583  1  0.53862400  0.46595700  0.98928800  1
  C  589  1  0.17504300  0.24825800  0.71462300  1
  C  590  1  0.16785600  0.23746500  0.72890400  1
  C  592  1  0.23557700  0.24844200  0.74298000  1
  C  593  1  0.24487300  0.25937000  0.72884500  1
  C  594  1  0.21447600  0.25917300  0.71467900  1
  C  596  1  0.26608000  0.24892000  0.75715800  1
  C  597  1  0.32783100  0.25019500  0.78512400  1
  C  598  1  0.33542400  0.26088700  0.77079600  1
  C  601  1  0.30476200  0.26027100  0.75669300  1
  C  605  1  0.28854100  0.23921000  0.78495800  1
  C  611  1  0.67500000  0.25268900  0.28631200  1
  C  612  1  0.66777600  0.26345600  0.27201500  1
  C  614  1  0.73555200  0.25249800  0.25796000  1
  C  615  1  0.74487700  0.24159300  0.27211000  1
  C  616  1  0.71447500  0.24179400  0.28627200  1
  C  618  1  0.76606900  0.25201700  0.24378600  1
  C  619  1  0.82784500  0.25073900  0.21582800  1
  C  620  1  0.83546000  0.24006500  0.23016900  1
  C  623  1  0.80478700  0.24068400  0.24426800  1
  C  627  1  0.78851700  0.26170600  0.21597800  1
  C  633  1  0.08146200  0.53416900  0.00499100  1
  C  634  1  0.09388200  0.51876100  0.99666700  1
  C  636  1  0.01811200  0.50690200  0.00122300  1
  C  637  1  0.00390400  0.52203900  0.00987200  1
  C  638  1  0.03584900  0.53562400  0.01174700  1
  C  640  1  0.98565000  0.49344100  0.99934100  1
  C  641  1  0.92000200  0.46685400  0.99609700  1
  C  642  1  0.90747800  0.48222400  0.00447100  1
  C  645  1  0.94018600  0.49558800  0.00619900  1
  C  649  1  0.96565500  0.46544300  0.98937000  1
  C  655  1  0.58147900  0.96678800  0.99596200  1
  C  656  1  0.59389800  0.98219900  0.00427900  1
  C  658  1  0.51812300  0.99405200  0.99972300  1
  C  659  1  0.50392200  0.97891200  0.99107700  1
  C  660  1  0.53587200  0.96533000  0.98920400  1
  C  662  1  0.48565600  0.00751100  0.00160200  1
  C  663  1  0.41999800  0.03409500  0.00484000  1
  C  664  1  0.40748500  0.01872500  0.99646700  1
  C  667  1  0.44019200  0.00536000  0.99474300  1
  C  671  1  0.46564700  0.03550900  0.01156900  1
  C  677  1  0.83120800  0.25468400  0.71668300  1
  C  678  1  0.84366500  0.24643100  0.73212400  1
  C  680  1  0.76789700  0.25101200  0.74396900  1
  C  681  1  0.75365300  0.25959500  0.72879800  1
  C  682  1  0.78558300  0.26142000  0.71520200  1
  C  684  1  0.73545400  0.24917800  0.75744200  1
  C  685  1  0.66984800  0.24602300  0.78405200  1
  C  686  1  0.65729700  0.25434000  0.76865400  1
  C  689  1  0.68997900  0.25602000  0.75527600  1
  C  693  1  0.71551500  0.23931100  0.78548100  1
  C  699  1  0.33121600  0.24627400  0.28426800  1
  C  700  1  0.34366600  0.25453100  0.26882700  1
  C  702  1  0.26789600  0.24994600  0.25698300  1
  C  703  1  0.25365800  0.24136400  0.27215300  1
  C  704  1  0.28559000  0.23953700  0.28574900  1
  C  706  1  0.23544900  0.25178000  0.24351100  1
  C  707  1  0.16983700  0.25493500  0.21690400  1
  C  708  1  0.15728400  0.24662300  0.23230400  1
  C  711  1  0.18997200  0.24494100  0.24568000  1
  C  715  1  0.21550300  0.26164700  0.21547300  1
  C  721  1  0.82560500  0.75245800  0.28631000  1
  C  722  1  0.83281200  0.76324300  0.27202400  1
  C  724  1  0.76504300  0.75228700  0.25795900  1
  C  725  1  0.75574300  0.74136300  0.27209800  1
  C  726  1  0.78614800  0.74155700  0.28626000  1
  C  728  1  0.73453000  0.75181100  0.24378300  1
  C  729  1  0.67278200  0.75052500  0.21581600  1
  C  730  1  0.66518700  0.73983800  0.23014900  1
  C  733  1  0.69584300  0.74046300  0.24425300  1
  C  737  1  0.71206500  0.76151300  0.21598200  1
  C  743  1  0.32562700  0.74848100  0.71464600  1
  C  744  1  0.33285500  0.73771400  0.72894500  1
  C  746  1  0.26504700  0.74865800  0.74299200  1
  C  747  1  0.25571400  0.75956000  0.72883800  1
  C  748  1  0.28612700  0.75936300  0.71467900  1
  C  750  1  0.23452600  0.74914000  0.75716500  1
  C  751  1  0.17276000  0.75043400  0.78512700  1
  C  752  1  0.16513400  0.76109700  0.77077800  1
  C  755  1  0.19580200  0.76047100  0.75667800  1
  C  759  1  0.21208100  0.73946400  0.78497800  1
  C  765  1  0.16934100  0.74586700  0.28417900  1
  C  766  1  0.15687100  0.75412000  0.26873900  1
  C  768  1  0.23263900  0.74954500  0.25688700  1
  C  769  1  0.24689500  0.74096700  0.27205800  1
  C  770  1  0.21497400  0.73913400  0.28565500  1
  C  772  1  0.26507600  0.75137800  0.24341100  1
  C  773  1  0.33067700  0.75453500  0.21680200  1
  C  774  1  0.34324800  0.74623400  0.23220500  1
  C  777  1  0.31056400  0.74455100  0.24558200  1
  C  781  1  0.28499600  0.76123000  0.21536400  1
  C  787  1  0.66933500  0.75507900  0.71677600  1
  C  788  1  0.65687400  0.74682300  0.73221600  1
  C  790  1  0.73264300  0.75140100  0.74406600  1
  C  791  1  0.74689300  0.75997900  0.72889500  1
  C  792  1  0.71496700  0.76181300  0.71529900  1
  C  794  1  0.76508500  0.74956800  0.75754000  1
  C  795  1  0.83069500  0.74641200  0.78414800  1
  C  796  1  0.84326400  0.75470900  0.76874200  1
  C  799  1  0.81057400  0.75639400  0.75536700  1
  C  803  1  0.78501400  0.73971600  0.78558600  1
  C  809  1  0.42513600  0.46468900  0.50265400  1
  C  810  1  0.41797100  0.47899800  0.51341100  1
  C  812  1  0.48573000  0.49302800  0.50240700  1
  C  813  1  0.49499500  0.47886600  0.49151000  1
  C  814  1  0.46457200  0.46471100  0.49174000  1
  C  816  1  0.51626000  0.50719700  0.50189300  1
  C  817  1  0.57805700  0.53514700  0.50054700  1
  C  818  1  0.58561300  0.52079300  0.48988500  1
  C  821  1  0.55493300  0.50669700  0.49054000  1
  C  825  1  0.53877800  0.53501300  0.51153900  1
  C  831  1  0.92516800  0.03627600  0.49828500  1
  C  832  1  0.91801000  0.02197000  0.48752200  1
  C  834  1  0.98574800  0.00793300  0.49853600  1
  C  835  1  0.99500900  0.02209300  0.50943500  1
  C  836  1  0.96459400  0.03625100  0.50920300  1
  C  838  1  0.01627000  0.99376200  0.49905200  1
  C  839  1  0.07804600  0.96580700  0.50040600  1
  C  840  1  0.08560300  0.98016100  0.51106800  1
  C  843  1  0.05492900  0.99425800  0.51041200  1
  C  847  1  0.03878200  0.96594400  0.48940800  1
  C  853  1  0.58135400  0.03422800  0.50478700  1
  C  854  1  0.59386000  0.01875800  0.49659700  1
  C  856  1  0.51809900  0.00691400  0.50119800  1
  C  857  1  0.50380700  0.02211500  0.50971500  1
  C  858  1  0.53570800  0.03572500  0.51150200  1
  C  860  1  0.48568400  0.99342700  0.49940800  1
  C  861  1  0.42013000  0.96679400  0.49633000  1
  C  862  1  0.40752300  0.98222200  0.50457800  1
  C  865  1  0.44018100  0.99561300  0.50621900  1
  C  869  1  0.46582100  0.96534300  0.48964800  1
  C  875  1  0.08136200  0.46672400  0.49618400  1
  C  876  1  0.09385500  0.48219500  0.50437500  1
  C  878  1  0.01809600  0.49403700  0.49976300  1
  C  879  1  0.00381200  0.47883500  0.49124800  1
  C  880  1  0.03571900  0.46522500  0.48946600  1
  C  882  1  0.98567800  0.50752500  0.50154900  1
  C  883  1  0.92011300  0.53415600  0.50461700  1
  C  884  1  0.90751300  0.51872400  0.49637600  1
  C  887  1  0.94017900  0.50533500  0.49473800  1
  C  891  1  0.96580500  0.53561000  0.51130100  1
  C  897  1  0.34535100  0.13121400  0.94074300  1
  C  898  1  0.31690700  0.14546400  0.93687600  1
  C  900  1  0.37604700  0.15783800  0.91917900  1
  C  901  1  0.40585600  0.14369300  0.92244500  1
  C  902  1  0.39026900  0.13043200  0.93327000  1
  C  904  1  0.39224700  0.17105800  0.90835600  1
  C  905  1  0.42539100  0.19688700  0.88631200  1
  C  906  1  0.45383900  0.18261500  0.89010500  1
  C  909  1  0.43746000  0.16959900  0.90109500  1
  C  913  1  0.38089900  0.19781900  0.89412000  1
  C  919  1  0.84532900  0.36974200  0.06020800  1
  C  920  1  0.81690200  0.35548700  0.06407100  1
  C  922  1  0.87603700  0.34312300  0.08177700  1
  C  923  1  0.90582800  0.35727700  0.07851600  1
  C  924  1  0.89023500  0.37053300  0.06768900  1
  C  926  1  0.89225100  0.32990800  0.09260200  1
  C  927  1  0.92541600  0.30408400  0.11464700  1
  C  928  1  0.95383600  0.31836300  0.11086300  1
  C  931  1  0.93745400  0.33137600  0.09986900  1
  C  935  1  0.88093500  0.30314200  0.10683200  1
  C  941  1  0.59533900  0.31021000  0.88116600  1
  C  942  1  0.56690800  0.31407400  0.89542100  1
  C  944  1  0.62606800  0.33176200  0.90779600  1
  C  945  1  0.65585600  0.32850200  0.89364300  1
  C  946  1  0.64025600  0.31768400  0.88038000  1
  C  948  1  0.64228900  0.34257800  0.92101800  1
  C  949  1  0.67546800  0.36461000  0.94685100  1
  C  950  1  0.70389100  0.36082800  0.93257100  1
  C  953  1  0.68749900  0.34984000  0.91955300  1
  C  957  1  0.63097700  0.35680200  0.94778800  1
  C  963  1  0.09536200  0.19073900  0.11979300  1
  C  964  1  0.06693200  0.18687500  0.10553900  1
  C  966  1  0.12609700  0.16919200  0.09316100  1
  C  967  1  0.15589300  0.17245500  0.10731100  1
  C  968  1  0.14028900  0.18327200  0.12057600  1
  C  970  1  0.14231800  0.15837600  0.07993900  1
  C  971  1  0.17549500  0.13634300  0.05410600  1
  C  972  1  0.20392900  0.14013400  0.06838100  1
  C  975  1  0.18753700  0.15111900  0.08140000  1
  C  979  1  0.13099800  0.14414700  0.05317200  1
  C  985  1  0.65453400  0.86956800  0.06031900  1
  C  986  1  0.68307200  0.85534300  0.06418000  1
  C  988  1  0.62394400  0.84287700  0.08181300  1
  C  989  1  0.59403100  0.85699500  0.07854800  1
  C  990  1  0.60956100  0.87028900  0.06775500  1
  C  992  1  0.60781300  0.82962800  0.09261000  1
  C  993  1  0.57485100  0.80374800  0.11462200  1
  C  994  1  0.54627800  0.81798400  0.11082900  1
  C  997  1  0.56256500  0.83102800  0.09985300  1
  C  1001  1  0.61936700  0.80287100  0.10682700  1
  C  1007  1  0.15455600  0.63138500  0.94063900  1
  C  1008  1  0.18308300  0.64561400  0.93678000  1
  C  1010  1  0.12395300  0.65806900  0.91913900  1
  C  1011  1  0.09405800  0.64394600  0.92239900  1
  C  1012  1  0.10959600  0.63065500  0.93319600  1
  C  1014  1  0.10781500  0.67131500  0.90834000  1
  C  1015  1  0.07483400  0.69719100  0.88632500  1
  C  1016  1  0.04628400  0.68294700  0.89011100  1
  C  1019  1  0.06257500  0.66990600  0.90109100  1
  C  1023  1  0.11933900  0.69807600  0.89412800  1
  C  1029  1  0.40606500  0.69026100  0.11975500  1
  C  1030  1  0.43441200  0.68655200  0.10543800  1
  C  1032  1  0.37550600  0.66874500  0.09307100  1
  C  1033  1  0.34582400  0.67183600  0.10729200  1
  C  1034  1  0.36133300  0.68264200  0.12058100  1
  C  1036  1  0.35934500  0.65796600  0.07980900  1
  C  1037  1  0.32623100  0.63605500  0.05386200  1
  C  1038  1  0.29796200  0.63963000  0.06823600  1
  C  1041  1  0.31431200  0.65056300  0.08130700  1
  C  1045  1  0.37054600  0.64399200  0.05290100  1
  C  1051  1  0.90604500  0.81069400  0.88119100  1
  C  1052  1  0.93439500  0.81440300  0.89550900  1
  C  1054  1  0.87548300  0.83220400  0.90788000  1
  C  1055  1  0.84579300  0.82910900  0.89366100  1
  C  1056  1  0.86130600  0.81830700  0.88037100  1
  C  1058  1  0.85932100  0.84298300  0.92114100  1
  C  1059  1  0.82620900  0.86489400  0.94708900  1
  C  1060  1  0.79792800  0.86131100  0.93272100  1
  C  1063  1  0.81427800  0.85038100  0.91964800  1
  C  1067  1  0.87052900  0.85695900  0.94804700  1
  C  1073  1  0.84486800  0.63118500  0.44023900  1
  C  1074  1  0.81651500  0.64550300  0.43653900  1
  C  1076  1  0.87542000  0.65788400  0.41874100  1
  C  1077  1  0.90511300  0.64366400  0.42182700  1
  C  1078  1  0.88960400  0.63036700  0.43262300  1
  C  1080  1  0.89157800  0.67115200  0.40796900  1
  C  1081  1  0.92467300  0.69711100  0.38606900  1
  C  1082  1  0.95296000  0.68274200  0.38964300  1
  C  1085  1  0.93661400  0.66966200  0.40056800  1
  C  1089  1  0.88035600  0.69806400  0.39400800  1
  C  1095  1  0.34484300  0.86977000  0.56071100  1
  C  1096  1  0.31650700  0.85544700  0.56440900  1
  C  1098  1  0.37541200  0.84307900  0.58221500  1
  C  1099  1  0.40508500  0.85730400  0.57913300  1
  C  1100  1  0.38956800  0.87059700  0.56833400  1
  C  1102  1  0.39157700  0.82981300  0.59298900  1
  C  1103  1  0.42469300  0.80385900  0.61489200  1
  C  1104  1  0.45295600  0.81823600  0.61132400  1
  C  1107  1  0.43660600  0.83131100  0.60039500  1
  C  1111  1  0.38038700  0.80289700  0.60694700  1
  C  1117  1  0.09637000  0.81033800  0.38137200  1
  C  1118  1  0.06783500  0.81419400  0.39560000  1
  C  1120  1  0.12696400  0.83182500  0.40806500  1
  C  1121  1  0.15686500  0.82857100  0.39394400  1
  C  1122  1  0.14133100  0.81778100  0.38064700  1
  C  1124  1  0.14309900  0.84261800  0.42131900  1
  C  1125  1  0.17606800  0.86461900  0.44720600  1
  C  1126  1  0.20462400  0.86084100  0.43296200  1
  C  1129  1  0.18833900  0.84986800  0.41991500  1
  C  1133  1  0.13155900  0.85681900  0.44808400  1
  C  1139  1  0.59638200  0.69061500  0.61958300  1
  C  1140  1  0.56784700  0.68675800  0.60535500  1
  C  1142  1  0.62698600  0.66913100  0.59288800  1
  C  1143  1  0.65689200  0.67239000  0.60700800  1
  C  1144  1  0.64135500  0.68317900  0.62030500  1
  C  1146  1  0.64312000  0.65833900  0.57963500  1
  C  1147  1  0.67608900  0.63633600  0.55374800  1
  C  1148  1  0.70465500  0.64012300  0.56798800  1
  C  1151  1  0.68836800  0.65109500  0.58103500  1
  C  1155  1  0.63157700  0.64413300  0.55287200  1
  C  1161  1  0.15501600  0.36960200  0.56082600  1
  C  1162  1  0.18346700  0.35530800  0.56452200  1
  C  1164  1  0.12456800  0.34283800  0.58225400  1
  C  1165  1  0.09477000  0.35702800  0.57916800  1
  C  1166  1  0.11022500  0.37035800  0.56840400  1
  C  1168  1  0.10848500  0.32953900  0.59300100  1
  C  1169  1  0.07557000  0.30352800  0.61486900  1
  C  1170  1  0.04715600  0.31786200  0.61129200  1
  C  1173  1  0.06341100  0.33096900  0.60038300  1
  C  1177  1  0.11991300  0.30263100  0.60694300  1
  C  1183  1  0.65502600  0.13134600  0.44013100  1
  C  1184  1  0.68346700  0.14564300  0.43643800  1
  C  1186  1  0.62456800  0.15810400  0.41869700  1
  C  1187  1  0.59478400  0.14390900  0.42178000  1
  C  1188  1  0.61024500  0.13058200  0.43254700  1
  C  1190  1  0.60847600  0.17140100  0.40795000  1
  C  1191  1  0.57554900  0.19740700  0.38608100  1
  C  1192  1  0.54715400  0.18306600  0.38965100  1
  C  1195  1  0.56341000  0.16996300  0.40056300  1
  C  1199  1  0.61988000  0.19831200  0.39401200  1
  C  1205  1  0.90501500  0.19013700  0.61954800  1
  C  1206  1  0.93347400  0.18643500  0.60525900  1
  C  1208  1  0.87459700  0.16868400  0.59279900  1
  C  1209  1  0.84479900  0.17177100  0.60698900  1
  C  1210  1  0.86023800  0.18254900  0.62031100  1
  C  1212  1  0.85852900  0.15792800  0.57950700  1
  C  1213  1  0.82563300  0.13604700  0.55350400  1
  C  1214  1  0.79722400  0.13961900  0.56784200  1
  C  1217  1  0.81346600  0.15053800  0.58094200  1
  C  1221  1  0.86996700  0.14397600  0.55260500  1
  C  1227  1  0.40500400  0.31081600  0.38140100  1
  C  1228  1  0.43346600  0.31451800  0.39569000  1
  C  1230  1  0.37458200  0.33226400  0.40815300  1
  C  1231  1  0.34477700  0.32917100  0.39396500  1
  C  1232  1  0.36021700  0.31839600  0.38064300  1
  C  1234  1  0.35851100  0.34301900  0.42144500  1
  C  1235  1  0.32561700  0.36490400  0.44744500  1
  C  1236  1  0.29719600  0.36132200  0.43311300  1
  C  1239  1  0.31343900  0.35040500  0.42001300  1
  C  1243  1  0.36995600  0.35697700  0.44834300  1
  N  17  1  0.25441600  0.11213400  0.98236200  1
  N  18  1  0.21812000  0.05721700  0.99173400  1
  N  51  1  0.75442400  0.38882600  0.01860100  1
  N  52  1  0.71814100  0.44373400  0.00922300  1
  N  85  1  0.50437500  0.26861700  0.86208700  1
  N  86  1  0.46804000  0.25923300  0.80716700  1
  N  119  1  0.00436100  0.23233700  0.13886600  1
  N  120  1  0.96800200  0.24171500  0.19377900  1
  N  153  1  0.74590200  0.88852200  0.01896900  1
  N  154  1  0.78341300  0.94323800  0.01042100  1
  N  187  1  0.24589400  0.61242300  0.98197800  1
  N  188  1  0.28338900  0.55771700  0.99052400  1
  N  221  1  0.49647700  0.73194800  0.13886000  1
  N  222  1  0.53265600  0.74139700  0.19378400  1
  N  255  1  0.99649600  0.76900300  0.86209000  1
  N  256  1  0.03269900  0.75955700  0.80717300  1
  N  289  1  0.75441700  0.61210000  0.48192400  1
  N  290  1  0.71814500  0.55718700  0.49137500  1
  N  323  1  0.25442500  0.88886100  0.51903800  1
  N  324  1  0.21817000  0.94376500  0.50958200  1
  N  357  1  0.00501700  0.76899700  0.36243600  1
  N  358  1  0.96747200  0.76044100  0.30772200  1
  N  391  1  0.50499600  0.73195900  0.63851900  1
  N  392  1  0.46743600  0.74051000  0.69322500  1
  N  425  1  0.24590500  0.38855900  0.51940900  1
  N  426  1  0.28339400  0.44326900  0.51078000  1
  N  459  1  0.74588800  0.11238500  0.48153600  1
  N  460  1  0.78337500  0.05768500  0.49016500  1
  N  493  1  0.99582600  0.23156900  0.63850700  1
  N  494  1  0.03324900  0.24018200  0.69322400  1
  N  527  1  0.49585300  0.26937900  0.36244200  1
  N  528  1  0.53328000  0.26076400  0.30773200  1
  N  547  1  0.94774500  0.99248500  0.01282400  1
  N  556  1  0.00953900  0.02126400  0.01193000  1
  N  558  1  0.06141600  0.99263500  0.98064000  1
  N  559  1  0.03306400  0.97946300  0.98103200  1
  N  563  1  0.10949800  0.04915400  0.00014600  1
  N  565  1  0.89294200  0.95089400  0.00277300  1
  N  569  1  0.44777200  0.50847900  0.98811400  1
  N  578  1  0.50954500  0.47969300  0.98901300  1
  N  580  1  0.56140400  0.50831600  0.02031500  1
  N  581  1  0.53306000  0.52149100  0.01992000  1
  N  585  1  0.60947400  0.45179400  0.00081100  1
  N  587  1  0.39296900  0.55006900  0.99816700  1
  N  591  1  0.19768600  0.23794800  0.74244100  1
  N  600  1  0.25945600  0.23891100  0.77122200  1
  N  602  1  0.31109600  0.27025500  0.74259500  1
  N  603  1  0.28274800  0.26983400  0.72942200  1
  N  607  1  0.35933400  0.25078800  0.79911100  1
  N  609  1  0.14280400  0.24794000  0.70085300  1
  N  613  1  0.69762600  0.26297500  0.25848200  1
  N  622  1  0.75942000  0.26200800  0.22970900  1
  N  624  1  0.81114600  0.23071900  0.25837800  1
  N  625  1  0.78278900  0.23114500  0.27154800  1
  N  629  1  0.85936600  0.25014800  0.20184700  1
  N  631  1  0.64275300  0.25301200  0.30008000  1
  N  635  1  0.06235400  0.50585500  0.99501900  1
  N  644  1  0.99650600  0.47853700  0.99120300  1
  N  646  1  0.92953600  0.51051100  0.01431700  1
  N  647  1  0.95966500  0.52302700  0.01604500  1
  N  651  1  0.88675400  0.45346000  0.99496700  1
  N  653  1  0.11473000  0.54756800  0.00599600  1
  N  657  1  0.56236300  0.99510100  0.00592800  1
  N  666  1  0.49650500  0.02241700  0.00973800  1
  N  668  1  0.42954900  0.99043600  0.98662800  1
  N  669  1  0.45968500  0.97792200  0.98490300  1
  N  673  1  0.38674600  0.04748800  0.00597000  1
  N  675  1  0.61474800  0.95338700  0.99496300  1
  N  679  1  0.81214700  0.24482400  0.74503600  1
  N  688  1  0.74634500  0.24109900  0.77237500  1
  N  690  1  0.67929400  0.26407400  0.74032100  1
  N  691  1  0.70940600  0.26575600  0.72779400  1
  N  695  1  0.63661700  0.24492500  0.79745200  1
  N  697  1  0.86447000  0.25564600  0.70328000  1
  N  701  1  0.31214900  0.25613400  0.25591300  1
  N  710  1  0.24633700  0.25985800  0.22857700  1
  N  712  1  0.17929200  0.23688800  0.26063600  1
  N  713  1  0.20940700  0.23520600  0.27316200  1
  N  717  1  0.13660300  0.25603100  0.20350400  1
  N  719  1  0.36448300  0.24530900  0.29766800  1
  N  723  1  0.80295900  0.76277000  0.25849100  1
  N  732  1  0.74115400  0.76181700  0.22971600  1
  N  734  1  0.68950200  0.73048300  0.25835400  1
  N  735  1  0.71785500  0.73090600  0.27152600  1
  N  739  1  0.64129200  0.74991800  0.20182800  1
  N  741  1  0.85785900  0.75276600  0.30007600  1
  N  745  1  0.30299500  0.73819100  0.74247500  1
  N  754  1  0.24117600  0.73915500  0.77124700  1
  N  756  1  0.18943500  0.77042900  0.74256500  1
  N  757  1  0.21779300  0.77000200  0.72939500  1
  N  761  1  0.14125700  0.75104200  0.79911100  1
  N  763  1  0.35789700  0.74817500  0.70088600  1
  N  767  1  0.18837900  0.75572800  0.25582200  1
  N  776  1  0.25417000  0.75944400  0.22847200  1
  N  778  1  0.32126300  0.73650400  0.26053800  1
  N  779  1  0.29115400  0.73481700  0.27306600  1
  N  783  1  0.36391800  0.75563300  0.20340400  1
  N  785  1  0.13609500  0.74490200  0.29758900  1
  N  789  1  0.68838200  0.74522000  0.74513400  1
  N  798  1  0.75418400  0.74150300  0.77248000  1
  N  800  1  0.82126900  0.76444000  0.74041000  1
  N  801  1  0.79115400  0.76612800  0.72788300  1
  N  805  1  0.86393600  0.74531700  0.79754400  1
  N  807  1  0.63608400  0.75604600  0.70337000  1
  N  811  1  0.44783900  0.49252500  0.51290200  1
  N  820  1  0.50967100  0.52128700  0.51187200  1
  N  822  1  0.56123600  0.49257400  0.48058800  1
  N  823  1  0.53286500  0.47941000  0.48104200  1
  N  827  1  0.60958600  0.54912300  0.49991800  1
  N  829  1  0.39286800  0.45092900  0.50300000  1
  N  833  1  0.94786700  0.00844100  0.48803500  1
  N  842  1  0.00968200  0.97967500  0.48907100  1
  N  844  1  0.06123100  0.00837800  0.52036700  1
  N  845  1  0.03286800  0.02154500  0.51990900  1
  N  849  1  0.10956500  0.95182800  0.50103700  1
  N  851  1  0.89289700  0.05003600  0.49794000  1
  N  855  1  0.56236600  0.00583100  0.49503000  1
  N  864  1  0.49662400  0.97846200  0.49139600  1
  N  866  1  0.42945100  0.01059600  0.51420800  1
  N  867  1  0.45953900  0.02313700  0.51585300  1
  N  871  1  0.38690600  0.95338900  0.49526500  1
  N  873  1  0.61459500  0.04763900  0.50571600  1
  N  877  1  0.06236500  0.49512300  0.50593300  1
  N  886  1  0.99661100  0.52249200  0.50955700  1
  N  888  1  0.92945200  0.49034900  0.48675000  1
  N  889  1  0.95954300  0.47780900  0.48510900  1
  N  893  1  0.88689000  0.54756000  0.50567800  1
  N  895  1  0.11460800  0.45331600  0.49525500  1
  N  899  1  0.33293500  0.15814900  0.92646700  1
  N  908  1  0.36592700  0.18507600  0.90464100  1
  N  910  1  0.46362700  0.15556800  0.90488400  1
  N  911  1  0.44869700  0.14332400  0.91500200  1
  N  915  1  0.44197800  0.20953900  0.87474800  1
  N  917  1  0.32823200  0.11820500  0.95177300  1
  N  921  1  0.83293800  0.34280400  0.07448200  1
  N  930  1  0.86595200  0.31588200  0.09631100  1
  N  932  1  0.96360300  0.34541300  0.09608500  1
  N  933  1  0.94866200  0.35765400  0.08596600  1
  N  937  1  0.94201000  0.29143300  0.12621000  1
  N  939  1  0.82820800  0.38274500  0.04917300  1
  N  943  1  0.58295900  0.32447300  0.90811100  1
  N  952  1  0.61599000  0.34628500  0.93504400  1
  N  954  1  0.71364500  0.34605800  0.90551600  1
  N  955  1  0.69870000  0.33594700  0.89326900  1
  N  959  1  0.69206900  0.37616900  0.95950600  1
  N  961  1  0.57820000  0.29918600  0.86815600  1
  N  965  1  0.08297900  0.17647300  0.09285000  1
  N  974  1  0.11601100  0.15466200  0.06591700  1
  N  976  1  0.21368900  0.15490600  0.09543500  1
  N  977  1  0.19874100  0.16501600  0.10768100  1
  N  981  1  0.19209300  0.12478100  0.04145400  1
  N  983  1  0.07822100  0.20175900  0.13280600  1
  N  987  1  0.66709600  0.84262400  0.07455700  1
  N  996  1  0.63425200  0.81563900  0.09632300  1
  N  998  1  0.53629400  0.84503300  0.09606600  1
  N  999  1  0.55115800  0.85730600  0.08597000  1
  N  1003  1  0.55837900  0.79107800  0.12618700  1
  N  1005  1  0.67164100  0.88261600  0.04934000  1
  N  1009  1  0.16709500  0.65833100  0.92640200  1
  N  1018  1  0.13423500  0.68531000  0.90463200  1
  N  1020  1  0.03632000  0.65589600  0.90487400  1
  N  1021  1  0.05119200  0.64362600  0.91497100  1
  N  1025  1  0.05835500  0.70985800  0.87476100  1
  N  1027  1  0.17166800  0.61834100  0.95162300  1
  N  1031  1  0.41844200  0.67617000  0.09272100  1
  N  1040  1  0.38550800  0.65444600  0.06570100  1
  N  1042  1  0.28826800  0.65418000  0.09541300  1
  N  1043  1  0.30315100  0.66426200  0.10769500  1
  N  1047  1  0.30959200  0.62461000  0.04111100  1
  N  1049  1  0.42306000  0.70130700  0.13277300  1
  N  1053  1  0.91842500  0.82478600  0.90822500  1
  N  1062  1  0.88549100  0.84650700  0.93524600  1
  N  1064  1  0.78823100  0.84675800  0.90554400  1
  N  1065  1  0.80311200  0.83667800  0.89326100  1
  N  1069  1  0.80957600  0.87634100  0.95983800  1
  N  1071  1  0.92304700  0.79965300  0.86817100  1
  N  1075  1  0.83248100  0.65822500  0.42616100  1
  N  1084  1  0.86540100  0.68525800  0.40445400  1
  N  1086  1  0.96266800  0.65555700  0.40418200  1
  N  1087  1  0.94779000  0.64327000  0.41425700  1
  N  1091  1  0.94129500  0.70986600  0.37462600  1
  N  1093  1  0.82787300  0.61816000  0.45127700  1
  N  1097  1  0.33248000  0.84272700  0.57478800  1
  N  1106  1  0.36542100  0.81570200  0.59649900  1
  N  1108  1  0.46264300  0.84542200  0.59678700  1
  N  1109  1  0.44775500  0.85770700  0.58671000  1
  N  1113  1  0.44132600  0.79110700  0.62633500  1
  N  1115  1  0.32784600  0.88278800  0.54966700  1
  N  1119  1  0.08382200  0.82456300  0.40832300  1
  N  1128  1  0.11667300  0.84631800  0.43531300  1
  N  1130  1  0.21459900  0.84609100  0.40590500  1
  N  1131  1  0.19973200  0.83599900  0.39362900  1
  N  1135  1  0.19253600  0.87618100  0.45987900  1
  N  1137  1  0.07926100  0.79935900  0.36832500  1
  N  1141  1  0.58383400  0.67638800  0.59263400  1
  N  1150  1  0.61668800  0.65463300  0.56564300  1
  N  1152  1  0.71463200  0.65487500  0.59504400  1
  N  1153  1  0.69976400  0.66496700  0.60731900  1
  N  1157  1  0.69255400  0.62477200  0.54107800  1
  N  1159  1  0.57926800  0.70159000  0.63263300  1
  N  1163  1  0.16755200  0.34255300  0.57486600  1
  N  1172  1  0.13478000  0.31546400  0.59651300  1
  N  1174  1  0.03724900  0.34504800  0.59677100  1
  N  1175  1  0.05206000  0.35736400  0.58671700  1
  N  1179  1  0.05906300  0.29075600  0.62631200  1
  N  1181  1  0.17200100  0.38266300  0.54983800  1
  N  1185  1  0.66754200  0.15839700  0.42609200  1
  N  1194  1  0.63475800  0.18548100  0.40444100  1
  N  1196  1  0.53726400  0.15588000  0.40417000  1
  N  1197  1  0.55208300  0.14356500  0.41422600  1
  N  1201  1  0.55903500  0.21017700  0.37463600  1
  N  1203  1  0.67201400  0.11828800  0.45112400  1
  N  1207  1  0.91757000  0.17608200  0.59250800  1
  N  1216  1  0.88482500  0.15441500  0.56543100  1
  N  1218  1  0.78730300  0.15415000  0.59502100  1
  N  1219  1  0.80210000  0.16421400  0.60733000  1
  N  1223  1  0.80913300  0.12459900  0.54073500  1
  N  1225  1  0.92198300  0.20113700  0.63260300  1
  N  1229  1  0.41756300  0.32487300  0.40844000  1
  N  1238  1  0.38481300  0.34653900  0.43551700  1
  N  1240  1  0.28727100  0.34678700  0.40593800  1
  N  1241  1  0.30207100  0.33672300  0.39362700  1
  N  1245  1  0.30911900  0.37635300  0.46021300  1
  N  1247  1  0.42197900  0.29981900  0.36834400  1
