# generated using pymatgen
data_H29C43N4
_symmetry_space_group_name_H-M   'P 1'
_cell_length_a   34.33220000
_cell_length_b   34.33220000
_cell_length_c   68.66030000
_cell_angle_alpha   90.04940000
_cell_angle_beta   89.95060000
_cell_angle_gamma   90.00000000
_symmetry_Int_Tables_number   1
_chemical_formula_structural   H29C43N4
_chemical_formula_sum   'H348 C516 N48'
_cell_volume   80929.83248526
_cell_formula_units_Z   12
loop_
 _symmetry_equiv_pos_site_id
 _symmetry_equiv_pos_as_xyz
  1  'x, y, z'
loop_
 _atom_site_type_symbol
 _atom_site_label
 _atom_site_symmetry_multiplicity
 _atom_site_fract_x
 _atom_site_fract_y
 _atom_site_fract_z
 _atom_site_occupancy
  H  73  1  0.93776800  0.02461500  0.16253900  1
  H  74  1  0.93755400  0.02276900  0.12775300  1
  H  75  1  0.03571000  0.95045500  0.16325500  1
  H  76  1  0.03589800  0.94889400  0.12861100  1
  H  77  1  0.99550800  0.92347200  0.10071100  1
  H  78  1  0.99642800  0.92209600  0.06588500  1
  H  79  1  0.97834600  0.04531700  0.09938000  1
  H  80  1  0.97874200  0.04367900  0.06456100  1
  H  81  1  0.90958400  0.98052100  0.05526400  1
  H  82  1  0.85714300  0.98050200  0.02933500  1
  H  83  1  0.96292200  0.98224700  0.00209800  1
  H  84  1  0.01093300  0.98168200  0.97788300  1
  H  85  1  0.06657800  0.98293800  0.05540700  1
  H  86  1  0.11869400  0.98196800  0.02908500  1
  H  87  1  0.13687200  0.91884500  0.98715900  1
  H  88  1  0.20648400  0.91805900  0.98667600  1
  H  89  1  0.13818100  0.04136000  0.99182900  1
  H  90  1  0.20778500  0.04083700  0.99096100  1
  H  91  1  0.11666000  0.97907900  0.95061100  1
  H  92  1  0.06420800  0.97905200  0.92470200  1
  H  93  1  0.85520000  0.98258800  0.95087900  1
  H  94  1  0.90729100  0.98252700  0.92457300  1
  H  95  1  0.99543300  0.04178900  0.91490100  1
  H  96  1  0.99427800  0.04235300  0.88007400  1
  H  97  1  0.97631400  0.92038700  0.91461400  1
  H  98  1  0.97561200  0.92069900  0.87977600  1
  H  99  1  0.93325800  0.94637500  0.85256700  1
  H  100  1  0.93073900  0.94728000  0.81782800  1
  H  101  1  0.03007800  0.01948900  0.81637800  1
  H  102  1  0.03317200  0.01812100  0.85112100  1
  H  103  1  0.83577700  0.92066300  0.99233000  1
  H  104  1  0.76615500  0.92111100  0.99160300  1
  H  105  1  0.71188500  0.02432300  0.96613300  1
  H  106  1  0.64237200  0.02531800  0.96547500  1
  H  107  1  0.63941900  0.94225800  0.01067800  1
  H  108  1  0.70869600  0.94170700  0.01164200  1
  H  109  1  0.76728700  0.04391600  0.98761900  1
  H  110  1  0.83692200  0.04322000  0.98799400  1
  H  111  1  0.26451000  0.02029900  0.01116600  1
  H  112  1  0.33393500  0.01946300  0.01079000  1
  H  113  1  0.26281700  0.93696800  0.96587500  1
  H  114  1  0.33241700  0.93576000  0.96585100  1
  H  191  1  0.02136500  0.03838100  0.66319400  1
  H  192  1  0.02027100  0.04013000  0.62840700  1
  H  193  1  0.94737900  0.94030300  0.66248600  1
  H  194  1  0.94655300  0.94166000  0.62784900  1
  H  195  1  0.92154700  0.98328700  0.60035800  1
  H  196  1  0.92084400  0.98335100  0.56553000  1
  H  197  1  0.04340400  0.00052600  0.59963900  1
  H  198  1  0.04244200  0.00110400  0.56480900  1
  H  199  1  0.97981700  0.07044200  0.55521300  1
  H  200  1  0.98000600  0.12289600  0.52928500  1
  H  201  1  0.98167400  0.01712300  0.50204200  1
  H  202  1  0.98147700  0.96913100  0.47783000  1
  H  203  1  0.98213900  0.91344500  0.55534200  1
  H  204  1  0.98138900  0.86134100  0.52902000  1
  H  205  1  0.91856400  0.84307500  0.48712500  1
  H  206  1  0.91789800  0.77345900  0.48664300  1
  H  207  1  0.04107100  0.84197500  0.49174500  1
  H  208  1  0.04067300  0.77237000  0.49087600  1
  H  209  1  0.97894800  0.86340700  0.45055500  1
  H  210  1  0.97922600  0.91584600  0.42465100  1
  H  211  1  0.98255200  0.12486400  0.45082300  1
  H  212  1  0.98282900  0.07277100  0.42451100  1
  H  213  1  0.04264100  0.98387500  0.41529800  1
  H  214  1  0.04401500  0.98287000  0.38047400  1
  H  215  1  0.92138500  0.00375900  0.41409600  1
  H  216  1  0.92251800  0.00233900  0.37925800  1
  H  217  1  0.94866600  0.04077500  0.35045700  1
  H  218  1  0.94920000  0.03719100  0.31570000  1
  H  219  1  0.02015900  0.93707100  0.31842400  1
  H  220  1  0.01919600  0.94011000  0.35315100  1
  H  221  1  0.92037000  0.14436300  0.49230000  1
  H  222  1  0.92093100  0.21398800  0.49159200  1
  H  223  1  0.02430300  0.26812600  0.46610700  1
  H  224  1  0.02540500  0.33764000  0.46546900  1
  H  225  1  0.94222300  0.34066600  0.51068600  1
  H  226  1  0.94156800  0.27139100  0.51163300  1
  H  227  1  0.04374300  0.21266400  0.48757000  1
  H  228  1  0.04293600  0.14303000  0.48792600  1
  H  229  1  0.02019700  0.71559400  0.51108700  1
  H  230  1  0.01944600  0.64616700  0.51071400  1
  H  231  1  0.93692000  0.71717200  0.46584100  1
  H  232  1  0.93579700  0.64757200  0.46582200  1
  H  242  1  0.03898700  0.94019900  0.22886200  1
  H  244  1  0.94208200  0.03310200  0.25036200  1
  H  245  1  0.94931800  0.01993400  0.21664600  1
  H  247  1  0.06319400  0.92846900  0.25965600  1
  H  248  1  0.02489400  0.92666300  0.27664300  1
  H  249  1  0.05734300  0.96712900  0.27622300  1
  H  251  1  0.01761700  0.94812400  0.19609500  1
  H  253  1  0.97322200  0.03314900  0.28258200  1
  H  259  1  0.93400400  0.93536400  0.72794200  1
  H  261  1  0.02836700  0.02924700  0.75102300  1
  H  262  1  0.01621800  0.02353800  0.71717300  1
  H  264  1  0.92030200  0.91055600  0.75837700  1
  H  265  1  0.91920100  0.94811300  0.77578300  1
  H  266  1  0.95865900  0.91443600  0.77521900  1
  H  268  1  0.94385900  0.95733000  0.69543800  1
  H  270  1  0.02636900  0.99830200  0.78292200  1
  H  276  1  0.46212900  0.05227900  0.99120700  1
  H  278  1  0.50986100  0.91963300  0.99179700  1
  H  279  1  0.44181100  0.93144500  0.99026900  1
  H  281  1  0.52346800  0.08001600  0.99425800  1
  H  282  1  0.55823800  0.05386200  0.98068800  1
  H  283  1  0.55731600  0.05037400  0.00653700  1
  H  285  1  0.39688700  0.02813200  0.99442000  1
  H  287  1  0.57253800  0.94813600  0.00480100  1
  H  293  1  0.05234400  0.51793500  0.49118300  1
  H  295  1  0.91970300  0.47017900  0.49178700  1
  H  296  1  0.93150700  0.53822700  0.49023600  1
  H  298  1  0.08007900  0.45659900  0.49425500  1
  H  299  1  0.05397300  0.42180900  0.48069700  1
  H  300  1  0.05039500  0.42276500  0.50654400  1
  H  302  1  0.02817200  0.58318300  0.49436800  1
  H  304  1  0.94819600  0.40753200  0.50482700  1
  H  377  1  0.73387800  0.79159800  0.11884600  1
  H  378  1  0.73366400  0.78975200  0.08406000  1
  H  379  1  0.83182000  0.71743800  0.11956200  1
  H  380  1  0.83200800  0.71587700  0.08491800  1
  H  381  1  0.79161800  0.69045500  0.05701800  1
  H  382  1  0.79253800  0.68907900  0.02219200  1
  H  383  1  0.77445600  0.81230000  0.05568700  1
  H  384  1  0.77485200  0.81066200  0.02086800  1
  H  385  1  0.70569400  0.74750400  0.01157100  1
  H  386  1  0.65325300  0.74748500  0.98564160  1
  H  387  1  0.75903200  0.74923000  0.95840460  1
  H  388  1  0.80704300  0.74866500  0.93418960  1
  H  389  1  0.86268800  0.74992100  0.01171400  1
  H  390  1  0.91480380  0.74895100  0.98539160  1
  H  391  1  0.93298180  0.68582800  0.94346560  1
  H  392  1  0.00259400  0.68504200  0.94298260  1
  H  393  1  0.93429080  0.80834300  0.94813560  1
  H  394  1  0.00389500  0.80782000  0.94726760  1
  H  395  1  0.91276980  0.74606200  0.90691760  1
  H  396  1  0.86031800  0.74603500  0.88100900  1
  H  397  1  0.65131000  0.74957100  0.90718560  1
  H  398  1  0.70340100  0.74951000  0.88088000  1
  H  399  1  0.79154300  0.80877200  0.87120800  1
  H  400  1  0.79038800  0.80933600  0.83638100  1
  H  401  1  0.77242400  0.68737000  0.87092100  1
  H  402  1  0.77172200  0.68768200  0.83608300  1
  H  403  1  0.72936800  0.71335800  0.80887400  1
  H  404  1  0.72684900  0.71426300  0.77413500  1
  H  405  1  0.82618800  0.78647200  0.77268500  1
  H  406  1  0.82928200  0.78510400  0.80742800  1
  H  407  1  0.63188700  0.68764600  0.94863660  1
  H  408  1  0.56226500  0.68809400  0.94790960  1
  H  409  1  0.50799500  0.79130600  0.92243960  1
  H  410  1  0.43848200  0.79230100  0.92178160  1
  H  411  1  0.43552900  0.70924100  0.96698460  1
  H  412  1  0.50480600  0.70869000  0.96794860  1
  H  413  1  0.56339700  0.81089900  0.94392560  1
  H  414  1  0.63303200  0.81020300  0.94430060  1
  H  415  1  0.06062000  0.78728200  0.96747260  1
  H  416  1  0.13004500  0.78644600  0.96709660  1
  H  417  1  0.05892700  0.70395100  0.92218160  1
  H  418  1  0.12852700  0.70274300  0.92215760  1
  H  495  1  0.81747500  0.80536400  0.61950100  1
  H  496  1  0.81638100  0.80711300  0.58471400  1
  H  497  1  0.74348900  0.70728600  0.61879300  1
  H  498  1  0.74266300  0.70864300  0.58415600  1
  H  499  1  0.71765700  0.75027000  0.55666500  1
  H  500  1  0.71695400  0.75033400  0.52183700  1
  H  501  1  0.83951400  0.76750900  0.55594600  1
  H  502  1  0.83855200  0.76808700  0.52111600  1
  H  503  1  0.77592700  0.83742500  0.51152000  1
  H  504  1  0.77611600  0.88987900  0.48559200  1
  H  505  1  0.77778400  0.78410600  0.45834900  1
  H  506  1  0.77758700  0.73611400  0.43413700  1
  H  507  1  0.77824900  0.68042800  0.51164900  1
  H  508  1  0.77749900  0.62832400  0.48532700  1
  H  509  1  0.71467400  0.61005800  0.44343200  1
  H  510  1  0.71400800  0.54044200  0.44295000  1
  H  511  1  0.83718100  0.60895800  0.44805200  1
  H  512  1  0.83678300  0.53935300  0.44718300  1
  H  513  1  0.77505800  0.63039000  0.40686200  1
  H  514  1  0.77533600  0.68282900  0.38095800  1
  H  515  1  0.77866200  0.89184700  0.40713000  1
  H  516  1  0.77893900  0.83975400  0.38081800  1
  H  517  1  0.83875100  0.75085800  0.37160500  1
  H  518  1  0.84012500  0.74985300  0.33678100  1
  H  519  1  0.71749500  0.77074200  0.37040300  1
  H  520  1  0.71862800  0.76932200  0.33556500  1
  H  521  1  0.74477600  0.80775800  0.30676400  1
  H  522  1  0.74531000  0.80417400  0.27200700  1
  H  523  1  0.81626900  0.70405400  0.27473100  1
  H  524  1  0.81530600  0.70709300  0.30945800  1
  H  525  1  0.71648000  0.91134560  0.44860700  1
  H  526  1  0.71704100  0.98097060  0.44789900  1
  H  527  1  0.82041300  0.03510900  0.42241400  1
  H  528  1  0.82151500  0.10462300  0.42177600  1
  H  529  1  0.73833300  0.10764900  0.46699300  1
  H  530  1  0.73767800  0.03837400  0.46794000  1
  H  531  1  0.83985300  0.97964660  0.44387700  1
  H  532  1  0.83904600  0.91001260  0.44423300  1
  H  533  1  0.81630700  0.48257700  0.46739400  1
  H  534  1  0.81555600  0.41315000  0.46702100  1
  H  535  1  0.73303000  0.48415500  0.42214800  1
  H  536  1  0.73190700  0.41455500  0.42212900  1
  H  546  1  0.83509700  0.70718200  0.18516900  1
  H  548  1  0.73819200  0.80008500  0.20666900  1
  H  549  1  0.74542800  0.78691700  0.17295300  1
  H  551  1  0.85930400  0.69545200  0.21596300  1
  H  552  1  0.82100400  0.69364600  0.23295000  1
  H  553  1  0.85345300  0.73411200  0.23253000  1
  H  555  1  0.81372700  0.71510700  0.15240200  1
  H  557  1  0.76933200  0.80013200  0.23888900  1
  H  563  1  0.73011400  0.70234700  0.68424900  1
  H  565  1  0.82447700  0.79623000  0.70733000  1
  H  566  1  0.81232800  0.79052100  0.67348000  1
  H  568  1  0.71641200  0.67753900  0.71468400  1
  H  569  1  0.71531100  0.71509600  0.73209000  1
  H  570  1  0.75476900  0.68141900  0.73152600  1
  H  572  1  0.73996900  0.72431300  0.65174500  1
  H  574  1  0.82247900  0.76528500  0.73922900  1
  H  580  1  0.25823900  0.81926200  0.94751360  1
  H  582  1  0.30597100  0.68661600  0.94810360  1
  H  583  1  0.23792100  0.69842800  0.94657560  1
  H  585  1  0.31957800  0.84699900  0.95056460  1
  H  586  1  0.35434800  0.82084500  0.93699460  1
  H  587  1  0.35342600  0.81735700  0.96284360  1
  H  589  1  0.19299700  0.79511500  0.95072660  1
  H  591  1  0.36864800  0.71511900  0.96110760  1
  H  597  1  0.84845400  0.28491800  0.44749000  1
  H  599  1  0.71581300  0.23716200  0.44809400  1
  H  600  1  0.72761700  0.30521000  0.44654300  1
  H  602  1  0.87618900  0.22358200  0.45056200  1
  H  603  1  0.85008300  0.18879200  0.43700400  1
  H  604  1  0.84650500  0.18974800  0.46285100  1
  H  606  1  0.82428200  0.35016600  0.45067500  1
  H  608  1  0.74430600  0.17451500  0.46113400  1
  H  681  1  0.52998800  0.55858000  0.07515200  1
  H  682  1  0.52977400  0.55673400  0.04036600  1
  H  683  1  0.62793000  0.48442000  0.07586800  1
  H  684  1  0.62811800  0.48285900  0.04122400  1
  H  685  1  0.58772800  0.45743700  0.01332400  1
  H  686  1  0.58864800  0.45606100  0.97849830  1
  H  687  1  0.57056600  0.57928200  0.01199300  1
  H  688  1  0.57096200  0.57764400  0.97717430  1
  H  689  1  0.50180400  0.51448600  0.96787730  1
  H  690  1  0.44936300  0.51446700  0.94194830  1
  H  691  1  0.55514200  0.51621200  0.91471130  1
  H  692  1  0.60315300  0.51564700  0.89049600  1
  H  693  1  0.65879800  0.51690300  0.96802030  1
  H  694  1  0.71091400  0.51593300  0.94169830  1
  H  695  1  0.72909200  0.45281000  0.89977200  1
  H  696  1  0.79870400  0.45202400  0.89928900  1
  H  697  1  0.73040100  0.57532500  0.90444230  1
  H  698  1  0.80000500  0.57480200  0.90357430  1
  H  699  1  0.70888000  0.51304400  0.86322400  1
  H  700  1  0.65642800  0.51301700  0.83731500  1
  H  701  1  0.44742000  0.51655300  0.86349200  1
  H  702  1  0.49951100  0.51649200  0.83718600  1
  H  703  1  0.58765300  0.57575400  0.82751400  1
  H  704  1  0.58649800  0.57631800  0.79268700  1
  H  705  1  0.56853400  0.45435200  0.82722700  1
  H  706  1  0.56783200  0.45466400  0.79238900  1
  H  707  1  0.52547800  0.48034000  0.76518000  1
  H  708  1  0.52295900  0.48124500  0.73044100  1
  H  709  1  0.62229800  0.55345400  0.72899100  1
  H  710  1  0.62539200  0.55208600  0.76373400  1
  H  711  1  0.42799700  0.45462800  0.90494330  1
  H  712  1  0.35837500  0.45507600  0.90421630  1
  H  713  1  0.30410500  0.55828800  0.87874600  1
  H  714  1  0.23459200  0.55928300  0.87808800  1
  H  715  1  0.23163900  0.47622300  0.92329130  1
  H  716  1  0.30091600  0.47567200  0.92425530  1
  H  717  1  0.35950700  0.57788100  0.90023230  1
  H  718  1  0.42914200  0.57718500  0.90060730  1
  H  719  1  0.85673000  0.55426400  0.92377930  1
  H  720  1  0.92615450  0.55342800  0.92340330  1
  H  721  1  0.85503700  0.47093300  0.87848800  1
  H  722  1  0.92463650  0.46972500  0.87846400  1
  H  799  1  0.61358500  0.57234600  0.57580700  1
  H  800  1  0.61249100  0.57409500  0.54102000  1
  H  801  1  0.53959900  0.47426800  0.57509900  1
  H  802  1  0.53877300  0.47562500  0.54046200  1
  H  803  1  0.51376700  0.51725200  0.51297100  1
  H  804  1  0.51306400  0.51731600  0.47814300  1
  H  805  1  0.63562400  0.53449100  0.51225200  1
  H  806  1  0.63466200  0.53506900  0.47742200  1
  H  807  1  0.57203700  0.60440700  0.46782600  1
  H  808  1  0.57222600  0.65686100  0.44189800  1
  H  809  1  0.57389400  0.55108800  0.41465500  1
  H  810  1  0.57369700  0.50309600  0.39044300  1
  H  811  1  0.57435900  0.44741000  0.46795500  1
  H  812  1  0.57360900  0.39530600  0.44163300  1
  H  813  1  0.51078400  0.37704000  0.39973800  1
  H  814  1  0.51011800  0.30742400  0.39925600  1
  H  815  1  0.63329100  0.37594000  0.40435800  1
  H  816  1  0.63289300  0.30633500  0.40348900  1
  H  817  1  0.57116800  0.39737200  0.36316800  1
  H  818  1  0.57144600  0.44981100  0.33726400  1
  H  819  1  0.57477200  0.65882900  0.36343600  1
  H  820  1  0.57504900  0.60673600  0.33712400  1
  H  821  1  0.63486100  0.51784000  0.32791100  1
  H  822  1  0.63623500  0.51683500  0.29308700  1
  H  823  1  0.51360500  0.53772400  0.32670900  1
  H  824  1  0.51473800  0.53630400  0.29187100  1
  H  825  1  0.54088600  0.57474000  0.26307000  1
  H  826  1  0.54142000  0.57115600  0.22831300  1
  H  827  1  0.61237900  0.47103600  0.23103700  1
  H  828  1  0.61141600  0.47407500  0.26576400  1
  H  829  1  0.51259000  0.67832800  0.40491300  1
  H  830  1  0.51315100  0.74795300  0.40420500  1
  H  831  1  0.61652300  0.80209100  0.37872000  1
  H  832  1  0.61762500  0.87160500  0.37808200  1
  H  833  1  0.53444300  0.87463100  0.42329900  1
  H  834  1  0.53378800  0.80535600  0.42424600  1
  H  835  1  0.63596300  0.74662900  0.40018300  1
  H  836  1  0.63515600  0.67699500  0.40053900  1
  H  837  1  0.61241700  0.24955900  0.42370000  1
  H  838  1  0.61166600  0.18013200  0.42332700  1
  H  839  1  0.52914000  0.25113700  0.37845400  1
  H  840  1  0.52801700  0.18153700  0.37843500  1
  H  850  1  0.63120700  0.47416400  0.14147500  1
  H  852  1  0.53430200  0.56706700  0.16297500  1
  H  853  1  0.54153800  0.55389900  0.12925900  1
  H  855  1  0.65541400  0.46243400  0.17226900  1
  H  856  1  0.61711400  0.46062800  0.18925600  1
  H  857  1  0.64956300  0.50109400  0.18883600  1
  H  859  1  0.60983700  0.48208900  0.10870800  1
  H  861  1  0.56544200  0.56711400  0.19519500  1
  H  867  1  0.52622400  0.46932900  0.64055500  1
  H  869  1  0.62058700  0.56321200  0.66363600  1
  H  870  1  0.60843800  0.55750300  0.62978600  1
  H  872  1  0.51252200  0.44452100  0.67099000  1
  H  873  1  0.51142100  0.48207800  0.68839600  1
  H  874  1  0.55087900  0.44840100  0.68783200  1
  H  876  1  0.53607900  0.49129500  0.60805100  1
  H  878  1  0.61858900  0.53226700  0.69553500  1
  H  884  1  0.05434900  0.58624400  0.90382030  1
  H  886  1  0.10208100  0.45359800  0.90441030  1
  H  887  1  0.03403100  0.46541000  0.90288230  1
  H  889  1  0.11568800  0.61398100  0.90687130  1
  H  890  1  0.15045800  0.58782700  0.89330100  1
  H  891  1  0.14953600  0.58433900  0.91915030  1
  H  893  1  0.98910650  0.56209700  0.90703330  1
  H  895  1  0.16475800  0.48210100  0.91741430  1
  H  901  1  0.64456400  0.05190000  0.40379600  1
  H  903  1  0.51192300  0.00414400  0.40440000  1
  H  904  1  0.52372700  0.07219200  0.40284900  1
  H  906  1  0.67229900  0.99056420  0.40686800  1
  H  907  1  0.64619300  0.95577420  0.39331000  1
  H  908  1  0.64261500  0.95673020  0.41915700  1
  H  910  1  0.62039200  0.11714800  0.40698100  1
  H  912  1  0.54041600  0.94149720  0.41744000  1
  C  1  1  0.91497200  0.98079500  0.04062000  1
  C  2  1  0.88637200  0.98073400  0.02648900  1
  C  3  1  0.90444200  0.98115000  0.00824700  1
  C  5  1  0.95127500  0.98142900  0.03138900  1
  C  6  1  0.98788700  0.98189500  0.04115000  1
  C  7  1  0.02471700  0.98173600  0.03166000  1
  C  9  1  0.07075500  0.98114700  0.00841300  1
  C  10  1  0.08938500  0.98178100  0.02648600  1
  C  11  1  0.06106900  0.98230400  0.04078300  1
  C  12  1  0.08935800  0.98054300  0.98990900  1
  C  13  1  0.06939600  0.98025400  0.97172600  1
  C  15  1  0.02256200  0.98051200  0.94858800  1
  C  16  1  0.05883800  0.97959300  0.93934600  1
  C  17  1  0.08744000  0.97954900  0.95347400  1
  C  18  1  0.98595900  0.98090900  0.93882900  1
  C  19  1  0.94914900  0.98125700  0.94832700  1
  C  21  1  0.90313100  0.98159100  0.97156500  1
  C  22  1  0.88450200  0.98211300  0.95348900  1
  C  23  1  0.91280900  0.98204700  0.93919600  1
  C  24  1  0.88450300  0.98150000  0.99006200  1
  C  25  1  0.84287000  0.98189700  0.99029900  1
  C  26  1  0.82220300  0.01734200  0.98886700  1
  C  27  1  0.78117900  0.01760700  0.98847400  1
  C  28  1  0.75941800  0.98257100  0.98955600  1
  C  29  1  0.78051300  0.94721300  0.99115600  1
  C  30  1  0.82154300  0.94680700  0.99145000  1
  C  31  1  0.71763500  0.98284400  0.98894300  1
  C  32  1  0.69526800  0.95902800  0.00155300  1
  C  33  1  0.65423800  0.95944000  0.00105400  1
  C  34  1  0.63395000  0.98352800  0.98777400  1
  C  35  1  0.65606800  0.00731900  0.97518700  1
  C  36  1  0.69709600  0.00698800  0.97574000  1
  C  37  1  0.98605100  0.98103600  0.91801400  1
  C  38  1  0.99144600  0.01608400  0.90760100  1
  C  39  1  0.99103300  0.01626400  0.88708800  1
  C  40  1  0.98493100  0.98156300  0.87632000  1
  C  41  1  0.97958600  0.94655900  0.88692700  1
  C  42  1  0.98025300  0.94622000  0.90743700  1
  C  43  1  0.98363000  0.98197400  0.85545900  1
  C  44  1  0.01121000  0.00320200  0.84435000  1
  C  45  1  0.00968700  0.00373200  0.82383400  1
  C  46  1  0.98026500  0.98320600  0.81371900  1
  C  47  1  0.95252900  0.96231100  0.82470200  1
  C  48  1  0.95429900  0.96148500  0.84518700  1
  C  49  1  0.13099600  0.98015700  0.98959200  1
  C  50  1  0.15161800  0.94471300  0.98797600  1
  C  51  1  0.19264400  0.94440100  0.98751600  1
  C  52  1  0.21447300  0.97937900  0.98874000  1
  C  53  1  0.19340000  0.01475800  0.99038400  1
  C  54  1  0.15237300  0.01521900  0.99075400  1
  C  55  1  0.25628900  0.97899400  0.98842900  1
  C  56  1  0.27824000  0.00288700  0.00119400  1
  C  57  1  0.31927200  0.00242400  0.00101700  1
  C  58  1  0.33995200  0.97819900  0.98792900  1
  C  59  1  0.31833500  0.95390400  0.97537700  1
  C  60  1  0.27728000  0.95445500  0.97553700  1
  C  61  1  0.98770300  0.98275400  0.06196200  1
  C  62  1  0.99265500  0.94821900  0.07284100  1
  C  63  1  0.98229400  0.01818500  0.07207700  1
  C  64  1  0.98175400  0.01899200  0.09258700  1
  C  65  1  0.98684200  0.98454900  0.10366500  1
  C  66  1  0.99236100  0.94918500  0.09335000  1
  C  67  1  0.98659400  0.98546300  0.12454300  1
  C  68  1  0.01454100  0.96450400  0.13550100  1
  C  69  1  0.01452300  0.96548500  0.15601100  1
  C  70  1  0.98628300  0.98727400  0.16637500  1
  C  71  1  0.95855100  0.00842800  0.15552600  1
  C  72  1  0.95865600  0.00753700  0.13500500  1
  C  119  1  0.98019400  0.06506300  0.54057000  1
  C  120  1  0.98024300  0.09366800  0.52643800  1
  C  121  1  0.98072700  0.07560400  0.50819300  1
  C  123  1  0.98081500  0.02876600  0.53133600  1
  C  124  1  0.98112700  0.99215000  0.54109300  1
  C  125  1  0.98107100  0.95532200  0.53159800  1
  C  127  1  0.98067700  0.90929100  0.50835200  1
  C  128  1  0.98119700  0.89065200  0.52642300  1
  C  129  1  0.98159500  0.91896500  0.54072000  1
  C  130  1  0.98018400  0.89069200  0.48984900  1
  C  131  1  0.97998300  0.91067000  0.47167100  1
  C  133  1  0.98053100  0.95751000  0.44853400  1
  C  134  1  0.97962400  0.92122700  0.43929400  1
  C  135  1  0.97939600  0.89262600  0.45342000  1
  C  136  1  0.98114200  0.99411400  0.43876800  1
  C  137  1  0.98131700  0.03092100  0.44826300  1
  C  139  1  0.98136000  0.07692700  0.47150600  1
  C  140  1  0.98205900  0.09556100  0.45343000  1
  C  141  1  0.98218700  0.06725600  0.43913400  1
  C  142  1  0.98114100  0.09554500  0.49000800  1
  C  143  1  0.98159700  0.13717700  0.49024700  1
  C  144  1  0.01707800  0.15779100  0.48881000  1
  C  145  1  0.01740800  0.19881300  0.48842600  1
  C  146  1  0.98240500  0.22062800  0.48952100  1
  C  147  1  0.94700900  0.19958600  0.49111500  1
  C  148  1  0.94653800  0.15855800  0.49141500  1
  C  149  1  0.98274700  0.26241300  0.48892100  1
  C  150  1  0.95892100  0.28480100  0.50153700  1
  C  151  1  0.95940300  0.32583200  0.50105200  1
  C  152  1  0.98358700  0.34609900  0.48778700  1
  C  153  1  0.00735800  0.32395800  0.47518000  1
  C  154  1  0.00695200  0.28293100  0.47571700  1
  C  155  1  0.98189600  0.99395900  0.41795400  1
  C  156  1  0.01718300  0.98789800  0.40780900  1
  C  157  1  0.01784100  0.98706600  0.38730300  1
  C  158  1  0.98339700  0.99253000  0.37626900  1
  C  159  1  0.94822300  0.99896400  0.38660000  1
  C  160  1  0.94740400  0.99952400  0.40711100  1
  C  161  1  0.98401600  0.99091500  0.35541600  1
  C  162  1  0.00469500  0.96118100  0.34551100  1
  C  163  1  0.00498700  0.95911900  0.32503000  1
  C  164  1  0.98504900  0.98694300  0.31368900  1
  C  165  1  0.96430100  0.01673900  0.32343500  1
  C  166  1  0.96369900  0.01855200  0.34394800  1
  C  167  1  0.97986100  0.84905500  0.48953000  1
  C  168  1  0.94445500  0.82837100  0.48793400  1
  C  169  1  0.94421300  0.78734300  0.48748700  1
  C  170  1  0.97922800  0.76557500  0.48868400  1
  C  171  1  0.01457000  0.78670900  0.49031400  1
  C  172  1  0.01495700  0.82773600  0.49068200  1
  C  173  1  0.97891800  0.72375900  0.48836800  1
  C  174  1  0.00283700  0.70183800  0.50111500  1
  C  175  1  0.00241200  0.66080900  0.50094600  1
  C  176  1  0.97821500  0.64009500  0.48787800  1
  C  177  1  0.95391600  0.66168000  0.47533500  1
  C  178  1  0.95443000  0.70273200  0.47548500  1
  C  179  1  0.98156300  0.99227300  0.56191000  1
  C  180  1  0.94681700  0.98704000  0.57261300  1
  C  181  1  0.01679100  0.99744300  0.57220100  1
  C  182  1  0.01720400  0.99739400  0.59271600  1
  C  183  1  0.98256200  0.99189100  0.60361600  1
  C  184  1  0.94738900  0.98673300  0.59312400  1
  C  185  1  0.98309200  0.99121300  0.62449200  1
  C  186  1  0.96197700  0.96273200  0.63504200  1
  C  187  1  0.96252200  0.96183700  0.65554900  1
  C  188  1  0.98401400  0.98965800  0.66632200  1
  C  189  1  0.00536900  0.01788700  0.65587800  1
  C  190  1  0.00492100  0.01869300  0.63535700  1
  C  237  1  0.99508500  0.97865800  0.21940900  1
  C  238  1  0.01837700  0.95970600  0.23351700  1
  C  239  1  0.01468100  0.96703500  0.25377900  1
  C  240  1  0.98617700  0.99439500  0.26041200  1
  C  241  1  0.96272200  0.01314600  0.24624200  1
  C  243  1  0.96698700  0.00548000  0.22622200  1
  C  246  1  0.04155700  0.94617500  0.26725900  1
  C  250  1  0.00050500  0.97038600  0.19964000  1
  C  252  1  0.98118200  0.00581700  0.27986400  1
  C  254  1  0.97381200  0.97865500  0.71919300  1
  C  255  1  0.95383300  0.95532000  0.73293900  1
  C  256  1  0.96052800  0.95810700  0.75328800  1
  C  257  1  0.98834700  0.98567800  0.76040400  1
  C  258  1  0.00808200  0.00921700  0.74658000  1
  C  260  1  0.00101800  0.00587100  0.72646900  1
  C  263  1  0.93846000  0.93128200  0.76632500  1
  C  267  1  0.96613300  0.97412200  0.69931400  1
  C  269  1  0.99931800  0.98974900  0.77998600  1
  C  271  1  0.44523900  0.99324800  0.99044800  1
  C  272  1  0.47241700  0.02425800  0.99104400  1
  C  273  1  0.51322200  0.01798300  0.99202100  1
  C  274  1  0.52771800  0.97900000  0.99227900  1
  C  275  1  0.50055300  0.94798700  0.99132800  1
  C  277  1  0.46021100  0.95490300  0.99036900  1
  C  280  1  0.53937900  0.05251300  0.99347100  1
  C  284  1  0.40530800  0.00121200  0.99104500  1
  C  286  1  0.56674900  0.96935000  0.99539800  1
  C  288  1  0.99331300  0.53481300  0.49042100  1
  C  289  1  0.02432400  0.50764400  0.49103000  1
  C  290  1  0.01805100  0.46683600  0.49201500  1
  C  291  1  0.97907100  0.45233400  0.49227700  1
  C  292  1  0.94805700  0.47949300  0.49131800  1
  C  294  1  0.95497100  0.51983600  0.49035100  1
  C  297  1  0.05257900  0.44068500  0.49347400  1
  C  301  1  0.00126400  0.57475000  0.49100500  1
  C  303  1  0.96941500  0.41330900  0.49540700  1
  C  305  1  0.71108200  0.74777800  0.99692663  1
  C  306  1  0.68248200  0.74771700  0.98279560  1
  C  307  1  0.70055200  0.74813300  0.96455360  1
  C  309  1  0.74738500  0.74841200  0.98769560  1
  C  310  1  0.78399700  0.74887800  0.99745663  1
  C  311  1  0.82082700  0.74871900  0.98796660  1
  C  313  1  0.86686500  0.74813000  0.96471960  1
  C  314  1  0.88549500  0.74876400  0.98279260  1
  C  315  1  0.85717900  0.74928700  0.99708963  1
  C  316  1  0.88546800  0.74752600  0.94621560  1
  C  317  1  0.86550600  0.74723700  0.92803260  1
  C  319  1  0.81867200  0.74749500  0.90489460  1
  C  320  1  0.85494800  0.74657600  0.89565300  1
  C  321  1  0.88355000  0.74653200  0.90978060  1
  C  322  1  0.78206900  0.74789200  0.89513600  1
  C  323  1  0.74525900  0.74824000  0.90463360  1
  C  325  1  0.69924100  0.74857400  0.92787160  1
  C  326  1  0.68061200  0.74909600  0.90979560  1
  C  327  1  0.70891900  0.74903000  0.89550300  1
  C  328  1  0.68061300  0.74848300  0.94636860  1
  C  329  1  0.63898000  0.74888000  0.94660560  1
  C  330  1  0.61831300  0.78432500  0.94517360  1
  C  331  1  0.57728900  0.78459000  0.94478060  1
  C  332  1  0.55552800  0.74955400  0.94586260  1
  C  333  1  0.57662300  0.71419600  0.94746260  1
  C  334  1  0.61765300  0.71379000  0.94775660  1
  C  335  1  0.51374500  0.74982700  0.94524960  1
  C  336  1  0.49137800  0.72601100  0.95785960  1
  C  337  1  0.45034800  0.72642300  0.95736060  1
  C  338  1  0.43006000  0.75051100  0.94408060  1
  C  339  1  0.45217800  0.77430200  0.93149360  1
  C  340  1  0.49320600  0.77397100  0.93204660  1
  C  341  1  0.78216100  0.74801900  0.87432100  1
  C  342  1  0.78755600  0.78306700  0.86390800  1
  C  343  1  0.78714300  0.78324700  0.84339500  1
  C  344  1  0.78104100  0.74854600  0.83262700  1
  C  345  1  0.77569600  0.71354200  0.84323400  1
  C  346  1  0.77636300  0.71320300  0.86374400  1
  C  347  1  0.77974000  0.74895700  0.81176600  1
  C  348  1  0.80732000  0.77018500  0.80065700  1
  C  349  1  0.80579700  0.77071500  0.78014100  1
  C  350  1  0.77637500  0.75018900  0.77002600  1
  C  351  1  0.74863900  0.72929400  0.78100900  1
  C  352  1  0.75040900  0.72846800  0.80149400  1
  C  353  1  0.92710580  0.74714000  0.94589860  1
  C  354  1  0.94772780  0.71169600  0.94428260  1
  C  355  1  0.98875380  0.71138400  0.94382260  1
  C  356  1  0.01058300  0.74636200  0.94504660  1
  C  357  1  0.98950980  0.78174100  0.94669060  1
  C  358  1  0.94848280  0.78220200  0.94706060  1
  C  359  1  0.05239900  0.74597700  0.94473560  1
  C  360  1  0.07435000  0.76987000  0.95750060  1
  C  361  1  0.11538200  0.76940700  0.95732360  1
  C  362  1  0.13606200  0.74518200  0.94423560  1
  C  363  1  0.11444500  0.72088700  0.93168360  1
  C  364  1  0.07339000  0.72143800  0.93184360  1
  C  365  1  0.78381300  0.74973700  0.01826900  1
  C  366  1  0.78876500  0.71520200  0.02914800  1
  C  367  1  0.77840400  0.78516800  0.02838400  1
  C  368  1  0.77786400  0.78597500  0.04889400  1
  C  369  1  0.78295200  0.75153200  0.05997200  1
  C  370  1  0.78847100  0.71616800  0.04965700  1
  C  371  1  0.78270400  0.75244600  0.08085000  1
  C  372  1  0.81065100  0.73148700  0.09180800  1
  C  373  1  0.81063300  0.73246800  0.11231800  1
  C  374  1  0.78239300  0.75425700  0.12268200  1
  C  375  1  0.75466100  0.77541100  0.11183300  1
  C  376  1  0.75476600  0.77452000  0.09131200  1
  C  423  1  0.77630400  0.83204600  0.49687700  1
  C  424  1  0.77635300  0.86065100  0.48274500  1
  C  425  1  0.77683700  0.84258700  0.46450000  1
  C  427  1  0.77692500  0.79574900  0.48764300  1
  C  428  1  0.77723700  0.75913300  0.49740000  1
  C  429  1  0.77718100  0.72230500  0.48790500  1
  C  431  1  0.77678700  0.67627400  0.46465900  1
  C  432  1  0.77730700  0.65763500  0.48273000  1
  C  433  1  0.77770500  0.68594800  0.49702700  1
  C  434  1  0.77629400  0.65767500  0.44615600  1
  C  435  1  0.77609300  0.67765300  0.42797800  1
  C  437  1  0.77664100  0.72449300  0.40484100  1
  C  438  1  0.77573400  0.68821000  0.39560100  1
  C  439  1  0.77550600  0.65960900  0.40972700  1
  C  440  1  0.77725200  0.76109700  0.39507500  1
  C  441  1  0.77742700  0.79790400  0.40457000  1
  C  443  1  0.77747000  0.84391000  0.42781300  1
  C  444  1  0.77816900  0.86254400  0.40973700  1
  C  445  1  0.77829700  0.83423900  0.39544100  1
  C  446  1  0.77725100  0.86252800  0.44631500  1
  C  447  1  0.77770700  0.90415960  0.44655400  1
  C  448  1  0.81318800  0.92477360  0.44511700  1
  C  449  1  0.81351800  0.96579560  0.44473300  1
  C  450  1  0.77851500  0.98761060  0.44582800  1
  C  451  1  0.74311900  0.96656860  0.44742200  1
  C  452  1  0.74264800  0.92554060  0.44772200  1
  C  453  1  0.77885700  0.02939600  0.44522800  1
  C  454  1  0.75503100  0.05178400  0.45784400  1
  C  455  1  0.75551300  0.09281500  0.45735900  1
  C  456  1  0.77969700  0.11308200  0.44409400  1
  C  457  1  0.80346800  0.09094100  0.43148700  1
  C  458  1  0.80306200  0.04991400  0.43202400  1
  C  459  1  0.77800600  0.76094200  0.37426100  1
  C  460  1  0.81329300  0.75488100  0.36411600  1
  C  461  1  0.81395100  0.75404900  0.34361000  1
  C  462  1  0.77950700  0.75951300  0.33257600  1
  C  463  1  0.74433300  0.76594700  0.34290700  1
  C  464  1  0.74351400  0.76650700  0.36341800  1
  C  465  1  0.78012600  0.75789800  0.31172300  1
  C  466  1  0.80080500  0.72816400  0.30181800  1
  C  467  1  0.80109700  0.72610200  0.28133700  1
  C  468  1  0.78115900  0.75392600  0.26999600  1
  C  469  1  0.76041100  0.78372200  0.27974200  1
  C  470  1  0.75980900  0.78553500  0.30025500  1
  C  471  1  0.77597100  0.61603800  0.44583700  1
  C  472  1  0.74056500  0.59535400  0.44424100  1
  C  473  1  0.74032300  0.55432600  0.44379400  1
  C  474  1  0.77533800  0.53255800  0.44499100  1
  C  475  1  0.81068000  0.55369200  0.44662100  1
  C  476  1  0.81106700  0.59471900  0.44698900  1
  C  477  1  0.77502800  0.49074200  0.44467500  1
  C  478  1  0.79894700  0.46882100  0.45742200  1
  C  479  1  0.79852200  0.42779200  0.45725300  1
  C  480  1  0.77432500  0.40707800  0.44418500  1
  C  481  1  0.75002600  0.42866300  0.43164200  1
  C  482  1  0.75054000  0.46971500  0.43179200  1
  C  483  1  0.77767300  0.75925600  0.51821700  1
  C  484  1  0.74292700  0.75402300  0.52892000  1
  C  485  1  0.81290100  0.76442600  0.52850800  1
  C  486  1  0.81331400  0.76437700  0.54902300  1
  C  487  1  0.77867200  0.75887400  0.55992300  1
  C  488  1  0.74349900  0.75371600  0.54943100  1
  C  489  1  0.77920200  0.75819600  0.58079900  1
  C  490  1  0.75808700  0.72971500  0.59134900  1
  C  491  1  0.75863200  0.72882000  0.61185600  1
  C  492  1  0.78012400  0.75664100  0.62262900  1
  C  493  1  0.80147900  0.78487000  0.61218500  1
  C  494  1  0.80103100  0.78567600  0.59166400  1
  C  541  1  0.79119500  0.74564100  0.17571600  1
  C  542  1  0.81448700  0.72668900  0.18982400  1
  C  543  1  0.81079100  0.73401800  0.21008600  1
  C  544  1  0.78228700  0.76137800  0.21671900  1
  C  545  1  0.75883200  0.78012900  0.20254900  1
  C  547  1  0.76309700  0.77246300  0.18252900  1
  C  550  1  0.83766700  0.71315800  0.22356600  1
  C  554  1  0.79661500  0.73736900  0.15594700  1
  C  556  1  0.77729200  0.77280000  0.23617100  1
  C  558  1  0.76992200  0.74563800  0.67550000  1
  C  559  1  0.74994300  0.72230300  0.68924600  1
  C  560  1  0.75663800  0.72509000  0.70959500  1
  C  561  1  0.78445700  0.75266100  0.71671100  1
  C  562  1  0.80419200  0.77620000  0.70288700  1
  C  564  1  0.79712800  0.77285400  0.68277600  1
  C  567  1  0.73457000  0.69826500  0.72263200  1
  C  571  1  0.76224300  0.74110500  0.65562100  1
  C  573  1  0.79542800  0.75673200  0.73629300  1
  C  575  1  0.24134900  0.76023100  0.94675460  1
  C  576  1  0.26852700  0.79124100  0.94735060  1
  C  577  1  0.30933200  0.78496600  0.94832760  1
  C  578  1  0.32382800  0.74598300  0.94858560  1
  C  579  1  0.29666300  0.71497000  0.94763460  1
  C  581  1  0.25632100  0.72188600  0.94667560  1
  C  584  1  0.33548900  0.81949600  0.94977760  1
  C  588  1  0.20141800  0.76819500  0.94735160  1
  C  590  1  0.36285900  0.73633300  0.95170460  1
  C  592  1  0.78942300  0.30179600  0.44672800  1
  C  593  1  0.82043400  0.27462700  0.44733700  1
  C  594  1  0.81416100  0.23381900  0.44832200  1
  C  595  1  0.77518100  0.21931700  0.44858400  1
  C  596  1  0.74416700  0.24647600  0.44762500  1
  C  598  1  0.75108100  0.28681900  0.44665800  1
  C  601  1  0.84868900  0.20766800  0.44978100  1
  C  605  1  0.79737400  0.34173300  0.44731200  1
  C  607  1  0.76552500  0.18029200  0.45171400  1
  C  609  1  0.50719200  0.51476000  0.95323330  1
  C  610  1  0.47859200  0.51469900  0.93910230  1
  C  611  1  0.49666200  0.51511500  0.92086030  1
  C  613  1  0.54349500  0.51539400  0.94400230  1
  C  614  1  0.58010700  0.51586000  0.95376330  1
  C  615  1  0.61693700  0.51570100  0.94427330  1
  C  617  1  0.66297500  0.51511200  0.92102630  1
  C  618  1  0.68160500  0.51574600  0.93909930  1
  C  619  1  0.65328900  0.51626900  0.95339630  1
  C  620  1  0.68157800  0.51450800  0.90252230  1
  C  621  1  0.66161600  0.51421900  0.88433900  1
  C  623  1  0.61478200  0.51447700  0.86120100  1
  C  624  1  0.65105800  0.51355800  0.85195900  1
  C  625  1  0.67966000  0.51351400  0.86608700  1
  C  626  1  0.57817900  0.51487400  0.85144200  1
  C  627  1  0.54136900  0.51522200  0.86094000  1
  C  629  1  0.49535100  0.51555600  0.88417800  1
  C  630  1  0.47672200  0.51607800  0.86610200  1
  C  631  1  0.50502900  0.51601200  0.85180900  1
  C  632  1  0.47672300  0.51546500  0.90267530  1
  C  633  1  0.43509000  0.51586200  0.90291230  1
  C  634  1  0.41442300  0.55130700  0.90148030  1
  C  635  1  0.37339900  0.55157200  0.90108730  1
  C  636  1  0.35163800  0.51653600  0.90216930  1
  C  637  1  0.37273300  0.48117800  0.90376930  1
  C  638  1  0.41376300  0.48077200  0.90406330  1
  C  639  1  0.30985500  0.51680900  0.90155630  1
  C  640  1  0.28748800  0.49299300  0.91416630  1
  C  641  1  0.24645800  0.49340500  0.91366730  1
  C  642  1  0.22617000  0.51749300  0.90038730  1
  C  643  1  0.24828800  0.54128400  0.88780000  1
  C  644  1  0.28931600  0.54095300  0.88835300  1
  C  645  1  0.57827100  0.51500100  0.83062700  1
  C  646  1  0.58366600  0.55004900  0.82021400  1
  C  647  1  0.58325300  0.55022900  0.79970100  1
  C  648  1  0.57715100  0.51552800  0.78893300  1
  C  649  1  0.57180600  0.48052400  0.79954000  1
  C  650  1  0.57247300  0.48018500  0.82005000  1
  C  651  1  0.57585000  0.51593900  0.76807200  1
  C  652  1  0.60343000  0.53716700  0.75696300  1
  C  653  1  0.60190700  0.53769700  0.73644700  1
  C  654  1  0.57248500  0.51717100  0.72633200  1
  C  655  1  0.54474900  0.49627600  0.73731500  1
  C  656  1  0.54651900  0.49545000  0.75780000  1
  C  657  1  0.72321600  0.51412200  0.90220530  1
  C  658  1  0.74383800  0.47867800  0.90058930  1
  C  659  1  0.78486400  0.47836600  0.90012930  1
  C  660  1  0.80669300  0.51334400  0.90135330  1
  C  661  1  0.78562000  0.54872300  0.90299730  1
  C  662  1  0.74459300  0.54918400  0.90336730  1
  C  663  1  0.84850900  0.51295900  0.90104230  1
  C  664  1  0.87046000  0.53685200  0.91380730  1
  C  665  1  0.91149150  0.53638900  0.91363030  1
  C  666  1  0.93217150  0.51216400  0.90054230  1
  C  667  1  0.91055450  0.48786900  0.88799000  1
  C  668  1  0.86950000  0.48842000  0.88815000  1
  C  669  1  0.57992300  0.51671900  0.97457530  1
  C  670  1  0.58487500  0.48218400  0.98545430  1
  C  671  1  0.57451400  0.55215000  0.98469030  1
  C  672  1  0.57397400  0.55295700  0.00520000  1
  C  673  1  0.57906200  0.51851400  0.01627800  1
  C  674  1  0.58458100  0.48315000  0.00596300  1
  C  675  1  0.57881400  0.51942800  0.03715600  1
  C  676  1  0.60676100  0.49846900  0.04811400  1
  C  677  1  0.60674300  0.49945000  0.06862400  1
  C  678  1  0.57850300  0.52123900  0.07898800  1
  C  679  1  0.55077100  0.54239300  0.06813900  1
  C  680  1  0.55087600  0.54150200  0.04761800  1
  C  727  1  0.57241400  0.59902800  0.45318300  1
  C  728  1  0.57246300  0.62763300  0.43905100  1
  C  729  1  0.57294700  0.60956900  0.42080600  1
  C  731  1  0.57303500  0.56273100  0.44394900  1
  C  732  1  0.57334700  0.52611500  0.45370600  1
  C  733  1  0.57329100  0.48928700  0.44421100  1
  C  735  1  0.57289700  0.44325600  0.42096500  1
  C  736  1  0.57341700  0.42461700  0.43903600  1
  C  737  1  0.57381500  0.45293000  0.45333300  1
  C  738  1  0.57240400  0.42465700  0.40246200  1
  C  739  1  0.57220300  0.44463500  0.38428400  1
  C  741  1  0.57275100  0.49147500  0.36114700  1
  C  742  1  0.57184400  0.45519200  0.35190700  1
  C  743  1  0.57161600  0.42659100  0.36603300  1
  C  744  1  0.57336200  0.52807900  0.35138100  1
  C  745  1  0.57353700  0.56488600  0.36087600  1
  C  747  1  0.57358000  0.61089200  0.38411900  1
  C  748  1  0.57427900  0.62952600  0.36604300  1
  C  749  1  0.57440700  0.60122100  0.35174700  1
  C  750  1  0.57336100  0.62951000  0.40262100  1
  C  751  1  0.57381700  0.67114200  0.40286000  1
  C  752  1  0.60929800  0.69175600  0.40142300  1
  C  753  1  0.60962800  0.73277800  0.40103900  1
  C  754  1  0.57462500  0.75459300  0.40213400  1
  C  755  1  0.53922900  0.73355100  0.40372800  1
  C  756  1  0.53875800  0.69252300  0.40402800  1
  C  757  1  0.57496700  0.79637800  0.40153400  1
  C  758  1  0.55114100  0.81876600  0.41415000  1
  C  759  1  0.55162300  0.85979700  0.41366500  1
  C  760  1  0.57580700  0.88006400  0.40040000  1
  C  761  1  0.59957800  0.85792300  0.38779300  1
  C  762  1  0.59917200  0.81689600  0.38833000  1
  C  763  1  0.57411600  0.52792400  0.33056700  1
  C  764  1  0.60940300  0.52186300  0.32042200  1
  C  765  1  0.61006100  0.52103100  0.29991600  1
  C  766  1  0.57561700  0.52649500  0.28888200  1
  C  767  1  0.54044300  0.53292900  0.29921300  1
  C  768  1  0.53962400  0.53348900  0.31972400  1
  C  769  1  0.57623600  0.52488000  0.26802900  1
  C  770  1  0.59691500  0.49514600  0.25812400  1
  C  771  1  0.59720700  0.49308400  0.23764300  1
  C  772  1  0.57726900  0.52090800  0.22630200  1
  C  773  1  0.55652100  0.55070400  0.23604800  1
  C  774  1  0.55591900  0.55251700  0.25656100  1
  C  775  1  0.57208100  0.38302000  0.40214300  1
  C  776  1  0.53667500  0.36233600  0.40054700  1
  C  777  1  0.53643300  0.32130800  0.40010000  1
  C  778  1  0.57144800  0.29954000  0.40129700  1
  C  779  1  0.60679000  0.32067400  0.40292700  1
  C  780  1  0.60717700  0.36170100  0.40329500  1
  C  781  1  0.57113800  0.25772400  0.40098100  1
  C  782  1  0.59505700  0.23580300  0.41372800  1
  C  783  1  0.59463200  0.19477400  0.41355900  1
  C  784  1  0.57043500  0.17406000  0.40049100  1
  C  785  1  0.54613600  0.19564500  0.38794800  1
  C  786  1  0.54665000  0.23669700  0.38809800  1
  C  787  1  0.57378300  0.52623800  0.47452300  1
  C  788  1  0.53903700  0.52100500  0.48522600  1
  C  789  1  0.60901100  0.53140800  0.48481400  1
  C  790  1  0.60942400  0.53135900  0.50532900  1
  C  791  1  0.57478200  0.52585600  0.51622900  1
  C  792  1  0.53960900  0.52069800  0.50573700  1
  C  793  1  0.57531200  0.52517800  0.53710500  1
  C  794  1  0.55419700  0.49669700  0.54765500  1
  C  795  1  0.55474200  0.49580200  0.56816200  1
  C  796  1  0.57623400  0.52362300  0.57893500  1
  C  797  1  0.59758900  0.55185200  0.56849100  1
  C  798  1  0.59714100  0.55265800  0.54797000  1
  C  845  1  0.58730500  0.51262300  0.13202200  1
  C  846  1  0.61059700  0.49367100  0.14613000  1
  C  847  1  0.60690100  0.50100000  0.16639200  1
  C  848  1  0.57839700  0.52836000  0.17302500  1
  C  849  1  0.55494200  0.54711100  0.15885500  1
  C  851  1  0.55920700  0.53944500  0.13883500  1
  C  854  1  0.63377700  0.48014000  0.17987200  1
  C  858  1  0.59272500  0.50435100  0.11225300  1
  C  860  1  0.57340200  0.53978200  0.19247700  1
  C  862  1  0.56603200  0.51262000  0.63180600  1
  C  863  1  0.54605300  0.48928500  0.64555200  1
  C  864  1  0.55274800  0.49207200  0.66590100  1
  C  865  1  0.58056700  0.51964300  0.67301700  1
  C  866  1  0.60030200  0.54318200  0.65919300  1
  C  868  1  0.59323800  0.53983600  0.63908200  1
  C  871  1  0.53068000  0.46524700  0.67893800  1
  C  875  1  0.55835300  0.50808700  0.61192700  1
  C  877  1  0.59153800  0.52371400  0.69259900  1
  C  879  1  0.03745900  0.52721300  0.90306130  1
  C  880  1  0.06463700  0.55822300  0.90365730  1
  C  881  1  0.10544200  0.55194800  0.90463430  1
  C  882  1  0.11993800  0.51296500  0.90489230  1
  C  883  1  0.09277300  0.48195200  0.90394130  1
  C  885  1  0.05243100  0.48886800  0.90298230  1
  C  888  1  0.13159900  0.58647800  0.90608430  1
  C  892  1  0.99752755  0.53517700  0.90365830  1
  C  894  1  0.15896900  0.50331500  0.90801130  1
  C  896  1  0.58553300  0.06877800  0.40303400  1
  C  897  1  0.61654400  0.04160900  0.40364300  1
  C  898  1  0.61027100  0.00080100  0.40462800  1
  C  899  1  0.57129100  0.98629920  0.40489000  1
  C  900  1  0.54027700  0.01345800  0.40393100  1
  C  902  1  0.54719100  0.05380100  0.40296400  1
  C  905  1  0.64479900  0.97465020  0.40608700  1
  C  909  1  0.59348400  0.10871500  0.40361800  1
  C  911  1  0.56163500  0.94727420  0.40802000  1
  N  4  1  0.94324300  0.98145000  0.01203800  1
  N  8  1  0.03211400  0.98107500  0.01230500  1
  N  14  1  0.03060000  0.98081200  0.96793900  1
  N  20  1  0.94176400  0.98102500  0.96768100  1
  N  115  1  0.59520400  0.98675800  0.98683300  1
  N  116  1  0.98460200  0.99004600  0.18578800  1
  N  117  1  0.37877900  0.97560900  0.98751900  1
  N  118  1  0.97654200  0.98227900  0.79439500  1
  N  122  1  0.98098900  0.03680400  0.51198400  1
  N  126  1  0.98056300  0.94793000  0.51224500  1
  N  132  1  0.98059400  0.94946700  0.46788400  1
  N  138  1  0.98084900  0.03829800  0.46761800  1
  N  233  1  0.98682900  0.38484600  0.48683700  1
  N  234  1  0.98628200  0.99050600  0.68576300  1
  N  235  1  0.97565700  0.60126500  0.48748100  1
  N  236  1  0.98707400  0.98294900  0.29439800  1
  N  308  1  0.73935300  0.74843300  0.96834460  1
  N  312  1  0.82822400  0.74805800  0.96861160  1
  N  318  1  0.82671000  0.74779500  0.92424560  1
  N  324  1  0.73787400  0.74800800  0.92398760  1
  N  419  1  0.39131400  0.75374100  0.94313960  1
  N  420  1  0.78071200  0.75702900  0.14209500  1
  N  421  1  0.17488900  0.74259200  0.94382560  1
  N  422  1  0.77265200  0.74926200  0.75070200  1
  N  426  1  0.77709900  0.80378700  0.46829100  1
  N  430  1  0.77667300  0.71491300  0.46855200  1
  N  436  1  0.77670400  0.71645000  0.42419100  1
  N  442  1  0.77695900  0.80528100  0.42392500  1
  N  537  1  0.78293900  0.15182900  0.44314400  1
  N  538  1  0.78239200  0.75748900  0.64207000  1
  N  539  1  0.77176700  0.36824800  0.44378800  1
  N  540  1  0.78318400  0.74993200  0.25070500  1
  N  612  1  0.53546300  0.51541500  0.92465130  1
  N  616  1  0.62433400  0.51504000  0.92491830  1
  N  622  1  0.62282000  0.51477700  0.88055200  1
  N  628  1  0.53398400  0.51499000  0.88029400  1
  N  723  1  0.18742400  0.52072300  0.89944600  1
  N  724  1  0.57682200  0.52401100  0.09840100  1
  N  725  1  0.97099850  0.50957400  0.90013230  1
  N  726  1  0.56876200  0.51624400  0.70700800  1
  N  730  1  0.57320900  0.57076900  0.42459700  1
  N  734  1  0.57278300  0.48189500  0.42485800  1
  N  740  1  0.57281400  0.48343200  0.38049700  1
  N  746  1  0.57306900  0.57226300  0.38023100  1
  N  841  1  0.57904900  0.91881120  0.39945000  1
  N  842  1  0.57850200  0.52447100  0.59837600  1
  N  843  1  0.56787700  0.13523000  0.40009400  1
  N  844  1  0.57929400  0.51691400  0.20701100  1
