# generated using pymatgen
data_H12C18NO
_symmetry_space_group_name_H-M   'P 1'
_cell_length_a   24.63590000
_cell_length_b   40.06230000
_cell_length_c   40.06230000
_cell_angle_alpha   90.00000000
_cell_angle_beta   90.00000000
_cell_angle_gamma   90.00000000
_symmetry_Int_Tables_number   1
_chemical_formula_structural   H12C18NO
_chemical_formula_sum   'H384 C576 N32 O32'
_cell_volume   39540.32094467
_cell_formula_units_Z   32
loop_
 _symmetry_equiv_pos_site_id
 _symmetry_equiv_pos_as_xyz
  1  'x, y, z'
loop_
 _atom_site_type_symbol
 _atom_site_label
 _atom_site_symmetry_multiplicity
 _atom_site_fract_x
 _atom_site_fract_y
 _atom_site_fract_z
 _atom_site_occupancy
  C  1  1  0.12304600  0.12659600  0.10535600  1
  C  2  1  0.09478700  0.10844100  0.08057600  1
  C  3  1  0.09554500  0.07322100  0.08007300  1
  C  4  1  0.12477000  0.05628900  0.10522500  1
  C  5  1  0.15268400  0.07371400  0.13065000  1
  C  6  1  0.15115400  0.10910100  0.13085000  1
  C  9  1  0.12337400  0.16203300  0.10384900  1
  C  10  1  0.15000600  0.17908000  0.07748600  1
  C  11  1  0.14879200  0.21442600  0.07595200  1
  C  12  1  0.12015100  0.23224400  0.10077100  1
  C  13  1  0.09312200  0.21579900  0.12717500  1
  C  14  1  0.09539900  0.18058200  0.12845200  1
  C  21  1  0.62751000  0.66123800  0.10729200  1
  C  22  1  0.59964600  0.67911300  0.13243200  1
  C  23  1  0.60067500  0.71434300  0.13335300  1
  C  24  1  0.62959800  0.73153600  0.10822700  1
  C  25  1  0.65703200  0.71436600  0.08245000  1
  C  26  1  0.65547700  0.67900100  0.08192100  1
  C  29  1  0.62748800  0.62578900  0.10787300  1
  C  30  1  0.65684100  0.60781700  0.13249900  1
  C  31  1  0.65954200  0.57247400  0.13112500  1
  C  32  1  0.63179800  0.55556000  0.10528900  1
  C  33  1  0.60142000  0.57299100  0.08102700  1
  C  34  1  0.59921200  0.60813600  0.08276000  1
  C  41  1  0.62296400  0.16198300  0.60378800  1
  C  42  1  0.65025900  0.17992300  0.57845000  1
  C  43  1  0.64913700  0.21514500  0.57755400  1
  C  44  1  0.62065600  0.23229800  0.60288200  1
  C  45  1  0.59375800  0.21509100  0.62884900  1
  C  46  1  0.59544500  0.17971800  0.62936800  1
  C  49  1  0.62300800  0.12651500  0.60301600  1
  C  50  1  0.59536400  0.10870500  0.57754900  1
  C  51  1  0.59489700  0.07329300  0.57767600  1
  C  52  1  0.62215800  0.05614300  0.60354300  1
  C  53  1  0.65011500  0.07344500  0.62896900  1
  C  54  1  0.65080500  0.10865300  0.62819700  1
  C  61  1  0.12719400  0.62735600  0.60696300  1
  C  62  1  0.15502300  0.60888500  0.63170200  1
  C  63  1  0.15568400  0.57365700  0.63113500  1
  C  64  1  0.12890700  0.55701600  0.60478900  1
  C  65  1  0.10141000  0.57482000  0.57949100  1
  C  66  1  0.10061000  0.61018500  0.58065400  1
  C  69  1  0.12713300  0.66280100  0.60864300  1
  C  70  1  0.10093400  0.67994200  0.63509900  1
  C  71  1  0.10193000  0.71530700  0.63638500  1
  C  72  1  0.12990400  0.73304200  0.61121400  1
  C  73  1  0.15660300  0.71653000  0.58471200  1
  C  74  1  0.15461700  0.68129200  0.58378600  1
  C  81  1  0.37282300  0.89390900  0.33734700  1
  C  82  1  0.40142800  0.86983900  0.31844900  1
  C  83  1  0.40180500  0.87064700  0.28313200  1
  C  84  1  0.37204500  0.89625800  0.26709700  1
  C  85  1  0.34321700  0.92057500  0.28540600  1
  C  86  1  0.34395800  0.91956900  0.32069600  1
  C  89  1  0.37302700  0.89191700  0.37271500  1
  C  90  1  0.34432500  0.86625700  0.38947600  1
  C  91  1  0.34320400  0.86559500  0.42476900  1
  C  92  1  0.37191100  0.89002700  0.44298600  1
  C  93  1  0.40193200  0.91541500  0.42681800  1
  C  94  1  0.40155700  0.91611700  0.39150800  1
  C  101  1  0.87053800  0.89493000  0.87375000  1
  C  102  1  0.89851300  0.91908500  0.89290000  1
  C  103  1  0.89773200  0.91838600  0.92821500  1
  C  104  1  0.86728200  0.89292300  0.94397100  1
  C  105  1  0.83935800  0.86841800  0.92540200  1
  C  106  1  0.84149000  0.86917000  0.89013200  1
  C  109  1  0.87266900  0.89653000  0.83838500  1
  C  110  1  0.84322800  0.92114900  0.82049300  1
  C  111  1  0.84422200  0.92151600  0.78508100  1
  C  112  1  0.87642100  0.89757100  0.76828200  1
  C  113  1  0.90664600  0.87303600  0.78555000  1
  C  114  1  0.90400100  0.87281700  0.82077500  1
  C  121  1  0.87824800  0.39435900  0.37361600  1
  C  122  1  0.84806800  0.37065100  0.39198500  1
  C  123  1  0.84767100  0.37084300  0.42725800  1
  C  124  1  0.87902900  0.39538200  0.44375900  1
  C  125  1  0.90982000  0.41944700  0.42616700  1
  C  126  1  0.90860800  0.41906500  0.39077200  1
  C  129  1  0.87761100  0.39296100  0.33823100  1
  C  130  1  0.90546400  0.36735800  0.32078300  1
  C  131  1  0.90442700  0.36656700  0.28542800  1
  C  132  1  0.87523000  0.39125900  0.26782100  1
  C  133  1  0.84729900  0.41674600  0.28495900  1
  C  134  1  0.84841800  0.41736800  0.32013700  1
  C  141  1  0.37760000  0.39424100  0.83796100  1
  C  142  1  0.34906200  0.41820200  0.81888100  1
  C  143  1  0.34955700  0.41749000  0.78356500  1
  C  144  1  0.38011400  0.39211200  0.76774500  1
  C  145  1  0.40864600  0.36781500  0.78624100  1
  C  146  1  0.40702100  0.36868600  0.82151900  1
  C  149  1  0.37575800  0.39586900  0.87332600  1
  C  150  1  0.40490300  0.42071800  0.89107600  1
  C  151  1  0.40423600  0.42111200  0.92648300  1
  C  152  1  0.37262500  0.39698700  0.94343900  1
  C  153  1  0.34269600  0.37222800  0.92630600  1
  C  154  1  0.34503600  0.37195600  0.89107600  1
  C  161  1  0.06726400  0.05485000  0.05513000  1
  C  162  1  0.01102200  0.05947800  0.04996900  1
  C  163  1  0.98084400  0.03887100  0.02794800  1
  C  164  1  0.00870100  0.01351400  0.00970100  1
  C  165  1  0.06535400  0.00970600  0.01410300  1
  C  166  1  0.09411600  0.02987800  0.03659600  1
  C  169  1  0.98175400  0.99013100  0.98867600  1
  C  170  1  0.95376800  0.00030100  0.95961100  1
  C  171  1  0.92657600  0.97677700  0.93952300  1
  C  172  1  0.92686000  0.94236600  0.94770000  1
  C  173  1  0.95628200  0.93233100  0.97637500  1
  C  174  1  0.98314200  0.95576700  0.99655900  1
  C  183  1  0.57228400  0.73259500  0.15834200  1
  C  184  1  0.51589800  0.72820400  0.16310700  1
  C  185  1  0.48548800  0.74909700  0.18473900  1
  C  186  1  0.51321900  0.77447000  0.20303800  1
  C  187  1  0.57001500  0.77797900  0.19910800  1
  C  188  1  0.59902100  0.75755300  0.17696200  1
  C  191  1  0.48607600  0.79813000  0.22366100  1
  C  192  1  0.45734000  0.78827800  0.25255200  1
  C  193  1  0.43000700  0.81205100  0.27226900  1
  C  194  1  0.43098600  0.84642800  0.26395200  1
  C  195  1  0.46108200  0.85613800  0.23542800  1
  C  196  1  0.48805100  0.83244400  0.21559000  1
  C  205  1  0.67689700  0.23340400  0.55232000  1
  C  206  1  0.73325000  0.22921800  0.54726800  1
  C  207  1  0.76309500  0.25007600  0.52531200  1
  C  208  1  0.73479200  0.27520900  0.50701100  1
  C  209  1  0.67803600  0.27854600  0.51126900  1
  C  210  1  0.64960200  0.25815300  0.53372700  1
  C  213  1  0.76143500  0.29883000  0.48610800  1
  C  214  1  0.78997600  0.28888300  0.45717600  1
  C  215  1  0.81763700  0.31255400  0.43751200  1
  C  216  1  0.81721500  0.34689000  0.44597800  1
  C  217  1  0.78704800  0.35674200  0.47441700  1
  C  218  1  0.75971800  0.33314600  0.49418600  1
  C  227  1  0.18308900  0.55496900  0.65616900  1
  C  228  1  0.23910000  0.55959200  0.66215400  1
  C  229  1  0.26852900  0.53866700  0.68425800  1
  C  230  1  0.24007400  0.51305400  0.70180300  1
  C  231  1  0.18360200  0.50925700  0.69655100  1
  C  232  1  0.15562800  0.52969100  0.67392100  1
  C  235  1  0.26628500  0.48950800  0.72300700  1
  C  236  1  0.29371000  0.49950800  0.75233200  1
  C  237  1  0.32056700  0.47588700  0.77247000  1
  C  238  1  0.32038400  0.44151000  0.76414300  1
  C  239  1  0.29131500  0.43161800  0.73527800  1
  C  240  1  0.26487500  0.45516700  0.71501500  1
  C  249  1  0.43784200  0.34296600  0.76873100  1
  C  250  1  0.49320600  0.34762900  0.76105600  1
  C  251  1  0.52136000  0.32544600  0.73960100  1
  C  252  1  0.49274700  0.29760200  0.72605200  1
  C  253  1  0.43744600  0.29281900  0.73425500  1
  C  254  1  0.41019300  0.31530200  0.75525200  1
  C  257  1  0.51629000  0.27558600  0.70236900  1
  C  258  1  0.49976800  0.27696400  0.66862700  1
  C  259  1  0.52455600  0.25646600  0.64457400  1
  C  260  1  0.56606500  0.23386200  0.65370800  1
  C  261  1  0.58191200  0.23213500  0.68760000  1
  C  262  1  0.55727700  0.25275700  0.71169200  1
  C  271  1  0.31303200  0.84137100  0.44251100  1
  C  272  1  0.26019100  0.84881400  0.45387600  1
  C  273  1  0.23161800  0.82678300  0.47522800  1
  C  274  1  0.25733200  0.79649000  0.48511000  1
  C  275  1  0.30993500  0.78887000  0.47326600  1
  C  276  1  0.33757900  0.81110500  0.45215600  1
  C  279  1  0.23443700  0.77518900  0.50952400  1
  C  280  1  0.24347100  0.78185100  0.54365900  1
  C  281  1  0.21863800  0.76209100  0.56829100  1
  C  282  1  0.18409000  0.73522800  0.55952700  1
  C  283  1  0.17603700  0.72839900  0.52518000  1
  C  284  1  0.20081000  0.74817100  0.50042600  1
  C  293  1  0.81905800  0.44140800  0.26668200  1
  C  294  1  0.76338700  0.43743700  0.25947900  1
  C  295  1  0.73547400  0.45996200  0.23826200  1
  C  296  1  0.76463300  0.48748900  0.22449900  1
  C  297  1  0.82035300  0.49146000  0.23205700  1
  C  298  1  0.84737000  0.46861100  0.25279400  1
  C  301  1  0.74070500  0.51039600  0.20179500  1
  C  302  1  0.75586100  0.50996100  0.16778600  1
  C  303  1  0.73001700  0.53106300  0.14468000  1
  C  304  1  0.68888600  0.55340900  0.15504800  1
  C  305  1  0.67463000  0.55431200  0.18923500  1
  C  306  1  0.70028200  0.53307300  0.21236600  1
  C  315  1  0.56713300  0.05446100  0.55288000  1
  C  316  1  0.51026200  0.05690400  0.54915000  1
  C  317  1  0.48105900  0.03570600  0.52719700  1
  C  318  1  0.51042100  0.01190400  0.50778500  1
  C  319  1  0.56753600  0.01010000  0.51102200  1
  C  320  1  0.59545300  0.03091900  0.53334500  1
  C  323  1  0.48464900  0.98812000  0.48668000  1
  C  324  1  0.45512100  0.99800900  0.45810500  1
  C  325  1  0.42858700  0.97413900  0.43809600  1
  C  326  1  0.43098800  0.93968700  0.44593800  1
  C  327  1  0.46194900  0.92995000  0.47409500  1
  C  328  1  0.48832500  0.95372600  0.49414100  1
  C  337  1  0.07438800  0.73359100  0.66167500  1
  C  338  1  0.01736300  0.73178600  0.66482300  1
  C  339  1  0.98830700  0.75294300  0.68687600  1
  C  340  1  0.01796600  0.77600500  0.70700000  1
  C  341  1  0.07520900  0.77710800  0.70440100  1
  C  342  1  0.10300200  0.75635000  0.68196400  1
  C  345  1  0.99236800  0.79998500  0.72794000  1
  C  346  1  0.96149600  0.79030700  0.75604100  1
  C  347  1  0.93434700  0.81436000  0.77550300  1
  C  348  1  0.93745000  0.84875900  0.76753300  1
  C  349  1  0.96992700  0.85830200  0.73997300  1
  C  350  1  0.99694300  0.83433600  0.72048100  1
  C  359  1  0.17641800  0.23260200  0.05062900  1
  C  360  1  0.23350300  0.23105500  0.04775600  1
  C  361  1  0.26252900  0.25218800  0.02566300  1
  C  362  1  0.23278800  0.27490200  0.00520000  1
  C  363  1  0.17549700  0.27569300  0.00748300  1
  C  364  1  0.14772800  0.25500100  0.02998200  1
  C  367  1  0.25826700  0.29891000  0.98425300  1
  C  368  1  0.28940500  0.28928000  0.95624700  1
  C  369  1  0.31621500  0.31341000  0.93670200  1
  C  370  1  0.31242400  0.34782900  0.94446800  1
  C  371  1  0.27977300  0.35730100  0.97197000  1
  C  372  1  0.25310800  0.33326600  0.99154900  1
  C  381  1  0.93289400  0.34196800  0.26707200  1
  C  382  1  0.98959400  0.34443100  0.26269600  1
  C  383  1  0.01813400  0.32244800  0.24123400  1
  C  384  1  0.98851600  0.29688500  0.22443000  1
  C  385  1  0.93184000  0.29418700  0.22934500  1
  C  386  1  0.90425500  0.31658000  0.25027800  1
  C  389  1  0.01287300  0.27541100  0.20059400  1
  C  390  1  0.00283900  0.28043100  0.16626300  1
  C  391  1  0.02860500  0.26039500  0.14222800  1
  C  392  1  0.06474300  0.23464300  0.15180600  1
  C  393  1  0.07362500  0.22921400  0.18629900  1
  C  394  1  0.04817900  0.24943500  0.21042800  1
  C  403  1  0.81046100  0.84339700  0.94284500  1
  C  404  1  0.75617000  0.84884600  0.95262000  1
  C  405  1  0.72866700  0.82626900  0.97396700  1
  C  406  1  0.75691100  0.79736900  0.98539100  1
  C  407  1  0.81113400  0.79185300  0.97521000  1
  C  408  1  0.83770400  0.81464000  0.95419000  1
  C  411  1  0.73418600  0.77497600  0.00897200  1
  C  412  1  0.75084000  0.77637200  0.04268100  1
  C  413  1  0.72616700  0.75582100  0.06674500  1
  C  414  1  0.68475800  0.73314100  0.05761600  1
  C  415  1  0.66882000  0.73142400  0.02373700  1
  C  416  1  0.69324800  0.75212900  0.99964400  1
  C  425  1  0.57328400  0.55512900  0.05574300  1
  C  426  1  0.51633300  0.55765700  0.05261500  1
  C  427  1  0.48662000  0.53713700  0.03028500  1
  C  428  1  0.51559000  0.51429200  0.00951700  1
  C  429  1  0.57283800  0.51264500  0.01201400  1
  C  430  1  0.60121900  0.53249600  0.03497300  1
  C  433  1  0.48945900  0.49139300  0.98757000  1
  C  434  1  0.45658000  0.50248000  0.96085700  1
  C  435  1  0.42919400  0.47943600  0.94033900  1
  C  436  1  0.43471800  0.44466300  0.94554600  1
  C  437  1  0.46902200  0.43368500  0.97167000  1
  C  438  1  0.49587500  0.45665900  0.99239000  1
  C  447  1  0.67748000  0.05539900  0.65442600  1
  C  448  1  0.73424200  0.05819300  0.65844000  1
  C  449  1  0.76333400  0.03754800  0.68096500  1
  C  450  1  0.73386700  0.01437400  0.70110400  1
  C  451  1  0.67675700  0.01245500  0.69769700  1
  C  452  1  0.64903400  0.03238100  0.67449000  1
  C  455  1  0.75944600  0.99151700  0.72336900  1
  C  456  1  0.79143200  0.00268700  0.75046000  1
  C  457  1  0.81863400  0.97973000  0.77117000  1
  C  458  1  0.81369000  0.94493700  0.76586100  1
  C  459  1  0.78014300  0.93386700  0.73940200  1
  C  460  1  0.75352800  0.95675800  0.71846400  1
  C  469  1  0.31391300  0.94531900  0.26778600  1
  C  470  1  0.25809200  0.94106800  0.26117900  1
  C  471  1  0.22934200  0.96337300  0.24015100  1
  C  472  1  0.25778400  0.99099800  0.22602900  1
  C  473  1  0.31356300  0.99538100  0.23317900  1
  C  474  1  0.34142300  0.97272100  0.25368800  1
  C  477  1  0.23342400  0.01322400  0.20284100  1
  C  478  1  0.24843900  0.01189000  0.16883300  1
  C  479  1  0.22262900  0.03243900  0.14523800  1
  C  480  1  0.18162300  0.05509600  0.15508900  1
  C  481  1  0.16738000  0.05684900  0.18924400  1
  C  482  1  0.19302100  0.03615500  0.21288300  1
  C  491  1  0.07420600  0.55661400  0.55408800  1
  C  492  1  0.01701200  0.55691800  0.55201800  1
  C  493  1  0.98852200  0.53574100  0.52970800  1
  C  494  1  0.01888100  0.51443200  0.50807400  1
  C  495  1  0.07626700  0.51484600  0.50972700  1
  C  496  1  0.10355400  0.53540900  0.53258400  1
  C  499  1  0.99406500  0.49106300  0.48606600  1
  C  500  1  0.95964600  0.50158400  0.45986900  1
  C  501  1  0.93282500  0.47806600  0.43962100  1
  C  502  1  0.94045800  0.44341000  0.44458600  1
  C  503  1  0.97636500  0.43302900  0.47012800  1
  C  504  1  0.00277500  0.45647500  0.49055400  1
  C  1025  1  0.52895800  0.12659600  0.10535600  1
  C  1026  1  0.50069900  0.10844100  0.08057600  1
  C  1027  1  0.50145700  0.07322100  0.08007300  1
  C  1028  1  0.53068200  0.05628900  0.10522500  1
  C  1029  1  0.55859600  0.07371400  0.13065000  1
  C  1030  1  0.55706600  0.10910100  0.13085000  1
  C  1033  1  0.52928600  0.16203300  0.10384900  1
  C  1034  1  0.55591800  0.17908000  0.07748600  1
  C  1035  1  0.55470400  0.21442600  0.07595200  1
  C  1036  1  0.52606300  0.23224400  0.10077100  1
  C  1037  1  0.49903400  0.21579900  0.12717500  1
  C  1038  1  0.50131100  0.18058200  0.12845200  1
  C  1045  1  0.03342180  0.66123800  0.10729200  1
  C  1046  1  0.00555785  0.67911300  0.13243200  1
  C  1047  1  0.00658685  0.71434300  0.13335300  1
  C  1048  1  0.03550980  0.73153600  0.10822700  1
  C  1049  1  0.06294380  0.71436600  0.08245000  1
  C  1050  1  0.06138880  0.67900100  0.08192100  1
  C  1053  1  0.03339980  0.62578900  0.10787300  1
  C  1054  1  0.06275280  0.60781700  0.13249900  1
  C  1055  1  0.06545380  0.57247400  0.13112500  1
  C  1056  1  0.03770980  0.55556000  0.10528900  1
  C  1057  1  0.00733185  0.57299100  0.08102700  1
  C  1058  1  0.00512385  0.60813600  0.08276000  1
  C  1065  1  0.02887580  0.16198300  0.60378800  1
  C  1066  1  0.05617080  0.17992300  0.57845000  1
  C  1067  1  0.05504880  0.21514500  0.57755400  1
  C  1068  1  0.02656780  0.23229800  0.60288200  1
  C  1069  1  0.99967000  0.21509100  0.62884900  1
  C  1070  1  0.00135685  0.17971800  0.62936800  1
  C  1073  1  0.02891980  0.12651500  0.60301600  1
  C  1074  1  0.00127585  0.10870500  0.57754900  1
  C  1075  1  0.00080885  0.07329300  0.57767600  1
  C  1076  1  0.02806980  0.05614300  0.60354300  1
  C  1077  1  0.05602680  0.07344500  0.62896900  1
  C  1078  1  0.05671680  0.10865300  0.62819700  1
  C  1085  1  0.53310600  0.62735600  0.60696300  1
  C  1086  1  0.56093500  0.60888500  0.63170200  1
  C  1087  1  0.56159600  0.57365700  0.63113500  1
  C  1088  1  0.53481900  0.55701600  0.60478900  1
  C  1089  1  0.50732200  0.57482000  0.57949100  1
  C  1090  1  0.50652200  0.61018500  0.58065400  1
  C  1093  1  0.53304500  0.66280100  0.60864300  1
  C  1094  1  0.50684600  0.67994200  0.63509900  1
  C  1095  1  0.50784200  0.71530700  0.63638500  1
  C  1096  1  0.53581600  0.73304200  0.61121400  1
  C  1097  1  0.56251500  0.71653000  0.58471200  1
  C  1098  1  0.56052900  0.68129200  0.58378600  1
  C  1105  1  0.77873500  0.89390900  0.33734700  1
  C  1106  1  0.80734000  0.86983900  0.31844900  1
  C  1107  1  0.80771700  0.87064700  0.28313200  1
  C  1108  1  0.77795700  0.89625800  0.26709700  1
  C  1109  1  0.74912900  0.92057500  0.28540600  1
  C  1110  1  0.74987000  0.91956900  0.32069600  1
  C  1113  1  0.77893900  0.89191700  0.37271500  1
  C  1114  1  0.75023700  0.86625700  0.38947600  1
  C  1115  1  0.74911600  0.86559500  0.42476900  1
  C  1116  1  0.77782300  0.89002700  0.44298600  1
  C  1117  1  0.80784400  0.91541500  0.42681800  1
  C  1118  1  0.80746900  0.91611700  0.39150800  1
  C  1125  1  0.27645000  0.89493000  0.87375000  1
  C  1126  1  0.30442500  0.91908500  0.89290000  1
  C  1127  1  0.30364400  0.91838600  0.92821500  1
  C  1128  1  0.27319400  0.89292300  0.94397100  1
  C  1129  1  0.24527000  0.86841800  0.92540200  1
  C  1130  1  0.24740200  0.86917000  0.89013200  1
  C  1133  1  0.27858100  0.89653000  0.83838500  1
  C  1134  1  0.24914000  0.92114900  0.82049300  1
  C  1135  1  0.25013400  0.92151600  0.78508100  1
  C  1136  1  0.28233300  0.89757100  0.76828200  1
  C  1137  1  0.31255800  0.87303600  0.78555000  1
  C  1138  1  0.30991300  0.87281700  0.82077500  1
  C  1145  1  0.28416000  0.39435900  0.37361600  1
  C  1146  1  0.25398000  0.37065100  0.39198500  1
  C  1147  1  0.25358300  0.37084300  0.42725800  1
  C  1148  1  0.28494100  0.39538200  0.44375900  1
  C  1149  1  0.31573200  0.41944700  0.42616700  1
  C  1150  1  0.31452000  0.41906500  0.39077200  1
  C  1153  1  0.28352300  0.39296100  0.33823100  1
  C  1154  1  0.31137600  0.36735800  0.32078300  1
  C  1155  1  0.31033900  0.36656700  0.28542800  1
  C  1156  1  0.28114200  0.39125900  0.26782100  1
  C  1157  1  0.25321100  0.41674600  0.28495900  1
  C  1158  1  0.25433000  0.41736800  0.32013700  1
  C  1165  1  0.78351200  0.39424100  0.83796100  1
  C  1166  1  0.75497400  0.41820200  0.81888100  1
  C  1167  1  0.75546900  0.41749000  0.78356500  1
  C  1168  1  0.78602600  0.39211200  0.76774500  1
  C  1169  1  0.81455800  0.36781500  0.78624100  1
  C  1170  1  0.81293300  0.36868600  0.82151900  1
  C  1173  1  0.78167000  0.39586900  0.87332600  1
  C  1174  1  0.81081500  0.42071800  0.89107600  1
  C  1175  1  0.81014800  0.42111200  0.92648300  1
  C  1176  1  0.77853700  0.39698700  0.94343900  1
  C  1177  1  0.74860800  0.37222800  0.92630600  1
  C  1178  1  0.75094800  0.37195600  0.89107600  1
  C  1185  1  0.47317600  0.05485000  0.05513000  1
  C  1186  1  0.41693400  0.05947800  0.04996900  1
  C  1187  1  0.38675600  0.03887100  0.02794800  1
  C  1188  1  0.41461300  0.01351400  0.00970100  1
  C  1189  1  0.47126600  0.00970600  0.01410300  1
  C  1190  1  0.50002800  0.02987800  0.03659600  1
  C  1193  1  0.38766600  0.99013100  0.98867600  1
  C  1194  1  0.35968000  0.00030100  0.95961100  1
  C  1195  1  0.33248800  0.97677700  0.93952300  1
  C  1196  1  0.33277200  0.94236600  0.94770000  1
  C  1197  1  0.36219400  0.93233100  0.97637500  1
  C  1198  1  0.38905400  0.95576700  0.99655900  1
  C  1207  1  0.97819600  0.73259500  0.15834200  1
  C  1208  1  0.92181000  0.72820400  0.16310700  1
  C  1209  1  0.89140000  0.74909700  0.18473900  1
  C  1210  1  0.91913100  0.77447000  0.20303800  1
  C  1211  1  0.97592700  0.77797900  0.19910800  1
  C  1212  1  0.00493285  0.75755300  0.17696200  1
  C  1215  1  0.89198800  0.79813000  0.22366100  1
  C  1216  1  0.86325200  0.78827800  0.25255200  1
  C  1217  1  0.83591900  0.81205100  0.27226900  1
  C  1218  1  0.83689800  0.84642800  0.26395200  1
  C  1219  1  0.86699400  0.85613800  0.23542800  1
  C  1220  1  0.89396300  0.83244400  0.21559000  1
  C  1229  1  0.08280880  0.23340400  0.55232000  1
  C  1230  1  0.13916180  0.22921800  0.54726800  1
  C  1231  1  0.16900680  0.25007600  0.52531200  1
  C  1232  1  0.14070380  0.27520900  0.50701100  1
  C  1233  1  0.08394780  0.27854600  0.51126900  1
  C  1234  1  0.05551380  0.25815300  0.53372700  1
  C  1237  1  0.16734680  0.29883000  0.48610800  1
  C  1238  1  0.19588780  0.28888300  0.45717600  1
  C  1239  1  0.22354900  0.31255400  0.43751200  1
  C  1240  1  0.22312700  0.34689000  0.44597800  1
  C  1241  1  0.19295980  0.35674200  0.47441700  1
  C  1242  1  0.16562980  0.33314600  0.49418600  1
  C  1251  1  0.58900100  0.55496900  0.65616900  1
  C  1252  1  0.64501200  0.55959200  0.66215400  1
  C  1253  1  0.67444100  0.53866700  0.68425800  1
  C  1254  1  0.64598600  0.51305400  0.70180300  1
  C  1255  1  0.58951400  0.50925700  0.69655100  1
  C  1256  1  0.56154000  0.52969100  0.67392100  1
  C  1259  1  0.67219700  0.48950800  0.72300700  1
  C  1260  1  0.69962200  0.49950800  0.75233200  1
  C  1261  1  0.72647900  0.47588700  0.77247000  1
  C  1262  1  0.72629600  0.44151000  0.76414300  1
  C  1263  1  0.69722700  0.43161800  0.73527800  1
  C  1264  1  0.67078700  0.45516700  0.71501500  1
  C  1273  1  0.84375400  0.34296600  0.76873100  1
  C  1274  1  0.89911800  0.34762900  0.76105600  1
  C  1275  1  0.92727200  0.32544600  0.73960100  1
  C  1276  1  0.89865900  0.29760200  0.72605200  1
  C  1277  1  0.84335800  0.29281900  0.73425500  1
  C  1278  1  0.81610500  0.31530200  0.75525200  1
  C  1281  1  0.92220200  0.27558600  0.70236900  1
  C  1282  1  0.90568000  0.27696400  0.66862700  1
  C  1283  1  0.93046800  0.25646600  0.64457400  1
  C  1284  1  0.97197700  0.23386200  0.65370800  1
  C  1285  1  0.98782400  0.23213500  0.68760000  1
  C  1286  1  0.96318900  0.25275700  0.71169200  1
  C  1295  1  0.71894400  0.84137100  0.44251100  1
  C  1296  1  0.66610300  0.84881400  0.45387600  1
  C  1297  1  0.63753000  0.82678300  0.47522800  1
  C  1298  1  0.66324400  0.79649000  0.48511000  1
  C  1299  1  0.71584700  0.78887000  0.47326600  1
  C  1300  1  0.74349100  0.81110500  0.45215600  1
  C  1303  1  0.64034900  0.77518900  0.50952400  1
  C  1304  1  0.64938300  0.78185100  0.54365900  1
  C  1305  1  0.62455000  0.76209100  0.56829100  1
  C  1306  1  0.59000200  0.73522800  0.55952700  1
  C  1307  1  0.58194900  0.72839900  0.52518000  1
  C  1308  1  0.60672200  0.74817100  0.50042600  1
  C  1317  1  0.22497000  0.44140800  0.26668200  1
  C  1318  1  0.16929880  0.43743700  0.25947900  1
  C  1319  1  0.14138580  0.45996200  0.23826200  1
  C  1320  1  0.17054480  0.48748900  0.22449900  1
  C  1321  1  0.22626500  0.49146000  0.23205700  1
  C  1322  1  0.25328200  0.46861100  0.25279400  1
  C  1325  1  0.14661680  0.51039600  0.20179500  1
  C  1326  1  0.16177280  0.50996100  0.16778600  1
  C  1327  1  0.13592880  0.53106300  0.14468000  1
  C  1328  1  0.09479780  0.55340900  0.15504800  1
  C  1329  1  0.08054180  0.55431200  0.18923500  1
  C  1330  1  0.10619380  0.53307300  0.21236600  1
  C  1339  1  0.97304500  0.05446100  0.55288000  1
  C  1340  1  0.91617400  0.05690400  0.54915000  1
  C  1341  1  0.88697100  0.03570600  0.52719700  1
  C  1342  1  0.91633300  0.01190400  0.50778500  1
  C  1343  1  0.97344800  0.01010000  0.51102200  1
  C  1344  1  0.00136485  0.03091900  0.53334500  1
  C  1347  1  0.89056100  0.98812000  0.48668000  1
  C  1348  1  0.86103300  0.99800900  0.45810500  1
  C  1349  1  0.83449900  0.97413900  0.43809600  1
  C  1350  1  0.83690000  0.93968700  0.44593800  1
  C  1351  1  0.86786100  0.92995000  0.47409500  1
  C  1352  1  0.89423700  0.95372600  0.49414100  1
  C  1361  1  0.48030000  0.73359100  0.66167500  1
  C  1362  1  0.42327500  0.73178600  0.66482300  1
  C  1363  1  0.39421900  0.75294300  0.68687600  1
  C  1364  1  0.42387800  0.77600500  0.70700000  1
  C  1365  1  0.48112100  0.77710800  0.70440100  1
  C  1366  1  0.50891400  0.75635000  0.68196400  1
  C  1369  1  0.39828000  0.79998500  0.72794000  1
  C  1370  1  0.36740800  0.79030700  0.75604100  1
  C  1371  1  0.34025900  0.81436000  0.77550300  1
  C  1372  1  0.34336200  0.84875900  0.76753300  1
  C  1373  1  0.37583900  0.85830200  0.73997300  1
  C  1374  1  0.40285500  0.83433600  0.72048100  1
  C  1383  1  0.58233000  0.23260200  0.05062900  1
  C  1384  1  0.63941500  0.23105500  0.04775600  1
  C  1385  1  0.66844100  0.25218800  0.02566300  1
  C  1386  1  0.63870000  0.27490200  0.00520000  1
  C  1387  1  0.58140900  0.27569300  0.00748300  1
  C  1388  1  0.55364000  0.25500100  0.02998200  1
  C  1391  1  0.66417900  0.29891000  0.98425300  1
  C  1392  1  0.69531700  0.28928000  0.95624700  1
  C  1393  1  0.72212700  0.31341000  0.93670200  1
  C  1394  1  0.71833600  0.34782900  0.94446800  1
  C  1395  1  0.68568500  0.35730100  0.97197000  1
  C  1396  1  0.65902000  0.33326600  0.99154900  1
  C  1405  1  0.33880600  0.34196800  0.26707200  1
  C  1406  1  0.39550600  0.34443100  0.26269600  1
  C  1407  1  0.42404600  0.32244800  0.24123400  1
  C  1408  1  0.39442800  0.29688500  0.22443000  1
  C  1409  1  0.33775200  0.29418700  0.22934500  1
  C  1410  1  0.31016700  0.31658000  0.25027800  1
  C  1413  1  0.41878500  0.27541100  0.20059400  1
  C  1414  1  0.40875100  0.28043100  0.16626300  1
  C  1415  1  0.43451700  0.26039500  0.14222800  1
  C  1416  1  0.47065500  0.23464300  0.15180600  1
  C  1417  1  0.47953700  0.22921400  0.18629900  1
  C  1418  1  0.45409100  0.24943500  0.21042800  1
  C  1427  1  0.21637300  0.84339700  0.94284500  1
  C  1428  1  0.16208180  0.84884600  0.95262000  1
  C  1429  1  0.13457880  0.82626900  0.97396700  1
  C  1430  1  0.16282280  0.79736900  0.98539100  1
  C  1431  1  0.21704600  0.79185300  0.97521000  1
  C  1432  1  0.24361600  0.81464000  0.95419000  1
  C  1435  1  0.14009780  0.77497600  0.00897200  1
  C  1436  1  0.15675180  0.77637200  0.04268100  1
  C  1437  1  0.13207880  0.75582100  0.06674500  1
  C  1438  1  0.09066980  0.73314100  0.05761600  1
  C  1439  1  0.07473180  0.73142400  0.02373700  1
  C  1440  1  0.09915980  0.75212900  0.99964400  1
  C  1449  1  0.97919600  0.55512900  0.05574300  1
  C  1450  1  0.92224500  0.55765700  0.05261500  1
  C  1451  1  0.89253200  0.53713700  0.03028500  1
  C  1452  1  0.92150200  0.51429200  0.00951700  1
  C  1453  1  0.97875000  0.51264500  0.01201400  1
  C  1454  1  0.00713085  0.53249600  0.03497300  1
  C  1457  1  0.89537100  0.49139300  0.98757000  1
  C  1458  1  0.86249200  0.50248000  0.96085700  1
  C  1459  1  0.83510600  0.47943600  0.94033900  1
  C  1460  1  0.84063000  0.44466300  0.94554600  1
  C  1461  1  0.87493400  0.43368500  0.97167000  1
  C  1462  1  0.90178700  0.45665900  0.99239000  1
  C  1471  1  0.08339180  0.05539900  0.65442600  1
  C  1472  1  0.14015380  0.05819300  0.65844000  1
  C  1473  1  0.16924580  0.03754800  0.68096500  1
  C  1474  1  0.13977880  0.01437400  0.70110400  1
  C  1475  1  0.08266880  0.01245500  0.69769700  1
  C  1476  1  0.05494580  0.03238100  0.67449000  1
  C  1479  1  0.16535780  0.99151700  0.72336900  1
  C  1480  1  0.19734380  0.00268700  0.75046000  1
  C  1481  1  0.22454600  0.97973000  0.77117000  1
  C  1482  1  0.21960200  0.94493700  0.76586100  1
  C  1483  1  0.18605480  0.93386700  0.73940200  1
  C  1484  1  0.15943980  0.95675800  0.71846400  1
  C  1493  1  0.71982500  0.94531900  0.26778600  1
  C  1494  1  0.66400400  0.94106800  0.26117900  1
  C  1495  1  0.63525400  0.96337300  0.24015100  1
  C  1496  1  0.66369600  0.99099800  0.22602900  1
  C  1497  1  0.71947500  0.99538100  0.23317900  1
  C  1498  1  0.74733500  0.97272100  0.25368800  1
  C  1501  1  0.63933600  0.01322400  0.20284100  1
  C  1502  1  0.65435100  0.01189000  0.16883300  1
  C  1503  1  0.62854100  0.03243900  0.14523800  1
  C  1504  1  0.58753500  0.05509600  0.15508900  1
  C  1505  1  0.57329200  0.05684900  0.18924400  1
  C  1506  1  0.59893300  0.03615500  0.21288300  1
  C  1515  1  0.48011800  0.55661400  0.55408800  1
  C  1516  1  0.42292400  0.55691800  0.55201800  1
  C  1517  1  0.39443400  0.53574100  0.52970800  1
  C  1518  1  0.42479300  0.51443200  0.50807400  1
  C  1519  1  0.48217900  0.51484600  0.50972700  1
  C  1520  1  0.50946600  0.53540900  0.53258400  1
  C  1523  1  0.39997700  0.49106300  0.48606600  1
  C  1524  1  0.36555800  0.50158400  0.45986900  1
  C  1525  1  0.33873700  0.47806600  0.43962100  1
  C  1526  1  0.34637000  0.44341000  0.44458600  1
  C  1527  1  0.38227700  0.43302900  0.47012800  1
  C  1528  1  0.40868700  0.45647500  0.49055400  1
  H  7  1  0.07423400  0.12103900  0.06224200  1
  H  8  1  0.12468400  0.03069600  0.10546600  1
  H  15  1  0.12036200  0.25782600  0.10014800  1
  H  16  1  0.07505900  0.16821600  0.14702200  1
  H  19  1  0.15668700  0.13168000  0.17223300  1
  H  20  1  0.15517600  0.16069900  0.03400200  1
  H  27  1  0.57909900  0.66631500  0.15062300  1
  H  28  1  0.62941400  0.75712900  0.10816600  1
  H  35  1  0.63259000  0.52997800  0.10459300  1
  H  36  1  0.57781600  0.62105100  0.06502100  1
  H  39  1  0.66047200  0.65694300  0.04019600  1
  H  40  1  0.66249800  0.62957000  0.17432300  1
  H  47  1  0.67049000  0.16717500  0.56008600  1
  H  48  1  0.62071900  0.25789400  0.60291200  1
  H  55  1  0.62171000  0.03055100  0.60388300  1
  H  56  1  0.67104200  0.12142300  0.64654600  1
  H  59  1  0.59087200  0.15786800  0.67121500  1
  H  60  1  0.59094300  0.12545500  0.53340200  1
  H  67  1  0.17448200  0.62122300  0.65065700  1
  H  68  1  0.12939400  0.53143300  0.60403700  1
  H  75  1  0.12923200  0.75862400  0.61159600  1
  H  76  1  0.17461700  0.66883700  0.56513500  1
  H  79  1  0.09585600  0.62827500  0.53703900  1
  H  80  1  0.09624700  0.66196200  0.67877100  1
  H  87  1  0.42324100  0.85184700  0.33070800  1
  H  88  1  0.37020100  0.89684700  0.24154600  1
  H  95  1  0.37003500  0.88960000  0.46854300  1
  H  96  1  0.42327100  0.93412600  0.37920700  1
  H  99  1  0.33750500  0.96240200  0.34023500  1
  H  100  1  0.33773700  0.82353800  0.36975500  1
  H  107  1  0.92093000  0.93694400  0.88086400  1
  H  108  1  0.86482400  0.89233400  0.96950400  1
  H  115  1  0.87717600  0.89767800  0.74271400  1
  H  116  1  0.92579000  0.85540100  0.83386500  1
  H  119  1  0.83693000  0.82638100  0.87033300  1
  H  120  1  0.83198800  0.96042000  0.84599300  1
  H  127  1  0.82525400  0.35335500  0.37940500  1
  H  128  1  0.87985500  0.39558400  0.46932500  1
  H  135  1  0.87475100  0.39090200  0.24222200  1
  H  136  1  0.82802200  0.43583900  0.33263500  1
  H  139  1  0.91775300  0.45860600  0.36536100  1
  H  140  1  0.91177800  0.32428000  0.33979100  1
  H  147  1  0.32654400  0.43597100  0.83098200  1
  H  148  1  0.38245700  0.39154100  0.74220700  1
  H  155  1  0.37212100  0.39712400  0.96901200  1
  H  156  1  0.32345200  0.35436600  0.87809100  1
  H  159  1  0.41265100  0.32588300  0.84119800  1
  H  160  1  0.41518400  0.46010400  0.86561000  1
  H  167  1  0.08622900  0.99159200  0.00141400  1
  H  168  1  0.13486500  0.02587000  0.03962200  1
  H  175  1  0.95240400  0.02499400  0.95310900  1
  H  176  1  0.90527600  0.98522200  0.91929200  1
  H  177  1  0.95864300  0.90768200  0.98291000  1
  H  178  1  0.99101600  0.07696100  0.06400500  1
  H  179  1  0.00321200  0.94752000  0.01736700  1
  H  181  1  0.90798300  0.06037400  0.03963900  1
  H  182  1  0.90287700  0.02881300  0.01327100  1
  H  189  1  0.59081200  0.79610600  0.21182500  1
  H  190  1  0.63984400  0.76143700  0.17416100  1
  H  197  1  0.45551100  0.76363200  0.25919200  1
  H  198  1  0.40820800  0.80381400  0.29238200  1
  H  199  1  0.46390100  0.88073700  0.22877100  1
  H  200  1  0.49597600  0.71080600  0.14892100  1
  H  201  1  0.50865700  0.84046400  0.19489400  1
  H  203  1  0.41264200  0.72782700  0.17258500  1
  H  204  1  0.40731700  0.75960000  0.19867900  1
  H  211  1  0.65687200  0.29652600  0.49857400  1
  H  212  1  0.60878500  0.26189200  0.53676200  1
  H  219  1  0.79174400  0.26421900  0.45060100  1
  H  220  1  0.83958700  0.30424400  0.41748500  1
  H  221  1  0.78478500  0.38133400  0.48117900  1
  H  222  1  0.75357200  0.21195800  0.56140900  1
  H  223  1  0.73931800  0.34121600  0.51494100  1
  H  225  1  0.83636600  0.22930500  0.53734100  1
  H  226  1  0.84096100  0.26092600  0.51102000  1
  H  233  1  0.16230500  0.49096800  0.70870900  1
  H  234  1  0.11501200  0.52568200  0.67023400  1
  H  241  1  0.29512500  0.52417900  0.75891600  1
  H  242  1  0.34166600  0.48425400  0.79281400  1
  H  243  1  0.28905500  0.40700400  0.72860400  1
  H  244  1  0.25952200  0.57730900  0.64865000  1
  H  245  1  0.24522100  0.44702400  0.69401200  1
  H  247  1  0.34175000  0.56027100  0.67368900  1
  H  248  1  0.34604500  0.52829300  0.69958100  1
  H  255  1  0.41601200  0.27330200  0.72429300  1
  H  256  1  0.36967800  0.31187500  0.75980200  1
  H  263  1  0.47052200  0.29351100  0.66114900  1
  H  264  1  0.51246000  0.25847000  0.62021000  1
  H  265  1  0.61287300  0.21671900  0.69483100  1
  H  266  1  0.51267800  0.36834900  0.77008600  1
  H  267  1  0.57022800  0.25148900  0.73593700  1
  H  269  1  0.59224400  0.35197500  0.74095700  1
  H  270  1  0.59462300  0.31888100  0.71631300  1
  H  277  1  0.32941400  0.76759800  0.48087400  1
  H  278  1  0.37643600  0.80562900  0.44493000  1
  H  285  1  0.26752600  0.80142000  0.55084500  1
  H  286  1  0.22595200  0.76765000  0.59281700  1
  H  287  1  0.15049700  0.70964100  0.51783400  1
  H  288  1  0.24293900  0.87115200  0.44733900  1
  H  289  1  0.19316200  0.74320100  0.47580700  1
  H  291  1  0.16448000  0.85655900  0.47887000  1
  H  292  1  0.15978900  0.82138900  0.50038900  1
  H  299  1  0.84210600  0.51082500  0.22206200  1
  H  300  1  0.88801200  0.47165800  0.25719200  1
  H  307  1  0.78455100  0.49349200  0.15938000  1
  H  308  1  0.74092000  0.52960100  0.12006400  1
  H  309  1  0.64400000  0.56952600  0.19737600  1
  H  310  1  0.74333100  0.41709800  0.26889200  1
  H  311  1  0.68831800  0.53369200  0.23682700  1
  H  313  1  0.66386200  0.43422200  0.24016700  1
  H  314  1  0.66200600  0.46726800  0.21545500  1
  H  321  1  0.58943100  0.99302900  0.49756100  1
  H  322  1  0.63664300  0.02838700  0.53558600  1
  H  329  1  0.45194300  0.02274300  0.45199900  1
  H  330  1  0.40600400  0.98233100  0.41828900  1
  H  331  1  0.46559200  0.90529600  0.48039500  1
  H  332  1  0.48937600  0.07328700  0.56400700  1
  H  333  1  0.50947100  0.94572300  0.51463700  1
  H  335  1  0.40683400  0.05412000  0.54075300  1
  H  336  1  0.40354300  0.02311600  0.51360600  1
  H  343  1  0.09728300  0.79371700  0.71832000  1
  H  344  1  0.14429800  0.75849000  0.68005900  1
  H  351  1  0.95753700  0.76559600  0.76206400  1
  H  352  1  0.91050600  0.80632500  0.79481000  1
  H  353  1  0.97384600  0.88290800  0.73355800  1
  H  354  1  0.99630300  0.71605100  0.64936700  1
  H  355  1  0.01891700  0.84216400  0.70024800  1
  H  357  1  0.91385200  0.73574700  0.67221900  1
  H  358  1  0.91085300  0.76627000  0.69990800  1
  H  365  1  0.15336200  0.29205800  0.99330900  1
  H  366  1  0.10637400  0.25691300  0.03165200  1
  H  373  1  0.29376500  0.26456600  0.95034300  1
  H  374  1  0.34013800  0.30545000  0.91740000  1
  H  375  1  0.27538400  0.38192100  0.97823700  1
  H  376  1  0.25457700  0.21559800  0.06347900  1
  H  377  1  0.23091300  0.34105200  0.01171100  1
  H  379  1  0.33705400  0.23551600  0.04077600  1
  H  380  1  0.33992900  0.26578400  0.01280000  1
  H  387  1  0.90981000  0.27633500  0.21703100  1
  H  388  1  0.86299400  0.31462300  0.25263400  1
  H  395  1  0.97767200  0.29921400  0.15845500  1
  H  396  1  0.02081700  0.26492000  0.11754200  1
  H  397  1  0.10020400  0.21121800  0.19414500  1
  H  398  1  0.01005600  0.36350700  0.27418800  1
  H  399  1  0.05622900  0.24541100  0.23516900  1
  H  401  1  0.09136700  0.34553200  0.24789100  1
  H  402  1  0.09347800  0.31391100  0.22135800  1
  H  409  1  0.83232100  0.77156700  0.98372600  1
  H  410  1  0.87757000  0.81065600  0.94816700  1
  H  417  1  0.77989100  0.79305300  0.05014200  1
  H  418  1  0.73821600  0.75786800  0.09111500  1
  H  419  1  0.63789500  0.71596800  0.01652900  1
  H  420  1  0.73704700  0.87027300  0.94507400  1
  H  421  1  0.68008200  0.75098100  0.97543900  1
  H  423  1  0.65896800  0.85392600  0.97581100  1
  H  424  1  0.65684300  0.81970200  0.99888800  1
  H  431  1  0.59454000  0.49633500  0.99753000  1
  H  432  1  0.64249600  0.53002500  0.03664000  1
  H  439  1  0.45126700  0.52747200  0.95667100  1
  H  440  1  0.40369700  0.48835000  0.92226700  1
  H  441  1  0.47417300  0.40873600  0.97619300  1
  H  442  1  0.49575900  0.57334500  0.06836000  1
  H  443  1  0.51921700  0.44775600  0.01157400  1
  H  445  1  0.41274000  0.55444200  0.04589400  1
  H  446  1  0.40868900  0.52426900  0.01791100  1
  H  453  1  0.65469800  0.99591700  0.71170700  1
  H  454  1  0.60786400  0.02972900  0.67216100  1
  H  461  1  0.79638600  0.02769200  0.75472500  1
  H  462  1  0.84355900  0.98874100  0.78949600  1
  H  463  1  0.77541400  0.90890500  0.73478100  1
  H  464  1  0.75519400  0.07414500  0.64315400  1
  H  465  1  0.73086300  0.94778200  0.69901200  1
  H  467  1  0.83756300  0.05530900  0.66654800  1
  H  468  1  0.84094500  0.02481800  0.69420000  1
  H  475  1  0.33483900  0.01476500  0.22284100  1
  H  476  1  0.38215200  0.97595400  0.25761900  1
  H  483  1  0.27714300  0.99523600  0.16081400  1
  H  484  1  0.23355100  0.03038900  0.12066700  1
  H  485  1  0.13687900  0.07234900  0.19701600  1
  H  486  1  0.23862500  0.92057200  0.27071600  1
  H  487  1  0.18118900  0.03742000  0.23734200  1
  H  489  1  0.15816400  0.93723600  0.24274000  1
  H  490  1  0.15521800  0.97025200  0.21802000  1
  H  497  1  0.09891000  0.49955500  0.49468800  1
  H  498  1  0.14503100  0.53440100  0.53374700  1
  H  505  1  0.95246700  0.52645800  0.45605800  1
  H  506  1  0.90598000  0.48651500  0.42206800  1
  H  507  1  0.98283900  0.40817200  0.47451600  1
  H  508  1  0.99560500  0.57150800  0.56839000  1
  H  509  1  0.02718500  0.44800800  0.50942500  1
  H  511  1  0.91370600  0.54991900  0.54671200  1
  H  512  1  0.91154100  0.52021800  0.51813600  1
  H  1031  1  0.48014600  0.12103900  0.06224200  1
  H  1032  1  0.53059600  0.03069600  0.10546600  1
  H  1039  1  0.52627400  0.25782600  0.10014800  1
  H  1040  1  0.48097100  0.16821600  0.14702200  1
  H  1043  1  0.56259900  0.13168000  0.17223300  1
  H  1044  1  0.56108800  0.16069900  0.03400200  1
  H  1051  1  0.98501100  0.66631500  0.15062300  1
  H  1052  1  0.03532580  0.75712900  0.10816600  1
  H  1059  1  0.03850180  0.52997800  0.10459300  1
  H  1060  1  0.98372800  0.62105100  0.06502100  1
  H  1063  1  0.06638380  0.65694300  0.04019600  1
  H  1064  1  0.06840980  0.62957000  0.17432300  1
  H  1071  1  0.07640180  0.16717500  0.56008600  1
  H  1072  1  0.02663080  0.25789400  0.60291200  1
  H  1079  1  0.02762180  0.03055100  0.60388300  1
  H  1080  1  0.07695380  0.12142300  0.64654600  1
  H  1083  1  0.99678400  0.15786800  0.67121500  1
  H  1084  1  0.99685500  0.12545500  0.53340200  1
  H  1091  1  0.58039400  0.62122300  0.65065700  1
  H  1092  1  0.53530600  0.53143300  0.60403700  1
  H  1099  1  0.53514400  0.75862400  0.61159600  1
  H  1100  1  0.58052900  0.66883700  0.56513500  1
  H  1103  1  0.50176800  0.62827500  0.53703900  1
  H  1104  1  0.50215900  0.66196200  0.67877100  1
  H  1111  1  0.82915300  0.85184700  0.33070800  1
  H  1112  1  0.77611300  0.89684700  0.24154600  1
  H  1119  1  0.77594700  0.88960000  0.46854300  1
  H  1120  1  0.82918300  0.93412600  0.37920700  1
  H  1123  1  0.74341700  0.96240200  0.34023500  1
  H  1124  1  0.74364900  0.82353800  0.36975500  1
  H  1131  1  0.32684200  0.93694400  0.88086400  1
  H  1132  1  0.27073600  0.89233400  0.96950400  1
  H  1139  1  0.28308800  0.89767800  0.74271400  1
  H  1140  1  0.33170200  0.85540100  0.83386500  1
  H  1143  1  0.24284200  0.82638100  0.87033300  1
  H  1144  1  0.23790000  0.96042000  0.84599300  1
  H  1151  1  0.23116600  0.35335500  0.37940500  1
  H  1152  1  0.28576700  0.39558400  0.46932500  1
  H  1159  1  0.28066300  0.39090200  0.24222200  1
  H  1160  1  0.23393400  0.43583900  0.33263500  1
  H  1163  1  0.32366500  0.45860600  0.36536100  1
  H  1164  1  0.31769000  0.32428000  0.33979100  1
  H  1171  1  0.73245600  0.43597100  0.83098200  1
  H  1172  1  0.78836900  0.39154100  0.74220700  1
  H  1179  1  0.77803300  0.39712400  0.96901200  1
  H  1180  1  0.72936400  0.35436600  0.87809100  1
  H  1183  1  0.81856300  0.32588300  0.84119800  1
  H  1184  1  0.82109600  0.46010400  0.86561000  1
  H  1191  1  0.49214100  0.99159200  0.00141400  1
  H  1192  1  0.54077700  0.02587000  0.03962200  1
  H  1199  1  0.35831600  0.02499400  0.95310900  1
  H  1200  1  0.31118800  0.98522200  0.91929200  1
  H  1201  1  0.36455500  0.90768200  0.98291000  1
  H  1202  1  0.39692800  0.07696100  0.06400500  1
  H  1203  1  0.40912400  0.94752000  0.01736700  1
  H  1205  1  0.31389500  0.06037400  0.03963900  1
  H  1206  1  0.30878900  0.02881300  0.01327100  1
  H  1213  1  0.99672400  0.79610600  0.21182500  1
  H  1214  1  0.04575580  0.76143700  0.17416100  1
  H  1221  1  0.86142300  0.76363200  0.25919200  1
  H  1222  1  0.81412000  0.80381400  0.29238200  1
  H  1223  1  0.86981300  0.88073700  0.22877100  1
  H  1224  1  0.90188800  0.71080600  0.14892100  1
  H  1225  1  0.91456900  0.84046400  0.19489400  1
  H  1227  1  0.81855400  0.72782700  0.17258500  1
  H  1228  1  0.81322900  0.75960000  0.19867900  1
  H  1235  1  0.06278380  0.29652600  0.49857400  1
  H  1236  1  0.01469685  0.26189200  0.53676200  1
  H  1243  1  0.19765580  0.26421900  0.45060100  1
  H  1244  1  0.24549900  0.30424400  0.41748500  1
  H  1245  1  0.19069680  0.38133400  0.48117900  1
  H  1246  1  0.15948380  0.21195800  0.56140900  1
  H  1247  1  0.14522980  0.34121600  0.51494100  1
  H  1249  1  0.24227800  0.22930500  0.53734100  1
  H  1250  1  0.24687300  0.26092600  0.51102000  1
  H  1257  1  0.56821700  0.49096800  0.70870900  1
  H  1258  1  0.52092400  0.52568200  0.67023400  1
  H  1265  1  0.70103700  0.52417900  0.75891600  1
  H  1266  1  0.74757800  0.48425400  0.79281400  1
  H  1267  1  0.69496700  0.40700400  0.72860400  1
  H  1268  1  0.66543400  0.57730900  0.64865000  1
  H  1269  1  0.65113300  0.44702400  0.69401200  1
  H  1271  1  0.74766200  0.56027100  0.67368900  1
  H  1272  1  0.75195700  0.52829300  0.69958100  1
  H  1279  1  0.82192400  0.27330200  0.72429300  1
  H  1280  1  0.77559000  0.31187500  0.75980200  1
  H  1287  1  0.87643400  0.29351100  0.66114900  1
  H  1288  1  0.91837200  0.25847000  0.62021000  1
  H  1289  1  0.01878485  0.21671900  0.69483100  1
  H  1290  1  0.91859000  0.36834900  0.77008600  1
  H  1291  1  0.97614000  0.25148900  0.73593700  1
  H  1293  1  0.99815600  0.35197500  0.74095700  1
  H  1294  1  0.00053485  0.31888100  0.71631300  1
  H  1301  1  0.73532600  0.76759800  0.48087400  1
  H  1302  1  0.78234800  0.80562900  0.44493000  1
  H  1309  1  0.67343800  0.80142000  0.55084500  1
  H  1310  1  0.63186400  0.76765000  0.59281700  1
  H  1311  1  0.55640900  0.70964100  0.51783400  1
  H  1312  1  0.64885100  0.87115200  0.44733900  1
  H  1313  1  0.59907400  0.74320100  0.47580700  1
  H  1315  1  0.57039200  0.85655900  0.47887000  1
  H  1316  1  0.56570100  0.82138900  0.50038900  1
  H  1323  1  0.24801800  0.51082500  0.22206200  1
  H  1324  1  0.29392400  0.47165800  0.25719200  1
  H  1331  1  0.19046280  0.49349200  0.15938000  1
  H  1332  1  0.14683180  0.52960100  0.12006400  1
  H  1333  1  0.04991180  0.56952600  0.19737600  1
  H  1334  1  0.14924280  0.41709800  0.26889200  1
  H  1335  1  0.09422980  0.53369200  0.23682700  1
  H  1337  1  0.06977380  0.43422200  0.24016700  1
  H  1338  1  0.06791780  0.46726800  0.21545500  1
  H  1345  1  0.99534300  0.99302900  0.49756100  1
  H  1346  1  0.04255480  0.02838700  0.53558600  1
  H  1353  1  0.85785500  0.02274300  0.45199900  1
  H  1354  1  0.81191600  0.98233100  0.41828900  1
  H  1355  1  0.87150400  0.90529600  0.48039500  1
  H  1356  1  0.89528800  0.07328700  0.56400700  1
  H  1357  1  0.91538300  0.94572300  0.51463700  1
  H  1359  1  0.81274600  0.05412000  0.54075300  1
  H  1360  1  0.80945500  0.02311600  0.51360600  1
  H  1367  1  0.50319500  0.79371700  0.71832000  1
  H  1368  1  0.55021000  0.75849000  0.68005900  1
  H  1375  1  0.36344900  0.76559600  0.76206400  1
  H  1376  1  0.31641800  0.80632500  0.79481000  1
  H  1377  1  0.37975800  0.88290800  0.73355800  1
  H  1378  1  0.40221500  0.71605100  0.64936700  1
  H  1379  1  0.42482900  0.84216400  0.70024800  1
  H  1381  1  0.31976400  0.73574700  0.67221900  1
  H  1382  1  0.31676500  0.76627000  0.69990800  1
  H  1389  1  0.55927400  0.29205800  0.99330900  1
  H  1390  1  0.51228600  0.25691300  0.03165200  1
  H  1397  1  0.69967700  0.26456600  0.95034300  1
  H  1398  1  0.74605000  0.30545000  0.91740000  1
  H  1399  1  0.68129600  0.38192100  0.97823700  1
  H  1400  1  0.66048900  0.21559800  0.06347900  1
  H  1401  1  0.63682500  0.34105200  0.01171100  1
  H  1403  1  0.74296600  0.23551600  0.04077600  1
  H  1404  1  0.74584100  0.26578400  0.01280000  1
  H  1411  1  0.31572200  0.27633500  0.21703100  1
  H  1412  1  0.26890600  0.31462300  0.25263400  1
  H  1419  1  0.38358400  0.29921400  0.15845500  1
  H  1420  1  0.42672900  0.26492000  0.11754200  1
  H  1421  1  0.50611600  0.21121800  0.19414500  1
  H  1422  1  0.41596800  0.36350700  0.27418800  1
  H  1423  1  0.46214100  0.24541100  0.23516900  1
  H  1425  1  0.49727900  0.34553200  0.24789100  1
  H  1426  1  0.49939000  0.31391100  0.22135800  1
  H  1433  1  0.23823300  0.77156700  0.98372600  1
  H  1434  1  0.28348200  0.81065600  0.94816700  1
  H  1441  1  0.18580280  0.79305300  0.05014200  1
  H  1442  1  0.14412780  0.75786800  0.09111500  1
  H  1443  1  0.04380680  0.71596800  0.01652900  1
  H  1444  1  0.14295880  0.87027300  0.94507400  1
  H  1445  1  0.08599380  0.75098100  0.97543900  1
  H  1447  1  0.06487980  0.85392600  0.97581100  1
  H  1448  1  0.06275480  0.81970200  0.99888800  1
  H  1455  1  0.00045185  0.49633500  0.99753000  1
  H  1456  1  0.04840780  0.53002500  0.03664000  1
  H  1463  1  0.85717900  0.52747200  0.95667100  1
  H  1464  1  0.80960900  0.48835000  0.92226700  1
  H  1465  1  0.88008500  0.40873600  0.97619300  1
  H  1466  1  0.90167100  0.57334500  0.06836000  1
  H  1467  1  0.92512900  0.44775600  0.01157400  1
  H  1469  1  0.81865200  0.55444200  0.04589400  1
  H  1470  1  0.81460100  0.52426900  0.01791100  1
  H  1477  1  0.06060980  0.99591700  0.71170700  1
  H  1478  1  0.01377585  0.02972900  0.67216100  1
  H  1485  1  0.20229800  0.02769200  0.75472500  1
  H  1486  1  0.24947100  0.98874100  0.78949600  1
  H  1487  1  0.18132580  0.90890500  0.73478100  1
  H  1488  1  0.16110580  0.07414500  0.64315400  1
  H  1489  1  0.13677480  0.94778200  0.69901200  1
  H  1491  1  0.24347500  0.05530900  0.66654800  1
  H  1492  1  0.24685700  0.02481800  0.69420000  1
  H  1499  1  0.74075100  0.01476500  0.22284100  1
  H  1500  1  0.78806400  0.97595400  0.25761900  1
  H  1507  1  0.68305500  0.99523600  0.16081400  1
  H  1508  1  0.63946300  0.03038900  0.12066700  1
  H  1509  1  0.54279100  0.07234900  0.19701600  1
  H  1510  1  0.64453700  0.92057200  0.27071600  1
  H  1511  1  0.58710100  0.03742000  0.23734200  1
  H  1513  1  0.56407600  0.93723600  0.24274000  1
  H  1514  1  0.56113000  0.97025200  0.21802000  1
  H  1521  1  0.50482200  0.49955500  0.49468800  1
  H  1522  1  0.55094300  0.53440100  0.53374700  1
  H  1529  1  0.35837900  0.52645800  0.45605800  1
  H  1530  1  0.31189200  0.48651500  0.42206800  1
  H  1531  1  0.38875100  0.40817200  0.47451600  1
  H  1532  1  0.40151700  0.57150800  0.56839000  1
  H  1533  1  0.43309700  0.44800800  0.50942500  1
  H  1535  1  0.31961800  0.54991900  0.54671200  1
  H  1536  1  0.31745300  0.52021800  0.51813600  1
  N  180  1  0.92608300  0.04328700  0.02642000  1
  N  202  1  0.43064700  0.74493300  0.18583100  1
  N  224  1  0.81797000  0.24614200  0.52396200  1
  N  246  1  0.32322900  0.54307000  0.68652700  1
  N  268  1  0.57392400  0.33249000  0.73179100  1
  N  290  1  0.18121600  0.83571400  0.48593600  1
  N  312  1  0.68248500  0.45358200  0.23097400  1
  N  334  1  0.42592000  0.03809500  0.52674800  1
  N  356  1  0.93308500  0.75130800  0.68666100  1
  N  378  1  0.31776700  0.25085200  0.02612300  1
  N  400  1  0.07228100  0.32748800  0.23661600  1
  N  422  1  0.67709000  0.83378700  0.98360700  1
  N  444  1  0.43143200  0.53912300  0.03093200  1
  N  466  1  0.81851000  0.03977700  0.68110500  1
  N  488  1  0.17631300  0.95664900  0.23329700  1
  N  510  1  0.93328000  0.53565900  0.53113600  1
  N  1204  1  0.33199500  0.04328700  0.02642000  1
  N  1226  1  0.83655900  0.74493300  0.18583100  1
  N  1248  1  0.22388200  0.24614200  0.52396200  1
  N  1270  1  0.72914100  0.54307000  0.68652700  1
  N  1292  1  0.97983600  0.33249000  0.73179100  1
  N  1314  1  0.58712800  0.83571400  0.48593600  1
  N  1336  1  0.08839680  0.45358200  0.23097400  1
  N  1358  1  0.83183200  0.03809500  0.52674800  1
  N  1380  1  0.33899700  0.75130800  0.68666100  1
  N  1402  1  0.72367900  0.25085200  0.02612300  1
  N  1424  1  0.47819300  0.32748800  0.23661600  1
  N  1446  1  0.08300180  0.83378700  0.98360700  1
  N  1468  1  0.83734400  0.53912300  0.03093200  1
  N  1490  1  0.22442200  0.03977700  0.68110500  1
  N  1512  1  0.58222500  0.95664900  0.23329700  1
  N  1534  1  0.33919200  0.53565900  0.53113600  1
  O  17  1  0.18126600  0.12631000  0.15368000  1
  O  18  1  0.17807500  0.16129800  0.05409100  1
  O  37  1  0.68525700  0.66204500  0.05872000  1
  O  38  1  0.68699800  0.62461000  0.15561700  1
  O  57  1  0.56597600  0.16272100  0.65268400  1
  O  58  1  0.56789800  0.12585600  0.55343400  1
  O  77  1  0.07277400  0.62782500  0.55705300  1
  O  78  1  0.07325600  0.66222400  0.65871500  1
  O  97  1  0.31475100  0.94231100  0.33860300  1
  O  98  1  0.31485100  0.84354200  0.37170900  1
  O  117  1  0.81337700  0.84611800  0.87197000  1
  O  118  1  0.80928600  0.94225600  0.83722200  1
  O  137  1  0.94114000  0.44037000  0.37324700  1
  O  138  1  0.93487500  0.34421200  0.33802900  1
  O  157  1  0.43569400  0.34585200  0.83962600  1
  O  158  1  0.43828600  0.44204500  0.87419700  1
  O  1041  1  0.58717800  0.12631000  0.15368000  1
  O  1042  1  0.58398700  0.16129800  0.05409100  1
  O  1061  1  0.09116880  0.66204500  0.05872000  1
  O  1062  1  0.09290980  0.62461000  0.15561700  1
  O  1081  1  0.97188800  0.16272100  0.65268400  1
  O  1082  1  0.97381000  0.12585600  0.55343400  1
  O  1101  1  0.47868600  0.62782500  0.55705300  1
  O  1102  1  0.47916800  0.66222400  0.65871500  1
  O  1121  1  0.72066300  0.94231100  0.33860300  1
  O  1122  1  0.72076300  0.84354200  0.37170900  1
  O  1141  1  0.21928900  0.84611800  0.87197000  1
  O  1142  1  0.21519800  0.94225600  0.83722200  1
  O  1161  1  0.34705200  0.44037000  0.37324700  1
  O  1162  1  0.34078700  0.34421200  0.33802900  1
  O  1181  1  0.84160600  0.34585200  0.83962600  1
  O  1182  1  0.84419800  0.44204500  0.87419700  1
