# generated using pymatgen
data_H14C27N2
_symmetry_space_group_name_H-M   'P 1'
_cell_length_a   35.66050000
_cell_length_b   49.91910000
_cell_length_c   49.91910000
_cell_angle_alpha   90.00000000
_cell_angle_beta   90.00000000
_cell_angle_gamma   90.00000000
_symmetry_Int_Tables_number   1
_chemical_formula_structural   H14C27N2
_chemical_formula_sum   'H448 C864 N64'
_cell_volume   88862.98994620
_cell_formula_units_Z   32
loop_
 _symmetry_equiv_pos_site_id
 _symmetry_equiv_pos_as_xyz
  1  'x, y, z'
loop_
 _atom_site_type_symbol
 _atom_site_label
 _atom_site_symmetry_multiplicity
 _atom_site_fract_x
 _atom_site_fract_y
 _atom_site_fract_z
 _atom_site_occupancy
  H  25  1  0.03012900  0.16223700  0.18035500  1
  H  26  1  0.03053200  0.11459700  0.18653300  1
  H  27  1  0.02482400  0.06618600  0.20069700  1
  H  28  1  0.02075900  0.02355400  0.22317900  1
  H  29  1  0.99673300  0.06289700  0.29585900  1
  H  30  1  0.99719800  0.17296300  0.26082400  1
  H  31  1  0.08428100  0.12283200  0.27054000  1
  H  32  1  0.10253200  0.10907200  0.35294700  1
  H  33  1  0.03625900  0.10894900  0.36074000  1
  H  34  1  0.92309700  0.12400800  0.26849000  1
  H  35  1  0.96671900  0.11152400  0.36011900  1
  H  36  1  0.90092400  0.11385300  0.35110200  1
  H  66  1  0.02996000  0.84534300  0.82715400  1
  H  67  1  0.03080500  0.89295600  0.82096000  1
  H  68  1  0.02523500  0.94131900  0.80692500  1
  H  69  1  0.02188500  0.98401000  0.78448900  1
  H  70  1  0.99910000  0.94488200  0.71149300  1
  H  71  1  0.99747300  0.83471000  0.74658600  1
  H  72  1  0.08505100  0.88349500  0.73720900  1
  H  73  1  0.10449700  0.89294800  0.65422600  1
  H  74  1  0.03834800  0.89583300  0.64641000  1
  H  75  1  0.92383400  0.88410600  0.73822200  1
  H  76  1  0.96895400  0.89955500  0.64743700  1
  H  77  1  0.90302100  0.89915100  0.65628200  1
  H  107  1  0.03024500  0.82760500  0.16186400  1
  H  108  1  0.03062300  0.82130300  0.11423400  1
  H  109  1  0.02464900  0.80695100  0.06584900  1
  H  110  1  0.02081100  0.78424700  0.02332300  1
  H  111  1  0.99778200  0.71155500  0.06304800  1
  H  112  1  0.99742300  0.74714900  0.17282700  1
  H  113  1  0.08468500  0.73791000  0.12162800  1
  H  114  1  0.10364200  0.65462500  0.11521500  1
  H  115  1  0.03739100  0.64670000  0.11499200  1
  H  116  1  0.92339700  0.73942800  0.12204200  1
  H  117  1  0.96777900  0.64745100  0.11472100  1
  H  118  1  0.90190200  0.65642800  0.11507000  1
  H  148  1  0.02977300  0.18005300  0.84594400  1
  H  149  1  0.03037700  0.18644000  0.89356500  1
  H  150  1  0.02477100  0.20090500  0.94193000  1
  H  151  1  0.02102400  0.22367800  0.98442200  1
  H  152  1  0.99768600  0.29627700  0.94461800  1
  H  153  1  0.99712800  0.26054700  0.83491700  1
  H  154  1  0.08448900  0.26990900  0.88606300  1
  H  155  1  0.10330200  0.35320900  0.89245000  1
  H  156  1  0.03704100  0.36107400  0.89271000  1
  H  157  1  0.92319800  0.26825000  0.88575900  1
  H  158  1  0.96742900  0.36026700  0.89303700  1
  H  159  1  0.90156300  0.35122400  0.89277600  1
  H  189  1  0.97795300  0.84621300  0.18057500  1
  H  190  1  0.97717600  0.89384200  0.18671800  1
  H  191  1  0.98266700  0.94222000  0.20081700  1
  H  192  1  0.98595100  0.98488100  0.22329700  1
  H  193  1  0.00867400  0.94569600  0.29627700  1
  H  194  1  0.01030000  0.83562200  0.26118500  1
  H  195  1  0.92262300  0.88493200  0.26986100  1
  H  196  1  0.90209300  0.89439700  0.35269300  1
  H  197  1  0.96817700  0.89666200  0.36102600  1
  H  198  1  0.08383500  0.88478500  0.26992900  1
  H  199  1  0.03770000  0.89974100  0.36052700  1
  H  200  1  0.10373300  0.89906800  0.35211200  1
  H  230  1  0.97735600  0.16141700  0.82723200  1
  H  231  1  0.97684000  0.11375600  0.82110600  1
  H  232  1  0.98258500  0.06527800  0.80692100  1
  H  233  1  0.98681100  0.02265500  0.78441900  1
  H  234  1  0.01109400  0.06206700  0.71180700  1
  H  235  1  0.01070800  0.17200400  0.74682200  1
  H  236  1  0.92357900  0.12217700  0.73683000  1
  H  237  1  0.90602500  0.10961900  0.65414400  1
  H  238  1  0.97237200  0.10919700  0.64670400  1
  H  239  1  0.08467800  0.12267800  0.73977100  1
  H  240  1  0.04202600  0.11107500  0.64779800  1
  H  241  1  0.10774200  0.11297900  0.65723900  1
  H  271  1  0.97752100  0.18095600  0.16191400  1
  H  272  1  0.97661800  0.18693700  0.11426900  1
  H  273  1  0.98209200  0.20073700  0.06583200  1
  H  274  1  0.98584100  0.22292900  0.02302100  1
  H  275  1  0.00996300  0.29586700  0.06174600  1
  H  276  1  0.01080200  0.26142500  0.17213300  1
  H  277  1  0.92333800  0.27138900  0.12439700  1
  H  278  1  0.90451900  0.35332800  0.10821500  1
  H  279  1  0.97074300  0.36088600  0.10559000  1
  H  280  1  0.08423800  0.26958800  0.12458200  1
  H  281  1  0.04039200  0.35991800  0.10500700  1
  H  282  1  0.10622800  0.35100200  0.10744600  1
  H  312  1  0.97733000  0.82672700  0.84561000  1
  H  313  1  0.97653400  0.82081200  0.89326100  1
  H  314  1  0.98215600  0.80709800  0.94171100  1
  H  315  1  0.98593900  0.78497400  0.98455700  1
  H  316  1  0.00995100  0.71196600  0.94592800  1
  H  317  1  0.01068200  0.74627300  0.83546300  1
  H  318  1  0.92329000  0.73637500  0.88327900  1
  H  319  1  0.90445700  0.65450100  0.89976300  1
  H  320  1  0.97068400  0.64691800  0.90228800  1
  H  321  1  0.08420800  0.73814200  0.88301400  1
  H  322  1  0.04032100  0.64780600  0.90251800  1
  H  323  1  0.10615800  0.65667800  0.89994400  1
  H  353  1  0.52977100  0.66168000  0.68000200  1
  H  354  1  0.53018600  0.61405500  0.68635800  1
  H  355  1  0.52448500  0.56570700  0.70080200  1
  H  356  1  0.52075500  0.52320600  0.72355200  1
  H  357  1  0.49773500  0.56298500  0.79621800  1
  H  358  1  0.49746900  0.67273200  0.76056000  1
  H  359  1  0.58461300  0.62144900  0.76973900  1
  H  360  1  0.60367900  0.61481900  0.85299200  1
  H  361  1  0.53744300  0.61474200  0.86097900  1
  H  362  1  0.42333900  0.62217600  0.76835100  1
  H  363  1  0.46781700  0.61481300  0.86030600  1
  H  364  1  0.40192600  0.61537500  0.85138100  1
  H  394  1  0.53014400  0.34576100  0.32740800  1
  H  395  1  0.53072100  0.39340400  0.32116400  1
  H  396  1  0.52492000  0.44184900  0.30684600  1
  H  397  1  0.52120700  0.48439400  0.28415600  1
  H  398  1  0.49781700  0.44473700  0.21148400  1
  H  399  1  0.49713300  0.33497600  0.24696300  1
  H  400  1  0.58448700  0.38588200  0.23770700  1
  H  401  1  0.60328400  0.39211600  0.15438800  1
  H  402  1  0.53701400  0.39260100  0.14654900  1
  H  403  1  0.42325500  0.38598200  0.23947700  1
  H  404  1  0.46734900  0.39329800  0.14742500  1
  H  405  1  0.40149700  0.39322200  0.15653800  1
  H  435  1  0.52983000  0.32726300  0.66242600  1
  H  436  1  0.53045500  0.32130800  0.61478200  1
  H  437  1  0.52488900  0.30750500  0.56637200  1
  H  438  1  0.52145600  0.28526500  0.52357500  1
  H  439  1  0.49814800  0.21220300  0.56233600  1
  H  440  1  0.49721400  0.24667500  0.67273200  1
  H  441  1  0.58466900  0.23745800  0.62407800  1
  H  442  1  0.60452000  0.15560300  0.60811600  1
  H  443  1  0.53836900  0.14747300  0.60626700  1
  H  444  1  0.42354100  0.23800300  0.62484100  1
  H  445  1  0.46878200  0.14789200  0.60595200  1
  H  446  1  0.40282100  0.15635300  0.60811800  1
  H  476  1  0.53030400  0.68053100  0.34568500  1
  H  477  1  0.53108600  0.68680100  0.39331200  1
  H  478  1  0.52561500  0.70100600  0.44174700  1
  H  479  1  0.52162700  0.72352400  0.48438000  1
  H  480  1  0.49685800  0.79605800  0.44502000  1
  H  481  1  0.49659700  0.76084700  0.33498000  1
  H  482  1  0.58384700  0.77181700  0.38389500  1
  H  483  1  0.60020700  0.85447400  0.39741700  1
  H  484  1  0.53378400  0.86129500  0.39872300  1
  H  485  1  0.42269700  0.76765400  0.38454000  1
  H  486  1  0.46430900  0.85967900  0.39759300  1
  H  487  1  0.39871000  0.84981300  0.39607500  1
  H  517  1  0.47708500  0.34565700  0.68095400  1
  H  518  1  0.47636400  0.39330200  0.68692100  1
  H  519  1  0.48199800  0.44173300  0.70070100  1
  H  520  1  0.48578400  0.48454200  0.72288100  1
  H  521  1  0.50983600  0.44582100  0.79583300  1
  H  522  1  0.51045000  0.33539900  0.76139600  1
  H  523  1  0.42306200  0.38346200  0.77117100  1
  H  524  1  0.40399000  0.39985900  0.85303600  1
  H  525  1  0.47020600  0.40224500  0.86074000  1
  H  526  1  0.58403800  0.38304000  0.76969500  1
  H  527  1  0.53983500  0.40250700  0.85995300  1
  H  528  1  0.60570400  0.39999100  0.85118300  1
  H  558  1  0.47781100  0.66185900  0.32698100  1
  H  559  1  0.47702300  0.61422600  0.32092300  1
  H  560  1  0.48239600  0.56584900  0.30703900  1
  H  561  1  0.48614800  0.52306200  0.28481100  1
  H  562  1  0.51014700  0.56185900  0.21189100  1
  H  563  1  0.51070200  0.67225500  0.24644900  1
  H  564  1  0.42345700  0.62451000  0.23631200  1
  H  565  1  0.40487100  0.60826200  0.15435800  1
  H  566  1  0.47110900  0.60566000  0.14688900  1
  H  567  1  0.58442000  0.62453800  0.23832200  1
  H  568  1  0.54070700  0.60510100  0.14793500  1
  H  569  1  0.60653100  0.60751500  0.15690600  1
  H  599  1  0.47752000  0.68055700  0.66135400  1
  H  600  1  0.47657500  0.68689900  0.61372900  1
  H  601  1  0.48206800  0.70128000  0.56529800  1
  H  602  1  0.48573300  0.72398500  0.52275600  1
  H  603  1  0.50967300  0.79656300  0.56241400  1
  H  604  1  0.51092900  0.76092100  0.67215500  1
  H  605  1  0.42334200  0.77094300  0.62225500  1
  H  606  1  0.40574900  0.85448000  0.61690000  1
  H  607  1  0.47210500  0.86174000  0.61527500  1
  H  608  1  0.58450600  0.76793600  0.62097700  1
  H  609  1  0.54167200  0.86026800  0.61331400  1
  H  610  1  0.60738300  0.85065200  0.61302800  1
  H  640  1  0.47756700  0.32711500  0.34590400  1
  H  641  1  0.47718300  0.32106500  0.39356300  1
  H  642  1  0.48302200  0.30702300  0.44196700  1
  H  643  1  0.48701800  0.28461000  0.48464200  1
  H  644  1  0.51080900  0.21180300  0.44542500  1
  H  645  1  0.51055900  0.24662700  0.33537100  1
  H  646  1  0.42334200  0.23739200  0.38578400  1
  H  647  1  0.40452300  0.15490900  0.39871500  1
  H  648  1  0.47074800  0.14687900  0.39865700  1
  H  649  1  0.58452600  0.23884600  0.38419100  1
  H  650  1  0.54030100  0.14726800  0.39588800  1
  H  651  1  0.60614700  0.15604300  0.39333800  1
  H  681  1  0.20823800  0.14739400  0.49006100  1
  H  682  1  0.16958700  0.14853900  0.45149000  1
  H  683  1  0.14451800  0.15458500  0.40405600  1
  H  684  1  0.13106100  0.15497000  0.35678300  1
  H  685  1  0.22889800  0.10944300  0.34219200  1
  H  686  1  0.29386600  0.10917800  0.44576100  1
  H  687  1  0.27870900  0.16536500  0.39924200  1
  H  688  1  0.37579900  0.15243700  0.35239800  1
  H  689  1  0.36263600  0.10513100  0.35153300  1
  H  690  1  0.21502300  0.06132100  0.39807800  1
  H  691  1  0.33788600  0.05751300  0.35624800  1
  H  692  1  0.29953600  0.01878400  0.35680300  1
  H  698  1  0.30773300  0.13669100  0.48385900  1
  H  699  1  0.18965400  0.12748600  0.30544400  1
  H  700  1  0.20113700  0.02399100  0.36883700  1
  H  701  1  0.31751400  0.20283400  0.38172700  1
  H  726  1  0.23089600  0.84208400  0.52397400  1
  H  727  1  0.18867600  0.83951000  0.56123000  1
  H  728  1  0.15291600  0.84247500  0.60596800  1
  H  729  1  0.13613500  0.84570400  0.65268200  1
  H  730  1  0.22603200  0.89932700  0.66542200  1
  H  731  1  0.29097700  0.90375800  0.56205300  1
  H  732  1  0.28270500  0.84247900  0.60807200  1
  H  733  1  0.37187900  0.85539000  0.66226100  1
  H  734  1  0.35472900  0.90202700  0.66554500  1
  H  735  1  0.21685000  0.94553200  0.60378700  1
  H  736  1  0.31857600  0.94657500  0.66846100  1
  H  737  1  0.27621500  0.98375900  0.66571900  1
  H  743  1  0.31385700  0.87281800  0.52493100  1
  H  744  1  0.19066600  0.87747500  0.70282100  1
  H  745  1  0.19358100  0.98267800  0.63449400  1
  H  746  1  0.31844700  0.80517600  0.62970900  1
  H  771  1  0.22741400  0.52556600  0.16762700  1
  H  772  1  0.18634000  0.56347300  0.16941200  1
  H  773  1  0.15263500  0.60902500  0.16583700  1
  H  774  1  0.13716600  0.65581900  0.16117400  1
  H  775  1  0.22636900  0.66537000  0.10616600  1
  H  776  1  0.28801600  0.56112200  0.10475100  1
  H  777  1  0.27939100  0.61230800  0.16546400  1
  H  778  1  0.37880800  0.65462500  0.14748900  1
  H  779  1  0.36403300  0.65235100  0.10043200  1
  H  780  1  0.21085400  0.60948600  0.06321200  1
  H  781  1  0.33768200  0.64366500  0.05340200  1
  H  782  1  0.29813400  0.64108900  0.01531000  1
  H  788  1  0.31047500  0.52559200  0.13805800  1
  H  789  1  0.19079100  0.70404700  0.12547100  1
  H  790  1  0.19679500  0.63275200  0.02320100  1
  H  791  1  0.31922400  0.63240900  0.20062100  1
  H  816  1  0.22782800  0.48206600  0.84035300  1
  H  817  1  0.18653300  0.44432900  0.83863700  1
  H  818  1  0.15258500  0.39901300  0.84214000  1
  H  819  1  0.13698300  0.35222200  0.84658100  1
  H  820  1  0.22611600  0.34229200  0.90157000  1
  H  821  1  0.28811100  0.44654600  0.90335300  1
  H  822  1  0.27882700  0.39623100  0.84235300  1
  H  823  1  0.37800100  0.35309700  0.85904600  1
  H  824  1  0.36362300  0.35448100  0.90619400  1
  H  825  1  0.21145800  0.39789800  0.94509900  1
  H  826  1  0.33742600  0.36171500  0.95334400  1
  H  827  1  0.29817000  0.36355200  0.99159000  1
  H  833  1  0.31069400  0.48212000  0.87003500  1
  H  834  1  0.19048100  0.30376700  0.88211300  1
  H  835  1  0.19759300  0.37281300  0.98442000  1
  H  836  1  0.31826000  0.37651100  0.80657700  1
  H  861  1  0.78082700  0.83954600  0.48248200  1
  H  862  1  0.82186700  0.83784900  0.44455900  1
  H  863  1  0.85572800  0.84169000  0.39892100  1
  H  864  1  0.87097500  0.84642100  0.35207400  1
  H  865  1  0.78111000  0.90092900  0.34269800  1
  H  866  1  0.72010500  0.90244000  0.44708500  1
  H  867  1  0.72770100  0.84226400  0.39584600  1
  H  868  1  0.62910200  0.86135500  0.35306700  1
  H  869  1  0.64465400  0.90827100  0.35568900  1
  H  870  1  0.79829200  0.94370300  0.39918600  1
  H  871  1  0.67143500  0.95523300  0.36564900  1
  H  872  1  0.71133900  0.99302600  0.36937200  1
  H  878  1  0.69765400  0.86853700  0.48243200  1
  H  879  1  0.81607400  0.88060000  0.30380500  1
  H  880  1  0.81321900  0.98426400  0.37781900  1
  H  881  1  0.68736300  0.80757000  0.37551100  1
  H  906  1  0.79778700  0.14509800  0.51702800  1
  H  907  1  0.83681400  0.14721800  0.55535000  1
  H  908  1  0.86250300  0.15418700  0.60283500  1
  H  909  1  0.87673400  0.15481100  0.65000900  1
  H  910  1  0.77906600  0.10945400  0.66565700  1
  H  911  1  0.71236200  0.10842400  0.56282400  1
  H  912  1  0.72883100  0.16515500  0.60974200  1
  H  913  1  0.63103400  0.15174600  0.65572100  1
  H  914  1  0.64414700  0.10440200  0.65612300  1
  H  915  1  0.79240000  0.06132300  0.60964400  1
  H  916  1  0.66944600  0.05667100  0.65126000  1
  H  917  1  0.70803500  0.01803200  0.65029400  1
  H  923  1  0.69755600  0.13412600  0.52418000  1
  H  924  1  0.81871200  0.12806900  0.70198400  1
  H  925  1  0.80670700  0.02379500  0.63825200  1
  H  926  1  0.69057100  0.20243100  0.62849300  1
  H  951  1  0.79801700  0.49208600  0.14234100  1
  H  952  1  0.83743300  0.45395800  0.14470500  1
  H  953  1  0.86380100  0.40692800  0.15279900  1
  H  954  1  0.87849600  0.35984600  0.15474900  1
  H  955  1  0.77925400  0.34227600  0.11203600  1
  H  956  1  0.71100500  0.44468100  0.10962800  1
  H  957  1  0.72608300  0.40143100  0.16534700  1
  H  958  1  0.63705200  0.34634200  0.15541100  1
  H  959  1  0.65274400  0.34185500  0.10863500  1
  H  960  1  0.78823000  0.40327400  0.06127200  1
  H  961  1  0.68682400  0.33837100  0.06320100  1
  H  962  1  0.72807700  0.34035500  0.02538100  1
  H  968  1  0.69699800  0.48448600  0.13353700  1
  H  969  1  0.81892000  0.30691800  0.13201800  1
  H  970  1  0.81094500  0.37030700  0.02556100  1
  H  971  1  0.69049200  0.38168100  0.20390000  1
  H  996  1  0.79815500  0.51563600  0.86549200  1
  H  997  1  0.83755700  0.55380400  0.86326600  1
  H  998  1  0.86385200  0.60087200  0.85522500  1
  H  999  1  0.87842800  0.64797200  0.85328200  1
  H  1000  1  0.77902100  0.66542600  0.89582900  1
  H  1001  1  0.71101600  0.56295500  0.89816500  1
  H  1002  1  0.72642800  0.60595000  0.84236900  1
  H  1003  1  0.63706300  0.66086100  0.85169800  1
  H  1004  1  0.65232700  0.66556900  0.89851300  1
  H  1005  1  0.78787100  0.60501300  0.94679800  1
  H  1006  1  0.68585700  0.66933900  0.94395300  1
  H  1007  1  0.72695800  0.66796300  0.98179600  1
  H  1013  1  0.69709600  0.52320800  0.87413600  1
  H  1014  1  0.81876600  0.70086600  0.87587700  1
  H  1015  1  0.81005600  0.63878100  0.98208700  1
  H  1016  1  0.69080900  0.62502300  0.80360400  1
  H  1041  1  0.79816000  0.86429600  0.51764900  1
  H  1042  1  0.83739400  0.86197800  0.55590900  1
  H  1043  1  0.86346200  0.85401100  0.60326600  1
  H  1044  1  0.87771600  0.85231300  0.65043400  1
  H  1045  1  0.77850300  0.89528800  0.66729500  1
  H  1046  1  0.71110300  0.89738400  0.56470100  1
  H  1047  1  0.72762800  0.84082000  0.60727800  1
  H  1048  1  0.63705200  0.84863300  0.66138600  1
  H  1049  1  0.65091600  0.89564300  0.66642200  1
  H  1050  1  0.78653100  0.94599400  0.60754900  1
  H  1051  1  0.68256500  0.94180300  0.67019200  1
  H  1052  1  0.72280500  0.97998700  0.66957300  1
  H  1058  1  0.69729800  0.87331900  0.52494300  1
  H  1059  1  0.81819400  0.87589100  0.70300100  1
  H  1060  1  0.80683900  0.98108900  0.64243500  1
  H  1061  1  0.69238500  0.80140200  0.62564200  1
  H  1086  1  0.78020200  0.16809200  0.48157500  1
  H  1087  1  0.82192900  0.16968600  0.44412800  1
  H  1088  1  0.85642300  0.16627700  0.39892900  1
  H  1089  1  0.87196400  0.16261300  0.35202900  1
  H  1090  1  0.78110800  0.10948600  0.34085100  1
  H  1091  1  0.71830200  0.10657300  0.44497400  1
  H  1092  1  0.72669700  0.16724000  0.39841400  1
  H  1093  1  0.63607100  0.15457300  0.34542100  1
  H  1094  1  0.65255900  0.10778800  0.34223800  1
  H  1095  1  0.79121400  0.06392800  0.40301800  1
  H  1096  1  0.68858200  0.06286600  0.33909500  1
  H  1097  1  0.73077800  0.02556300  0.34173900  1
  H  1103  1  0.69685800  0.13906500  0.48169900  1
  H  1104  1  0.81620500  0.13057700  0.30273400  1
  H  1105  1  0.81385000  0.02654600  0.37234800  1
  H  1106  1  0.69103000  0.20473700  0.37659100  1
  H  1131  1  0.78092500  0.48119000  0.83942200  1
  H  1132  1  0.82186400  0.44316700  0.83733700  1
  H  1133  1  0.85541100  0.39709000  0.84068400  1
  H  1134  1  0.87049200  0.35019800  0.84526700  1
  H  1135  1  0.78084100  0.34084500  0.89990400  1
  H  1136  1  0.71980200  0.44504000  0.90170900  1
  H  1137  1  0.72872800  0.39405500  0.84064200  1
  H  1138  1  0.62891400  0.35208600  0.85824400  1
  H  1139  1  0.64346000  0.35421300  0.90537500  1
  H  1140  1  0.79661800  0.39745100  0.94284300  1
  H  1141  1  0.67007200  0.36277700  0.95279900  1
  H  1142  1  0.70955500  0.36583800  0.99092300  1
  H  1148  1  0.69752800  0.48081800  0.86850700  1
  H  1149  1  0.81600600  0.30203100  0.88024400  1
  H  1150  1  0.81091100  0.37483400  0.98308200  1
  H  1151  1  0.68921300  0.37363000  0.80534700  1
  H  1176  1  0.78052700  0.52659800  0.16807500  1
  H  1177  1  0.82166000  0.56447300  0.17012600  1
  H  1178  1  0.85541700  0.61034700  0.16687200  1
  H  1179  1  0.87065800  0.65723100  0.16247500  1
  H  1180  1  0.78111300  0.66693900  0.10782100  1
  H  1181  1  0.71969800  0.56275400  0.10568300  1
  H  1182  1  0.72925200  0.61304200  0.16702200  1
  H  1183  1  0.62965400  0.65571500  0.15050900  1
  H  1184  1  0.64383000  0.65431200  0.10329800  1
  H  1185  1  0.79606800  0.61052400  0.06436600  1
  H  1186  1  0.67023200  0.64686400  0.05574000  1
  H  1187  1  0.70942100  0.64435800  0.01744500  1
  H  1193  1  0.69730400  0.52690600  0.13889500  1
  H  1194  1  0.81629500  0.70560900  0.12773700  1
  H  1195  1  0.81015400  0.63467100  0.02466000  1
  H  1196  1  0.69013000  0.63327400  0.20285400  1
  H  1221  1  0.22363700  0.16963700  0.52678400  1
  H  1222  1  0.18317200  0.17095800  0.56497400  1
  H  1223  1  0.15054600  0.16719900  0.61120500  1
  H  1224  1  0.13631400  0.16234400  0.65820900  1
  H  1225  1  0.22696100  0.10836200  0.66659800  1
  H  1226  1  0.28623000  0.10744000  0.56174100  1
  H  1227  1  0.27856500  0.16742200  0.61336600  1
  H  1228  1  0.37834600  0.14866800  0.65488300  1
  H  1229  1  0.36318300  0.10166300  0.65223700  1
  H  1230  1  0.20904200  0.06591400  0.60943800  1
  H  1231  1  0.33615900  0.05431400  0.64243300  1
  H  1232  1  0.29637300  0.01642700  0.63840900  1
  H  1238  1  0.30739000  0.14200300  0.52639400  1
  H  1239  1  0.19231600  0.12827300  0.70592400  1
  H  1240  1  0.19423500  0.02501900  0.62980100  1
  H  1241  1  0.31861600  0.20219300  0.63401400  1
  H  1266  1  0.21120800  0.86906200  0.49107800  1
  H  1267  1  0.17154000  0.86519200  0.45312500  1
  H  1268  1  0.14482400  0.85542000  0.40576200  1
  H  1269  1  0.12969400  0.85305200  0.35874200  1
  H  1270  1  0.22903600  0.89520600  0.34029000  1
  H  1271  1  0.29854300  0.89853800  0.44190100  1
  H  1272  1  0.27999400  0.84117900  0.39950800  1
  H  1273  1  0.37130100  0.84881900  0.34598400  1
  H  1274  1  0.35787500  0.89592300  0.34105800  1
  H  1275  1  0.22192200  0.94644300  0.39950600  1
  H  1276  1  0.32610000  0.94225400  0.33704300  1
  H  1277  1  0.28585700  0.98045200  0.33759000  1
  H  1283  1  0.31322000  0.87763200  0.48259100  1
  H  1284  1  0.18870600  0.87517200  0.30531600  1
  H  1285  1  0.20158400  0.98128500  0.36426500  1
  H  1286  1  0.31451000  0.80155100  0.38021700  1
  H  1311  1  0.20958800  0.51710000  0.86476500  1
  H  1312  1  0.17027300  0.55528600  0.86183200  1
  H  1313  1  0.14372400  0.60273300  0.85370300  1
  H  1314  1  0.12927200  0.64988900  0.85186200  1
  H  1315  1  0.22889000  0.66710700  0.89424500  1
  H  1316  1  0.29645100  0.56473200  0.89732800  1
  H  1317  1  0.28113200  0.60800600  0.84083000  1
  H  1318  1  0.37064000  0.66269400  0.85058800  1
  H  1319  1  0.35534300  0.66708500  0.89746800  1
  H  1320  1  0.21959800  0.60571600  0.94483800  1
  H  1321  1  0.32146500  0.67027800  0.94347600  1
  H  1322  1  0.28037700  0.66794000  0.98143200  1
  H  1328  1  0.31066900  0.52465100  0.87414200  1
  H  1329  1  0.18959300  0.70259500  0.87383400  1
  H  1330  1  0.19710300  0.63850300  0.98085100  1
  H  1331  1  0.31631300  0.62817800  0.80211600  1
  H  1356  1  0.20944900  0.49063600  0.14277400  1
  H  1357  1  0.17013300  0.45241200  0.14554300  1
  H  1358  1  0.14366700  0.40492700  0.15361700  1
  H  1359  1  0.12935500  0.35774900  0.15546400  1
  H  1360  1  0.22914000  0.34065700  0.11324500  1
  H  1361  1  0.29643400  0.44309500  0.11023700  1
  H  1362  1  0.28075300  0.40016700  0.16680100  1
  H  1363  1  0.37058600  0.34562900  0.15775700  1
  H  1364  1  0.35574400  0.34095200  0.11084500  1
  H  1365  1  0.21997100  0.40135100  0.06240400  1
  H  1366  1  0.32241800  0.33735200  0.06488600  1
  H  1367  1  0.28146300  0.33895000  0.02692100  1
  H  1373  1  0.31056800  0.48309300  0.13358700  1
  H  1374  1  0.18976200  0.30510200  0.13367400  1
  H  1375  1  0.19803800  0.36754700  0.02690900  1
  H  1376  1  0.31596000  0.38082400  0.20573700  1
  C  1  1  0.97094800  0.11923800  0.29293800  1
  C  2  1  0.98301200  0.11653300  0.31954900  1
  C  3  1  0.02183300  0.11603200  0.32012000  1
  C  4  1  0.03519500  0.11882400  0.29390700  1
  C  5  1  0.07437400  0.12042500  0.28961600  1
  C  6  1  0.09969200  0.11889200  0.31153400  1
  C  7  1  0.08515200  0.11297300  0.33725000  1
  C  8  1  0.04629800  0.11240800  0.34188900  1
  C  9  1  0.95760300  0.11445500  0.34094000  1
  C  10  1  0.91906400  0.11630100  0.33554500  1
  C  11  1  0.90589300  0.12150900  0.30930400  1
  C  12  1  0.93208400  0.12172700  0.28781000  1
  C  13  1  0.00640500  0.13272900  0.24934900  1
  C  14  1  0.01427300  0.11608400  0.22735600  1
  C  15  1  0.01307300  0.08935300  0.23531900  1
  C  16  1  0.00506900  0.08858000  0.26270100  1
  C  17  1  0.01839100  0.06552600  0.22062300  1
  C  18  1  0.01543900  0.04057400  0.23376800  1
  C  19  1  0.00647400  0.03920300  0.26132900  1
  C  20  1  0.00200500  0.06345300  0.27572600  1
  C  21  1  0.00378000  0.16080000  0.24503600  1
  C  22  1  0.00977100  0.17205400  0.21910200  1
  C  23  1  0.02178400  0.15472300  0.19837600  1
  C  24  1  0.02287400  0.12678800  0.20203700  1
  C  37  1  0.00360000  0.11617000  0.27438400  1
  C  42  1  0.97213700  0.88903600  0.71424100  1
  C  43  1  0.98458500  0.89199100  0.68774300  1
  C  44  1  0.02338900  0.89122400  0.68729400  1
  C  45  1  0.03636800  0.88831700  0.71359000  1
  C  46  1  0.07539000  0.88569100  0.71804200  1
  C  47  1  0.10087700  0.88583700  0.69616800  1
  C  48  1  0.08684800  0.89079700  0.67011000  1
  C  49  1  0.04811100  0.89295000  0.66543000  1
  C  50  1  0.95952100  0.89590500  0.66641200  1
  C  51  1  0.92088400  0.89511400  0.67165600  1
  C  52  1  0.90722200  0.88849100  0.69743600  1
  C  53  1  0.93312700  0.88704900  0.71906900  1
  C  54  1  0.00685700  0.87492500  0.75806600  1
  C  55  1  0.01476300  0.89152400  0.78009200  1
  C  56  1  0.01410800  0.91825300  0.77212300  1
  C  57  1  0.00672900  0.91908300  0.74465700  1
  C  58  1  0.01931300  0.94203200  0.78691900  1
  C  59  1  0.01675100  0.96701800  0.77380400  1
  C  60  1  0.00834600  0.96846500  0.74616100  1
  C  61  1  0.00406600  0.94425500  0.73166200  1
  C  62  1  0.00396500  0.84686200  0.76239900  1
  C  63  1  0.00972200  0.83558600  0.78836100  1
  C  64  1  0.02172900  0.85287800  0.80911700  1
  C  65  1  0.02308200  0.88079900  0.80544700  1
  C  78  1  0.00469500  0.89149400  0.73298200  1
  C  83  1  0.97148900  0.71489200  0.11946700  1
  C  84  1  0.98377700  0.68822300  0.11835900  1
  C  85  1  0.02262000  0.68773300  0.11839400  1
  C  86  1  0.03579600  0.71410900  0.11951100  1
  C  87  1  0.07493600  0.71866100  0.12073300  1
  C  88  1  0.10044800  0.69681500  0.12077400  1
  C  89  1  0.08612400  0.67057900  0.11741700  1
  C  90  1  0.04728300  0.66581300  0.11685500  1
  C  91  1  0.95850000  0.66666667  0.11668000  1
  C  92  1  0.91987500  0.67210300  0.11734900  1
  C  93  1  0.90638600  0.69851600  0.12107000  1
  C  94  1  0.93252200  0.72004300  0.12089900  1
  C  95  1  0.00662500  0.75854300  0.13257400  1
  C  96  1  0.01441200  0.78047500  0.11584500  1
  C  97  1  0.01338700  0.77234500  0.08916400  1
  C  98  1  0.00578000  0.74489700  0.08851700  1
  C  99  1  0.01852700  0.78697100  0.06528100  1
  C  100  1  0.01569200  0.77369600  0.04039800  1
  C  101  1  0.00705700  0.74607500  0.03915800  1
  C  102  1  0.00284000  0.73172200  0.06347200  1
  C  103  1  0.00392500  0.76292000  0.16061800  1
  C  104  1  0.00987600  0.78888200  0.17178100  1
  C  105  1  0.02187100  0.80957400  0.15439800  1
  C  106  1  0.02297100  0.80583400  0.12647100  1
  C  119  1  0.00410200  0.73342800  0.11616200  1
  C  124  1  0.97125400  0.29283000  0.88825900  1
  C  125  1  0.98349100  0.31951100  0.88935100  1
  C  126  1  0.02233700  0.32003400  0.88926500  1
  C  127  1  0.03555600  0.29366900  0.88806900  1
  C  128  1  0.07470800  0.28915200  0.88693900  1
  C  129  1  0.10018300  0.31101700  0.88690300  1
  C  130  1  0.08581300  0.33724400  0.89023600  1
  C  131  1  0.04696300  0.34197100  0.89081500  1
  C  132  1  0.95818000  0.34099800  0.89107300  1
  C  133  1  0.91956300  0.33556900  0.89046600  1
  C  134  1  0.90611700  0.30914600  0.88674800  1
  C  135  1  0.93229200  0.28764300  0.88688700  1
  C  136  1  0.00638800  0.24919300  0.87517200  1
  C  137  1  0.01430000  0.22729200  0.89191300  1
  C  138  1  0.01334100  0.23546100  0.91858000  1
  C  139  1  0.00569600  0.26290500  0.91919300  1
  C  140  1  0.01859600  0.22087700  0.94247500  1
  C  141  1  0.01580900  0.23419100  0.96733900  1
  C  142  1  0.00709300  0.26180200  0.96854300  1
  C  143  1  0.00279000  0.27611500  0.94421700  1
  C  144  1  0.00364800  0.24479000  0.84713800  1
  C  145  1  0.00956500  0.21881200  0.83600800  1
  C  146  1  0.02150900  0.19811500  0.85339800  1
  C  147  1  0.02273200  0.20190100  0.88131600  1
  C  160  1  0.00391100  0.27433200  0.89153800  1
  C  165  1  0.03527200  0.88962700  0.29364900  1
  C  166  1  0.02250800  0.89250000  0.32008000  1
  C  167  1  0.98368500  0.89194100  0.32026400  1
  C  168  1  0.97103800  0.88912200  0.29387700  1
  C  169  1  0.93203700  0.88691700  0.28911200  1
  C  170  1  0.90621500  0.88724700  0.31077500  1
  C  171  1  0.91995300  0.89205500  0.33694700  1
  C  172  1  0.95865700  0.89383400  0.34193500  1
  C  173  1  0.04734300  0.89618200  0.34159100  1
  C  174  1  0.08604200  0.89522800  0.33659600  1
  C  175  1  0.09998100  0.88879400  0.31084700  1
  C  176  1  0.07433200  0.88763000  0.28904400  1
  C  177  1  0.00094500  0.87581700  0.24964000  1
  C  178  1  0.99309300  0.89241800  0.22761200  1
  C  179  1  0.99382200  0.91913500  0.23559900  1
  C  180  1  0.00120300  0.91994000  0.26306800  1
  C  181  1  0.98861500  0.94291900  0.22081900  1
  C  182  1  0.99116400  0.96789200  0.23395800  1
  C  183  1  0.99950100  0.96931400  0.26161500  1
  C  184  1  0.00379100  0.94509500  0.27609900  1
  C  185  1  0.00384400  0.84776300  0.24535300  1
  C  186  1  0.99812100  0.83649500  0.21940100  1
  C  187  1  0.98616600  0.85376300  0.19860700  1
  C  188  1  0.98483200  0.88168600  0.20225100  1
  C  201  1  0.00297200  0.89234100  0.27472600  1
  C  206  1  0.03707400  0.11846000  0.71498100  1
  C  207  1  0.02528600  0.11595300  0.68828700  1
  C  208  1  0.98645800  0.11555500  0.68750000  1
  C  209  1  0.97284400  0.11813200  0.71366400  1
  C  210  1  0.93364300  0.11989800  0.71777900  1
  C  211  1  0.90853200  0.11876900  0.69571900  1
  C  212  1  0.92327300  0.11316400  0.66999200  1
  C  213  1  0.96217400  0.11238900  0.66555700  1
  C  214  1  0.05094000  0.11388200  0.66704300  1
  C  215  1  0.08943500  0.11545700  0.67269600  1
  C  216  1  0.10235800  0.12042300  0.69905300  1
  C  217  1  0.07590200  0.12063700  0.72037500  1
  C  218  1  0.00127300  0.13181700  0.75833900  1
  C  219  1  0.99321600  0.11519000  0.78030400  1
  C  220  1  0.99445300  0.08846500  0.77233100  1
  C  221  1  0.00258500  0.08770800  0.74496700  1
  C  222  1  0.98910500  0.06463000  0.78700700  1
  C  223  1  0.99215600  0.03968700  0.77385400  1
  C  224  1  0.00120000  0.03834200  0.74630500  1
  C  225  1  0.00572300  0.06259900  0.73192600  1
  C  226  1  0.00398400  0.15987300  0.76260600  1
  C  227  1  0.99787100  0.17113900  0.78850200  1
  C  228  1  0.98573200  0.15386400  0.80923700  1
  C  229  1  0.98454800  0.12592700  0.80559900  1
  C  242  1  0.00422600  0.11529700  0.73332000  1
  C  247  1  0.03634900  0.29348300  0.11762900  1
  C  248  1  0.02421700  0.31988500  0.11339000  1
  C  249  1  0.98540100  0.32046400  0.11352100  1
  C  250  1  0.97219900  0.29441600  0.11786800  1
  C  251  1  0.93314400  0.29030800  0.12082600  1
  C  252  1  0.90786100  0.31224700  0.11928400  1
  C  253  1  0.92206500  0.33769600  0.11197200  1
  C  254  1  0.96084400  0.34217000  0.10987600  1
  C  255  1  0.04955500  0.34103200  0.10938400  1
  C  256  1  0.08809700  0.33575500  0.11137300  1
  C  257  1  0.10127100  0.31016400  0.11914200  1
  C  258  1  0.07520800  0.28863500  0.12068900  1
  C  259  1  0.00112100  0.24982200  0.13199000  1
  C  260  1  0.99296400  0.22775200  0.11550500  1
  C  261  1  0.99388100  0.23553900  0.08873000  1
  C  262  1  0.00182500  0.26291700  0.08776700  1
  C  263  1  0.98844100  0.22067100  0.06501600  1
  C  264  1  0.99122800  0.23364000  0.03995800  1
  C  265  1  0.00009200  0.26120100  0.03838300  1
  C  266  1  0.00469100  0.27574800  0.06251500  1
  C  267  1  0.00404600  0.24560300  0.16006500  1
  C  268  1  0.99808200  0.21971700  0.17145600  1
  C  269  1  0.98583800  0.19893300  0.15428500  1
  C  270  1  0.98445900  0.20248000  0.12635000  1
  C  283  1  0.00370400  0.27480500  0.11529600  1
  C  288  1  0.03630800  0.71426500  0.88999800  1
  C  289  1  0.02416600  0.68786900  0.89426100  1
  C  290  1  0.98535000  0.68730800  0.89419400  1
  C  291  1  0.97215400  0.71335000  0.88981700  1
  C  292  1  0.93309700  0.71746300  0.88688900  1
  C  293  1  0.90780000  0.69553500  0.88853100  1
  C  294  1  0.92200600  0.67011200  0.89592500  1
  C  295  1  0.96078800  0.66562300  0.89794500  1
  C  296  1  0.04949100  0.66666667  0.89815700  1
  C  297  1  0.08803100  0.67194100  0.89607400  1
  C  298  1  0.10121300  0.69754800  0.88836300  1
  C  299  1  0.07516400  0.71909100  0.88688100  1
  C  300  1  0.00107900  0.75792000  0.87560400  1
  C  301  1  0.99294400  0.78001000  0.89206900  1
  C  302  1  0.99388900  0.77225700  0.91885800  1
  C  303  1  0.00183400  0.74488100  0.91985800  1
  C  304  1  0.98848300  0.78716100  0.94255300  1
  C  305  1  0.99126700  0.77422800  0.96763100  1
  C  306  1  0.00010900  0.74666600  0.96924800  1
  C  307  1  0.00469600  0.73208600  0.94513100  1
  C  308  1  0.00396000  0.76211100  0.84751900  1
  C  309  1  0.99797500  0.78798500  0.83609400  1
  C  310  1  0.98571200  0.80877200  0.85325400  1
  C  311  1  0.98438600  0.80526100  0.88119500  1
  C  324  1  0.00367600  0.73296000  0.89233900  1
  C  329  1  0.47145100  0.61944600  0.79285300  1
  C  330  1  0.48377000  0.61829800  0.81951200  1
  C  331  1  0.52261700  0.61827200  0.81996800  1
  C  332  1  0.53575800  0.61938800  0.79358400  1
  C  333  1  0.57489400  0.62055000  0.78899600  1
  C  334  1  0.60044000  0.62050400  0.81082000  1
  C  335  1  0.58614400  0.61711200  0.83706200  1
  C  336  1  0.54730800  0.61664600  0.84186200  1
  C  337  1  0.45851600  0.61676400  0.84104700  1
  C  338  1  0.41988700  0.61755300  0.83568600  1
  C  339  1  0.40638500  0.62126900  0.80927700  1
  C  340  1  0.43248700  0.62100700  0.78773200  1
  C  341  1  0.50649000  0.63246300  0.74916200  1
  C  342  1  0.51419900  0.61571600  0.72722800  1
  C  343  1  0.51318900  0.58904700  0.73538600  1
  C  344  1  0.50558700  0.58842600  0.76283600  1
  C  345  1  0.51835500  0.56515400  0.72078000  1
  C  346  1  0.51558700  0.54028600  0.73408500  1
  C  347  1  0.50699800  0.53906800  0.76171400  1
  C  348  1  0.50274900  0.56339300  0.77604300  1
  C  349  1  0.50386800  0.66050600  0.74478100  1
  C  350  1  0.50970900  0.67163600  0.71879500  1
  C  351  1  0.52151500  0.65423200  0.69806700  1
  C  352  1  0.52260300  0.62631100  0.70182900  1
  C  365  1  0.50402200  0.61607700  0.77429300  1
  C  370  1  0.47126900  0.38842200  0.21484800  1
  C  371  1  0.48347600  0.38953200  0.18815900  1
  C  372  1  0.52232000  0.38932600  0.18760300  1
  C  373  1  0.53556400  0.38819200  0.21396000  1
  C  374  1  0.57470000  0.38680000  0.21846900  1
  C  375  1  0.60015700  0.38665500  0.19659300  1
  C  376  1  0.58579100  0.39001300  0.17036600  1
  C  377  1  0.54694100  0.39073000  0.16565200  1
  C  378  1  0.45812600  0.39133500  0.16670000  1
  C  379  1  0.41951700  0.39082800  0.17217000  1
  C  380  1  0.40610200  0.38708400  0.19859900  1
  C  381  1  0.43231600  0.38712000  0.22007400  1
  C  382  1  0.50643400  0.37519500  0.25842400  1
  C  383  1  0.51438700  0.39188000  0.28036000  1
  C  384  1  0.51347300  0.41856900  0.27224800  1
  C  385  1  0.50580900  0.41924600  0.24481000  1
  C  386  1  0.51875600  0.44243800  0.28687400  1
  C  387  1  0.51598800  0.46733000  0.27360900  1
  C  388  1  0.50729800  0.46859200  0.24599800  1
  C  389  1  0.50293700  0.44429700  0.23164300  1
  C  390  1  0.50370600  0.34714800  0.26274700  1
  C  391  1  0.50968700  0.33594100  0.28868300  1
  C  392  1  0.52177000  0.35327100  0.30939200  1
  C  393  1  0.52296200  0.38120300  0.30569500  1
  C  406  1  0.50395500  0.39161900  0.23332700  1
  C  411  1  0.47183300  0.21441100  0.61827200  1
  C  412  1  0.48435600  0.18807200  0.61422000  1
  C  413  1  0.52318400  0.18778400  0.61426400  1
  C  414  1  0.53604100  0.21395600  0.61837200  1
  C  415  1  0.57509300  0.21842100  0.62083200  1
  C  416  1  0.60073500  0.19671400  0.61902700  1
  C  417  1  0.58678300  0.17110200  0.61202600  1
  C  418  1  0.54803500  0.16627700  0.61044100  1
  C  419  1  0.45933200  0.16672700  0.61024700  1
  C  420  1  0.42070600  0.17172900  0.61209200  1
  C  421  1  0.40710600  0.19727500  0.61961400  1
  C  422  1  0.43287400  0.21899000  0.62114900  1
  C  423  1  0.50658800  0.25831600  0.63255900  1
  C  424  1  0.51438400  0.28043800  0.61605500  1
  C  425  1  0.51348700  0.27264500  0.58928100  1
  C  426  1  0.50589000  0.24521900  0.58833000  1
  C  427  1  0.51876700  0.28753500  0.56556500  1
  C  428  1  0.51617900  0.27453400  0.54051400  1
  C  429  1  0.50761800  0.24692300  0.53895200  1
  C  430  1  0.50315000  0.23236000  0.56308700  1
  C  431  1  0.50373600  0.26253100  0.66064500  1
  C  432  1  0.50953600  0.28844700  0.67202700  1
  C  433  1  0.52156900  0.30926400  0.65481900  1
  C  434  1  0.52281400  0.30572900  0.62688200  1
  C  447  1  0.50421900  0.23332100  0.61585600  1
  C  452  1  0.47004700  0.79266000  0.38899100  1
  C  453  1  0.48149100  0.81940100  0.39179800  1
  C  454  1  0.52029000  0.82047500  0.39184600  1
  C  455  1  0.53425200  0.79445900  0.38869700  1
  C  456  1  0.57349400  0.79073500  0.38658100  1
  C  457  1  0.59822200  0.81302500  0.38769500  1
  C  458  1  0.58317400  0.83852800  0.39382900  1
  C  459  1  0.54423800  0.84258700  0.39513500  1
  C  460  1  0.45561000  0.84042800  0.39449600  1
  C  461  1  0.41718400  0.83453600  0.39313600  1
  C  462  1  0.40454600  0.80821100  0.38764300  1
  C  463  1  0.43126100  0.78706100  0.38688600  1
  C  464  1  0.50623800  0.74948000  0.37519500  1
  C  465  1  0.51453800  0.72756300  0.39183600  1
  C  466  1  0.51353400  0.73556400  0.41856500  1
  C  467  1  0.50539100  0.76292200  0.41933200  1
  C  468  1  0.51910100  0.72092000  0.44240000  1
  C  469  1  0.51617900  0.73407900  0.46735200  1
  C  470  1  0.50701700  0.76160600  0.46872000  1
  C  471  1  0.50233200  0.77595500  0.44446100  1
  C  472  1  0.50342200  0.74510900  0.34714000  1
  C  473  1  0.50963100  0.71919500  0.33588700  1
  C  474  1  0.52189700  0.69853600  0.35320500  1
  C  475  1  0.52322600  0.70225800  0.38112900  1
  C  488  1  0.50321800  0.77452900  0.39172400  1
  C  493  1  0.53603000  0.38981100  0.79351600  1
  C  494  1  0.52381200  0.39412800  0.81988600  1
  C  495  1  0.48499600  0.39409800  0.82038300  1
  C  496  1  0.47188300  0.38968400  0.79432300  1
  C  497  1  0.43281500  0.38699000  0.79011200  1
  C  498  1  0.40744200  0.38868300  0.81198800  1
  C  499  1  0.42158700  0.39599700  0.83745300  1
  C  500  1  0.46036400  0.39792400  0.84201600  1
  C  501  1  0.54907000  0.39811000  0.84108700  1
  C  502  1  0.58762800  0.39607700  0.83590000  1
  C  503  1  0.60090600  0.38837200  0.81031700  1
  C  504  1  0.57492400  0.38686800  0.78873400  1
  C  505  1  0.50087900  0.37556000  0.74979300  1
  C  506  1  0.49276400  0.39205400  0.72772500  1
  C  507  1  0.49375100  0.41883400  0.73551000  1
  C  508  1  0.50169800  0.41979700  0.76288800  1
  C  509  1  0.48834100  0.44254800  0.72063600  1
  C  510  1  0.49116800  0.46760600  0.73359700  1
  C  511  1  0.49999800  0.46918900  0.76116300  1
  C  512  1  0.50458600  0.44505200  0.77571300  1
  C  513  1  0.50373100  0.34747600  0.74557200  1
  C  514  1  0.49771300  0.33608200  0.71969000  1
  C  515  1  0.48546400  0.35327500  0.69892300  1
  C  516  1  0.48416300  0.38121300  0.70246600  1
  C  529  1  0.50346700  0.39226100  0.77477300  1
  C  534  1  0.53653200  0.61783100  0.21435900  1
  C  535  1  0.52446800  0.61352000  0.18794900  1
  C  536  1  0.48565800  0.61362300  0.18732600  1
  C  537  1  0.47238000  0.61795600  0.21335500  1
  C  538  1  0.43331400  0.62092000  0.21741000  1
  C  539  1  0.40809300  0.61937800  0.19542900  1
  C  540  1  0.42236900  0.61204200  0.17001000  1
  C  541  1  0.46116000  0.60995100  0.16559100  1
  C  542  1  0.54984100  0.60949400  0.16682700  1
  C  543  1  0.58837300  0.61144500  0.17213700  1
  C  544  1  0.60151400  0.61915600  0.19775500  1
  C  545  1  0.57540400  0.62073400  0.21925300  1
  C  546  1  0.50121300  0.63207200  0.25800500  1
  C  547  1  0.49316500  0.61555000  0.28006700  1
  C  548  1  0.49412400  0.58878400  0.27224800  1
  C  549  1  0.50202900  0.58785300  0.24486400  1
  C  550  1  0.48873400  0.56505600  0.28710200  1
  C  551  1  0.49151000  0.54001200  0.27411100  1
  C  552  1  0.50031800  0.53846100  0.24653900  1
  C  553  1  0.50490300  0.56261000  0.23201300  1
  C  554  1  0.50404800  0.66015000  0.26226400  1
  C  555  1  0.49812200  0.67150000  0.28817800  1
  C  556  1  0.48605600  0.65427200  0.30896800  1
  C  557  1  0.48471500  0.62634500  0.30537200  1
  C  570  1  0.50385400  0.61539900  0.23300300  1
  C  575  1  0.53682900  0.79290700  0.61857900  1
  C  576  1  0.52500600  0.81968200  0.61745500  1
  C  577  1  0.48618500  0.82053100  0.61794800  1
  C  578  1  0.47257000  0.79427500  0.61922600  1
  C  579  1  0.43340900  0.79009800  0.62115500  1
  C  580  1  0.40834500  0.81220000  0.62184400  1
  C  581  1  0.42302000  0.83832800  0.61846800  1
  C  582  1  0.46190900  0.84270300  0.61707000  1
  C  583  1  0.55063400  0.84093800  0.61535100  1
  C  584  1  0.58915900  0.83517500  0.61565000  1
  C  585  1  0.60223200  0.80868000  0.61958400  1
  C  586  1  0.57571500  0.78739800  0.61975500  1
  C  587  1  0.50126000  0.74955900  0.63195200  1
  C  588  1  0.49301300  0.72768100  0.61526300  1
  C  589  1  0.49379500  0.73582800  0.58858000  1
  C  590  1  0.50162800  0.76324500  0.58791100  1
  C  591  1  0.48833300  0.72123700  0.56471100  1
  C  592  1  0.49108900  0.73450600  0.53981700  1
  C  593  1  0.49990600  0.76209700  0.53855100  1
  C  594  1  0.50441800  0.77642200  0.56285600  1
  C  595  1  0.50418000  0.74517700  0.65998000  1
  C  596  1  0.49812000  0.71924100  0.67116800  1
  C  597  1  0.48588500  0.69857400  0.65384600  1
  C  598  1  0.48449400  0.70232800  0.62592700  1
  C  611  1  0.50384600  0.77467300  0.61555400  1
  C  616  1  0.53652900  0.21454500  0.38895500  1
  C  617  1  0.52428000  0.18795600  0.39143900  1
  C  618  1  0.48545000  0.18752500  0.39204400  1
  C  619  1  0.47227000  0.21380600  0.38947600  1
  C  620  1  0.43311500  0.21825700  0.38799200  1
  C  621  1  0.40763300  0.19643200  0.38939800  1
  C  622  1  0.42201000  0.17059300  0.39498900  1
  C  623  1  0.46083500  0.16580400  0.39543000  1
  C  624  1  0.54954600  0.16644400  0.39316200  1
  C  625  1  0.58811600  0.17170000  0.39118500  1
  C  626  1  0.60145000  0.19794900  0.38625700  1
  C  627  1  0.57541500  0.21954300  0.38635500  1
  C  628  1  0.50129700  0.25820600  0.37556200  1
  C  629  1  0.49343400  0.28023500  0.39215400  1
  C  630  1  0.49469000  0.27232700  0.41888400  1
  C  631  1  0.50264600  0.24493600  0.41969700  1
  C  632  1  0.48941800  0.28709000  0.44267000  1
  C  633  1  0.49232000  0.27398900  0.46764000  1
  C  634  1  0.50117600  0.24641500  0.46904900  1
  C  635  1  0.50564600  0.23194900  0.44484000  1
  C  636  1  0.50396400  0.26244100  0.34749400  1
  C  637  1  0.49799100  0.28835000  0.33620800  1
  C  638  1  0.48593200  0.30912200  0.35346800  1
  C  639  1  0.48484400  0.30553600  0.38140700  1
  C  652  1  0.50401100  0.23319900  0.39213600  1
  C  657  1  0.26435000  0.08277200  0.39000100  1
  C  658  1  0.29911800  0.08195200  0.37703600  1
  C  659  1  0.31344200  0.10784400  0.37522500  1
  C  660  1  0.28814200  0.12539200  0.38746500  1
  C  661  1  0.29689400  0.15294000  0.38939200  1
  C  662  1  0.33055600  0.16314800  0.37805000  1
  C  663  1  0.35288100  0.14544900  0.36255200  1
  C  664  1  0.34536500  0.11772600  0.36191700  1
  C  665  1  0.31299900  0.05789200  0.36638700  1
  C  666  1  0.29010500  0.03491500  0.36699000  1
  C  667  1  0.25372300  0.03518500  0.37851200  1
  C  668  1  0.24178600  0.05951700  0.39087400  1
  C  669  1  0.24391500  0.11673800  0.42491100  1
  C  670  1  0.20878100  0.12914900  0.42626400  1
  C  671  1  0.19421700  0.13155600  0.40048600  1
  C  672  1  0.21956800  0.12002800  0.38250700  1
  C  673  1  0.16188800  0.14473000  0.39111100  1
  C  674  1  0.15417800  0.14480300  0.36340400  1
  C  675  1  0.17666500  0.13004700  0.34518400  1
  C  676  1  0.21060900  0.11874800  0.35495400  1
  C  677  1  0.26691400  0.11590200  0.44794100  1
  C  678  1  0.25495800  0.12752400  0.47263100  1
  C  679  1  0.21802000  0.13808100  0.47351400  1
  C  680  1  0.19484000  0.13889900  0.45068700  1
  C  693  1  0.25402000  0.11086300  0.39661600  1
  C  694  1  0.16803400  0.12845200  0.31794400  1
  C  695  1  0.28242400  0.13372200  0.49187600  1
  C  696  1  0.22632000  0.01595400  0.37225600  1
  C  697  1  0.33909200  0.19034100  0.38040900  1
  C  702  1  0.26270300  0.92403100  0.61916800  1
  C  703  1  0.29305000  0.92473000  0.63704700  1
  C  704  1  0.30921600  0.89932900  0.63836700  1
  C  705  1  0.28802700  0.88206300  0.62235900  1
  C  706  1  0.29866100  0.85490900  0.61972400  1
  C  707  1  0.33077800  0.84491700  0.63322200  1
  C  708  1  0.34997300  0.86234100  0.65099700  1
  C  709  1  0.33999500  0.88962100  0.65313500  1
  C  710  1  0.29926400  0.94725000  0.65336100  1
  C  711  1  0.27460000  0.96920200  0.65135200  1
  C  712  1  0.24679200  0.97053600  0.63106900  1
  C  713  1  0.24014700  0.94699800  0.61568800  1
  C  714  1  0.24521900  0.88845300  0.58372000  1
  C  715  1  0.21481100  0.87064200  0.58314300  1
  C  716  1  0.19869000  0.86943600  0.60856200  1
  C  717  1  0.22010800  0.88535600  0.62576800  1
  C  718  1  0.16784100  0.85479100  0.61834800  1
  C  719  1  0.15813200  0.85685400  0.64568400  1
  C  720  1  0.17778500  0.87435000  0.66313300  1
  C  721  1  0.20984500  0.88781800  0.65301400  1
  C  722  1  0.26761900  0.89190900  0.56066900  1
  C  723  1  0.26071100  0.87659400  0.53711700  1
  C  724  1  0.23273700  0.85642700  0.53853900  1
  C  725  1  0.20825800  0.85443600  0.56059900  1
  C  738  1  0.25402900  0.89584300  0.61186400  1
  C  739  1  0.16910000  0.87616500  0.69030300  1
  C  740  1  0.28829600  0.87597700  0.51738900  1
  C  741  1  0.21917500  0.99024400  0.63153800  1
  C  742  1  0.33982700  0.81782500  0.63123300  1
  C  747  1  0.26180400  0.61661100  0.08285800  1
  C  748  1  0.29764000  0.62777800  0.08034500  1
  C  749  1  0.31347000  0.63065400  0.10569100  1
  C  750  1  0.28814500  0.62060000  0.12452400  1
  C  751  1  0.29780800  0.62041400  0.15199900  1
  C  752  1  0.33235100  0.63147600  0.16085100  1
  C  753  1  0.35513000  0.64464900  0.14163100  1
  C  754  1  0.34666600  0.64343500  0.11404400  1
  C  755  1  0.31151300  0.63552200  0.05520000  1
  C  756  1  0.28772700  0.63399800  0.03273300  1
  C  757  1  0.24998200  0.62518900  0.03478500  1
  C  758  1  0.23804100  0.61537300  0.06027700  1
  C  759  1  0.24302100  0.58381200  0.11972100  1
  C  760  1  0.21275700  0.58420100  0.13761400  1
  C  761  1  0.19797900  0.61005900  0.13840800  1
  C  762  1  0.21981600  0.62648100  0.12190700  1
  C  763  1  0.16781100  0.62079400  0.15308200  1
  C  764  1  0.15884500  0.64816000  0.15014100  1
  C  765  1  0.17838300  0.66462500  0.13164500  1
  C  766  1  0.21018700  0.65370500  0.11843700  1
  C  767  1  0.26457800  0.56028600  0.11658000  1
  C  768  1  0.25736000  0.53733900  0.13269300  1
  C  769  1  0.22940900  0.53961500  0.15279800  1
  C  770  1  0.20566500  0.56213300  0.15436200  1
  C  783  1  0.25277500  0.61153900  0.11147600  1
  C  784  1  0.16942500  0.69159700  0.12824400  1
  C  785  1  0.28520600  0.51784400  0.13426700  1
  C  786  1  0.22236600  0.63060800  0.01535000  1
  C  787  1  0.34090100  0.63167000  0.18814700  1
  C  792  1  0.26205400  0.39065400  0.92498600  1
  C  793  1  0.29769100  0.37905900  0.92707200  1
  C  794  1  0.31313600  0.37642100  0.90158200  1
  C  795  1  0.28780900  0.38706200  0.88308500  1
  C  796  1  0.29722800  0.38771100  0.85557200  1
  C  797  1  0.33157100  0.37665100  0.84634700  1
  C  798  1  0.35439800  0.36298900  0.86519600  1
  C  799  1  0.34619000  0.36370800  0.89283800  1
  C  800  1  0.31159100  0.37046100  0.95192600  1
  C  801  1  0.28800800  0.37160700  0.97451800  1
  C  802  1  0.25056700  0.38112300  0.97290000  1
  C  803  1  0.23857200  0.39170400  0.94773700  1
  C  804  1  0.24290600  0.42393800  0.88854700  1
  C  805  1  0.21282700  0.42360300  0.87047800  1
  C  806  1  0.19778600  0.39782200  0.86968700  1
  C  807  1  0.21956400  0.38130100  0.88612300  1
  C  808  1  0.16766000  0.38718200  0.85489700  1
  C  809  1  0.15862800  0.35981000  0.85769500  1
  C  810  1  0.17812400  0.34323100  0.87610700  1
  C  811  1  0.20992600  0.35405300  0.88939700  1
  C  812  1  0.26468700  0.44738000  0.89151200  1
  C  813  1  0.25761400  0.47032500  0.87537600  1
  C  814  1  0.22961800  0.46811700  0.85529200  1
  C  815  1  0.20565200  0.44571700  0.85381300  1
  C  828  1  0.25268100  0.39611900  0.89648800  1
  C  829  1  0.16914800  0.31624200  0.87931600  1
  C  830  1  0.28539100  0.48986400  0.87371100  1
  C  831  1  0.22305500  0.37542700  0.99230700  1
  C  832  1  0.33995000  0.37714600  0.81902700  1
  C  837  1  0.74697200  0.92466800  0.39186800  1
  C  838  1  0.71122100  0.92762100  0.38068000  1
  C  839  1  0.69498700  0.90242800  0.37749900  1
  C  840  1  0.71983000  0.88329500  0.38759100  1
  C  841  1  0.70959700  0.85592900  0.38771100  1
  C  842  1  0.67494500  0.84745900  0.37652100  1
  C  843  1  0.65272800  0.86694600  0.36325200  1
  C  844  1  0.66166700  0.89445500  0.36464000  1
  C  845  1  0.69771000  0.95303600  0.37352400  1
  C  846  1  0.72177000  0.97532200  0.37563000  1
  C  847  1  0.75965800  0.97276800  0.38401900  1
  C  848  1  0.77117800  0.94698800  0.39331400  1
  C  849  1  0.76521100  0.88763000  0.42437400  1
  C  850  1  0.79527700  0.86957900  0.42384600  1
  C  851  1  0.81013700  0.86891000  0.39799000  1
  C  852  1  0.78820500  0.88540200  0.38162500  1
  C  853  1  0.84038100  0.85436400  0.38717800  1
  C  854  1  0.84917500  0.85730500  0.35977200  1
  C  855  1  0.82916600  0.87553000  0.34328900  1
  C  856  1  0.79747000  0.88874400  0.35432700  1
  C  857  1  0.74350600  0.89056900  0.44784800  1
  C  858  1  0.75068200  0.87442000  0.47076200  1
  C  859  1  0.77876300  0.85439200  0.46845400  1
  C  860  1  0.80251800  0.85288000  0.44592700  1
  C  873  1  0.75544300  0.89594300  0.39668000  1
  C  874  1  0.83766000  0.87879400  0.31623000  1
  C  875  1  0.72280500  0.87263600  0.49021300  1
  C  876  1  0.78761900  0.99221300  0.37935000  1
  C  877  1  0.66591900  0.82023500  0.37622700  1
  C  882  1  0.74296500  0.08250600  0.61801600  1
  C  883  1  0.70815000  0.08148800  0.63089100  1
  C  884  1  0.69369400  0.10735600  0.63285200  1
  C  885  1  0.71905000  0.12504400  0.62087000  1
  C  886  1  0.71048300  0.15263600  0.61931800  1
  C  887  1  0.67684700  0.16277200  0.63073400  1
  C  888  1  0.65412100  0.14486200  0.64569200  1
  C  889  1  0.66158600  0.11711500  0.64603100  1
  C  890  1  0.69444600  0.05725600  0.64127500  1
  C  891  1  0.71747400  0.03434000  0.64041200  1
  C  892  1  0.75392100  0.03485400  0.62897700  1
  C  893  1  0.76567600  0.05935000  0.61687800  1
  C  894  1  0.76259400  0.11641000  0.58310700  1
  C  895  1  0.79774200  0.12872200  0.58131200  1
  C  896  1  0.81281200  0.13125100  0.60694600  1
  C  897  1  0.78777600  0.11983100  0.62522300  1
  C  898  1  0.84534400  0.14441000  0.61598200  1
  C  899  1  0.85352400  0.14460100  0.64362700  1
  C  900  1  0.83129500  0.12998200  0.66211900  1
  C  901  1  0.79718700  0.11865600  0.65269600  1
  C  902  1  0.73925500  0.11513900  0.56028200  1
  C  903  1  0.75082500  0.12625700  0.53526600  1
  C  904  1  0.78788300  0.13657600  0.53391400  1
  C  905  1  0.81134000  0.13792600  0.55658400  1
  C  918  1  0.75309100  0.11062100  0.61148500  1
  C  919  1  0.84017000  0.12866000  0.68932700  1
  C  920  1  0.72290600  0.13170700  0.51604300  1
  C  921  1  0.78155400  0.01567000  0.63492900  1
  C  922  1  0.66875900  0.19008000  0.62896500  1
  C  927  1  0.74309400  0.38820800  0.08377300  1
  C  928  1  0.71293700  0.37021900  0.08405300  1
  C  929  1  0.69800700  0.36934300  0.10986400  1
  C  930  1  0.71970900  0.38584000  0.12638300  1
  C  931  1  0.70996700  0.38919400  0.15360000  1
  C  932  1  0.67818400  0.37587400  0.16440900  1
  C  933  1  0.65874000  0.35742400  0.14783900  1
  C  934  1  0.66782800  0.35459600  0.12047900  1
  C  935  1  0.70608400  0.35347000  0.06194400  1
  C  936  1  0.72993300  0.35514000  0.03949200  1
  C  937  1  0.75779300  0.37532300  0.03737000  1
  C  938  1  0.76480700  0.39144300  0.06033600  1
  C  939  1  0.76186200  0.42489700  0.11676500  1
  C  940  1  0.79757400  0.42725900  0.12818400  1
  C  941  1  0.81325000  0.40186600  0.13103900  1
  C  942  1  0.78801400  0.38314600  0.12067400  1
  C  943  1  0.84642900  0.39339600  0.14377200  1
  C  944  1  0.85483300  0.36579400  0.14480500  1
  C  945  1  0.83206600  0.34669500  0.13144900  1
  C  946  1  0.79762500  0.35566100  0.12032600  1
  C  947  1  0.73817200  0.44752800  0.11560300  1
  C  948  1  0.75009300  0.47287900  0.12577100  1
  C  949  1  0.78773100  0.47481000  0.13482800  1
  C  950  1  0.81146100  0.45230800  0.13621400  1
  C  963  1  0.75274900  0.39631100  0.11156400  1
  C  964  1  0.84059600  0.31939900  0.13142000  1
  C  965  1  0.72253300  0.49234400  0.13121600  1
  C  966  1  0.78561700  0.37394700  0.01784000  1
  C  967  1  0.66915500  0.37914500  0.19138100  1
  C  972  1  0.74273500  0.61959200  0.92397300  1
  C  973  1  0.71239300  0.63741900  0.92349200  1
  C  974  1  0.69766800  0.63812600  0.89761400  1
  C  975  1  0.71963400  0.62165800  0.88125200  1
  C  976  1  0.71016400  0.61820000  0.85399500  1
  C  977  1  0.67837500  0.63136300  0.84300000  1
  C  978  1  0.65872900  0.64985100  0.85940600  1
  C  979  1  0.66756500  0.65280800  0.88679300  1
  C  980  1  0.70512200  0.65426400  0.94544700  1
  C  981  1  0.72893200  0.65295800  0.96793800  1
  C  982  1  0.75701100  0.63295800  0.97039000  1
  C  983  1  0.76432400  0.61673600  0.94752500  1
  C  984  1  0.76187900  0.58278300  0.89115800  1
  C  985  1  0.79761300  0.58046100  0.87976300  1
  C  986  1  0.81323300  0.60587400  0.87691900  1
  C  987  1  0.78790000  0.62457000  0.88720500  1
  C  988  1  0.84641000  0.61438400  0.86421200  1
  C  989  1  0.85476900  0.64199500  0.86320800  1
  C  990  1  0.83193400  0.66106700  0.87654800  1
  C  991  1  0.79744800  0.65206300  0.88757000  1
  C  992  1  0.73818600  0.56014800  0.89217100  1
  C  993  1  0.75016900  0.53481300  0.88200900  1
  C  994  1  0.78783800  0.53290600  0.87301200  1
  C  995  1  0.81151700  0.55543800  0.87165400  1
  C  1008  1  0.75263100  0.61136700  0.89625800  1
  C  1009  1  0.84040000  0.68837600  0.87667600  1
  C  1010  1  0.72264000  0.51536400  0.87645200  1
  C  1011  1  0.78484000  0.63487500  0.98986100  1
  C  1012  1  0.66943800  0.62786200  0.81603400  1
  C  1017  1  0.74149000  0.92261200  0.62139300  1
  C  1018  1  0.71079200  0.92161300  0.63887500  1
  C  1019  1  0.69675900  0.89552500  0.63940200  1
  C  1020  1  0.71956100  0.87951300  0.62318000  1
  C  1021  1  0.71087900  0.85214200  0.61947800  1
  C  1022  1  0.67916300  0.84062400  0.63227700  1
  C  1023  1  0.65880200  0.85667000  0.65070100  1
  C  1024  1  0.66675200  0.88418800  0.65379400  1
  C  1025  1  0.70218000  0.94357000  0.65538200  1
  C  1026  1  0.72537700  0.96640500  0.65439900  1
  C  1027  1  0.75423500  0.96917600  0.63501100  1
  C  1028  1  0.76257500  0.94643700  0.61885700  1
  C  1029  1  0.76180900  0.89017000  0.58464000  1
  C  1030  1  0.79754000  0.87875800  0.58244200  1
  C  1031  1  0.81294700  0.87588700  0.60794900  1
  C  1032  1  0.78755200  0.88631200  0.62652900  1
  C  1033  1  0.84598300  0.86313400  0.61666800  1
  C  1034  1  0.85413800  0.86225500  0.64432400  1
  C  1035  1  0.83139600  0.87590500  0.66324700  1
  C  1036  1  0.79696800  0.88688300  0.65405200  1
  C  1037  1  0.73828400  0.89140200  0.56192900  1
  C  1038  1  0.75032300  0.88125600  0.53660800  1
  C  1039  1  0.78788800  0.87198300  0.53486100  1
  C  1040  1  0.81149100  0.87059400  0.55744800  1
  C  1053  1  0.75225500  0.89506000  0.61318600  1
  C  1054  1  0.83994000  0.87645600  0.69059100  1
  C  1055  1  0.72280500  0.87586500  0.51710800  1
  C  1056  1  0.78181700  0.98873900  0.63776000  1
  C  1057  1  0.67071900  0.81360400  0.62831600  1
  C  1062  1  0.74528400  0.08546700  0.38781900  1
  C  1063  1  0.71463100  0.08481300  0.37020700  1
  C  1064  1  0.69872200  0.11033100  0.36885500  1
  C  1065  1  0.72044100  0.12758300  0.38451800  1
  C  1066  1  0.71031500  0.15485500  0.38702200  1
  C  1067  1  0.67810000  0.16502100  0.37377700  1
  C  1068  1  0.65821800  0.14756500  0.35640700  1
  C  1069  1  0.66776900  0.12018400  0.35436100  1
  C  1070  1  0.70807700  0.06220300  0.35407700  1
  C  1071  1  0.73265900  0.04017800  0.35603000  1
  C  1072  1  0.76073800  0.03884000  0.37613200  1
  C  1073  1  0.76772600  0.06244700  0.39130900  1
  C  1074  1  0.76403000  0.12111300  0.42273400  1
  C  1075  1  0.79481500  0.13859900  0.42280400  1
  C  1076  1  0.81026300  0.13959100  0.39714800  1
  C  1077  1  0.78816900  0.12375600  0.38031100  1
  C  1078  1  0.84099200  0.15400400  0.38682800  1
  C  1079  1  0.84993700  0.15171900  0.35936900  1
  C  1080  1  0.82969100  0.13417800  0.34230400  1
  C  1081  1  0.79770900  0.12102200  0.35294900  1
  C  1082  1  0.74202800  0.11808000  0.44605200  1
  C  1083  1  0.74969200  0.13354400  0.46938500  1
  C  1084  1  0.77815800  0.15332400  0.46748200  1
  C  1085  1  0.80221500  0.15487100  0.44515400  1
  C  1098  1  0.75445600  0.11364300  0.39474500  1
  C  1099  1  0.83796900  0.13180300  0.31507800  1
  C  1100  1  0.72222200  0.13504800  0.48915700  1
  C  1101  1  0.78829500  0.01906200  0.37565600  1
  C  1102  1  0.66943200  0.19221900  0.37578000  1
  C  1107  1  0.74581700  0.38976900  0.92323700  1
  C  1108  1  0.70998400  0.37860400  0.92574000  1
  C  1109  1  0.69423300  0.37568800  0.90032800  1
  C  1110  1  0.71963100  0.38574200  0.88154200  1
  C  1111  1  0.71017800  0.38597400  0.85402800  1
  C  1112  1  0.67567700  0.37498700  0.84502100  1
  C  1113  1  0.65268800  0.36189700  0.86418600  1
  C  1114  1  0.66099200  0.36304900  0.89182300  1
  C  1115  1  0.69620700  0.37096600  0.95095000  1
  C  1116  1  0.71995300  0.37279100  0.97344500  1
  C  1117  1  0.75761100  0.38182600  0.97139300  1
  C  1118  1  0.76951200  0.39138500  0.94581400  1
  C  1119  1  0.76479800  0.42245900  0.88658400  1
  C  1120  1  0.79517600  0.42212100  0.86879700  1
  C  1121  1  0.80988200  0.39619300  0.86794400  1
  C  1122  1  0.78787700  0.37976000  0.88432500  1
  C  1123  1  0.84005500  0.38534500  0.85334800  1
  C  1124  1  0.84876200  0.35790500  0.85621300  1
  C  1125  1  0.82896500  0.34142400  0.87457100  1
  C  1126  1  0.79722100  0.35247400  0.88773200  1
  C  1127  1  0.74327600  0.44596500  0.88992200  1
  C  1128  1  0.75060600  0.46905100  0.87406200  1
  C  1129  1  0.77870700  0.46692900  0.85403400  1
  C  1130  1  0.80240300  0.44436900  0.85230500  1
  C  1143  1  0.75493900  0.39474500  0.89466500  1
  C  1144  1  0.83761600  0.31435300  0.87789800  1
  C  1145  1  0.72269600  0.48853600  0.87266800  1
  C  1146  1  0.78533600  0.37701400  0.99092500  1
  C  1147  1  0.66738500  0.37481000  0.81764700  1
  C  1152  1  0.74560100  0.61835600  0.08439400  1
  C  1153  1  0.70995900  0.62991700  0.08226000  1
  C  1154  1  0.69453000  0.63262500  0.10779500  1
  C  1155  1  0.71993600  0.62207200  0.12629700  1
  C  1156  1  0.71071000  0.62146900  0.15384500  1
  C  1157  1  0.67639500  0.63247500  0.16317500  1
  C  1158  1  0.65335600  0.64596900  0.14432000  1
  C  1159  1  0.66142100  0.64520800  0.11663500  1
  C  1160  1  0.69609500  0.63818400  0.05727200  1
  C  1161  1  0.71964500  0.63664200  0.03465300  1
  C  1162  1  0.75705300  0.62703800  0.03634300  1
  C  1163  1  0.76902700  0.61685400  0.06165700  1
  C  1164  1  0.76488000  0.58525700  0.12068000  1
  C  1165  1  0.79506700  0.58554300  0.13864600  1
  C  1166  1  0.81004400  0.61139100  0.13948000  1
  C  1167  1  0.78812100  0.62791600  0.12314100  1
  C  1168  1  0.84017300  0.62215000  0.15419000  1
  C  1169  1  0.84896100  0.64959100  0.15144900  1
  C  1170  1  0.82922300  0.66617800  0.13315800  1
  C  1171  1  0.79748400  0.65522200  0.11991000  1
  C  1172  1  0.74315000  0.56183100  0.11749600  1
  C  1173  1  0.75033700  0.53873900  0.13336800  1
  C  1174  1  0.77848600  0.54078500  0.15337800  1
  C  1175  1  0.80238300  0.56323900  0.15504000  1
  C  1188  1  0.75502600  0.61305600  0.11286600  1
  C  1189  1  0.83789900  0.69326500  0.13000100  1
  C  1190  1  0.72250800  0.51919800  0.13482100  1
  C  1191  1  0.78466900  0.63206200  0.01680300  1
  C  1192  1  0.66829100  0.63209200  0.19058000  1
  C  1197  1  0.26027500  0.08495200  0.61695000  1
  C  1198  1  0.29618500  0.08202800  0.62787200  1
  C  1199  1  0.31229500  0.10730600  0.63106300  1
  C  1200  1  0.28714400  0.12639100  0.62125300  1
  C  1201  1  0.29699800  0.15383000  0.62124100  1
  C  1202  1  0.33169500  0.16248000  0.63220900  1
  C  1203  1  0.35446500  0.14300500  0.64504300  1
  C  1204  1  0.34580000  0.11543500  0.64358900  1
  C  1205  1  0.30978800  0.05654400  0.63473700  1
  C  1206  1  0.28579500  0.03420800  0.63246500  1
  C  1207  1  0.24783900  0.03674500  0.62418600  1
  C  1208  1  0.23617000  0.06261000  0.61527500  1
  C  1209  1  0.24121000  0.12188700  0.58479400  1
  C  1210  1  0.21080500  0.13963600  0.58558100  1
  C  1211  1  0.19646400  0.14025700  0.61161300  1
  C  1212  1  0.21892400  0.12392800  0.62777200  1
  C  1213  1  0.16630400  0.15463000  0.62277900  1
  C  1214  1  0.15814000  0.15164900  0.65029200  1
  C  1215  1  0.17863300  0.13349300  0.66656000  1
  C  1216  1  0.21025300  0.12049100  0.65516600  1
  C  1217  1  0.26255200  0.11904200  0.56113400  1
  C  1218  1  0.25466400  0.13507700  0.53827300  1
  C  1219  1  0.22608000  0.15472400  0.54068900  1
  C  1220  1  0.20276500  0.15610400  0.56346700  1
  C  1233  1  0.25152500  0.11363400  0.61238700  1
  C  1234  1  0.17051400  0.12998200  0.69368200  1
  C  1235  1  0.28239100  0.13728000  0.51872500  1
  C  1236  1  0.21989400  0.01715200  0.62834200  1
  C  1237  1  0.34033700  0.18981000  0.63266100  1
  C  1242  1  0.26699500  0.92307900  0.38569200  1
  C  1243  1  0.29775200  0.92203600  0.36827800  1
  C  1244  1  0.31170300  0.89590100  0.36778500  1
  C  1245  1  0.28870300  0.87991500  0.38389300  1
  C  1246  1  0.29697300  0.85246500  0.38743500  1
  C  1247  1  0.32856800  0.84081400  0.37462600  1
  C  1248  1  0.34948200  0.85690600  0.35655700  1
  C  1249  1  0.34179000  0.88448100  0.35353800  1
  C  1250  1  0.30642000  0.94401500  0.35180900  1
  C  1251  1  0.28320400  0.96686000  0.35274700  1
  C  1252  1  0.25420800  0.96961400  0.37204200  1
  C  1253  1  0.24589900  0.94689600  0.38821800  1
  C  1254  1  0.24739700  0.89104900  0.42273800  1
  C  1255  1  0.21151700  0.88005200  0.42557000  1
  C  1256  1  0.19550000  0.87689700  0.40026700  1
  C  1257  1  0.22062700  0.88686100  0.38124900  1
  C  1258  1  0.16213100  0.86424600  0.39205400  1
  C  1259  1  0.15344500  0.86300400  0.36448400  1
  C  1260  1  0.17597100  0.87622900  0.34512800  1
  C  1261  1  0.21068800  0.88713500  0.35382600  1
  C  1262  1  0.27139200  0.89272200  0.44514600  1
  C  1263  1  0.25965900  0.88366500  0.47095400  1
  C  1264  1  0.22177900  0.87519000  0.47336200  1
  C  1265  1  0.19784200  0.87303400  0.45099000  1
  C  1278  1  0.25627300  0.89558700  0.39406100  1
  C  1279  1  0.16712000  0.87624500  0.31782800  1
  C  1280  1  0.28759800  0.87925000  0.49048700  1
  C  1281  1  0.22644900  0.98905000  0.36917900  1
  C  1282  1  0.33642500  0.81367000  0.37837000  1
  C  1287  1  0.26473000  0.62096000  0.92246000  1
  C  1288  1  0.29501800  0.63883100  0.92224800  1
  C  1289  1  0.30987800  0.63977900  0.89636800  1
  C  1290  1  0.28800500  0.62341800  0.87982700  1
  C  1291  1  0.29745200  0.62013100  0.85254500  1
  C  1292  1  0.32918500  0.63339700  0.84161300  1
  C  1293  1  0.34889600  0.65170000  0.85820400  1
  C  1294  1  0.34007400  0.65444300  0.88564100  1
  C  1295  1  0.30204000  0.65527600  0.94456800  1
  C  1296  1  0.27825400  0.65341500  0.96707200  1
  C  1297  1  0.25021500  0.63332200  0.96900800  1
  C  1298  1  0.24306500  0.61750100  0.94587600  1
  C  1299  1  0.24578400  0.58449800  0.88956900  1
  C  1300  1  0.21008900  0.58213800  0.87813700  1
  C  1301  1  0.19446100  0.60759300  0.87526600  1
  C  1302  1  0.21976900  0.62627100  0.88562500  1
  C  1303  1  0.16125600  0.61621100  0.86265700  1
  C  1304  1  0.15301600  0.64386200  0.86165800  1
  C  1305  1  0.17600000  0.66291400  0.87491700  1
  C  1306  1  0.21038400  0.65379600  0.88599100  1
  C  1307  1  0.26936900  0.56185500  0.89116400  1
  C  1308  1  0.25747100  0.53639600  0.88130200  1
  C  1309  1  0.21990500  0.53445900  0.87205900  1
  C  1310  1  0.19623900  0.55700100  0.87031800  1
  C  1323  1  0.25497500  0.61303800  0.89467900  1
  C  1324  1  0.16775200  0.69029700  0.87491500  1
  C  1325  1  0.28512800  0.51681000  0.87651400  1
  C  1326  1  0.22233800  0.63448800  0.98853700  1
  C  1327  1  0.33786700  0.63021500  0.81453200  1
  C  1332  1  0.26511300  0.38666700  0.08515300  1
  C  1333  1  0.29557900  0.36895700  0.08561500  1
  C  1334  1  0.31021400  0.36822200  0.11156400  1
  C  1335  1  0.28806100  0.38458200  0.12791100  1
  C  1336  1  0.29722200  0.38800600  0.15523000  1
  C  1337  1  0.32894600  0.37490000  0.16637700  1
  C  1338  1  0.34885600  0.35652900  0.14998600  1
  C  1339  1  0.34031200  0.35363000  0.12252600  1
  C  1340  1  0.30301000  0.35234200  0.06350400  1
  C  1341  1  0.27926200  0.35377200  0.04096000  1
  C  1342  1  0.25101800  0.37368000  0.03862800  1
  C  1343  1  0.24356900  0.38968200  0.06160700  1
  C  1344  1  0.24573400  0.42329900  0.11782500  1
  C  1345  1  0.21002100  0.42561000  0.12923800  1
  C  1346  1  0.19446700  0.40013300  0.13211300  1
  C  1347  1  0.21988700  0.38148100  0.12184400  1
  C  1348  1  0.16127400  0.39147100  0.14470600  1
  C  1349  1  0.15309600  0.36381100  0.14568600  1
  C  1350  1  0.17614700  0.34478600  0.13244300  1
  C  1351  1  0.21057300  0.35394500  0.12146900  1
  C  1352  1  0.26934300  0.44593700  0.11639800  1
  C  1353  1  0.25738700  0.47137100  0.12628300  1
  C  1354  1  0.21978700  0.47328600  0.13545700  1
  C  1355  1  0.19616000  0.45071700  0.13714500  1
  C  1368  1  0.25508800  0.39475900  0.11284300  1
  C  1369  1  0.16795900  0.31739300  0.13232000  1
  C  1370  1  0.28501800  0.49092800  0.13123200  1
  C  1371  1  0.22312900  0.37189000  0.01916600  1
  C  1372  1  0.33756900  0.37837000  0.19343500  1
  N  38  1  0.00397900  0.01658400  0.27526900  1
  N  39  1  0.86988400  0.12587800  0.30374300  1
  N  40  1  0.13603100  0.12272400  0.30662400  1
  N  41  1  0.00612500  0.19857900  0.21540400  1
  N  79  1  0.00616400  0.99112500  0.73226900  1
  N  80  1  0.87114300  0.88355900  0.70234400  1
  N  81  1  0.13699100  0.88168800  0.70144500  1
  N  82  1  0.00592800  0.80906700  0.79208900  1
  N  120  1  0.00471700  0.73209400  0.01656300  1
  N  121  1  0.87017300  0.70421900  0.12431900  1
  N  122  1  0.13680500  0.70232200  0.12339000  1
  N  123  1  0.00617100  0.79257200  0.19828300  1
  N  161  1  0.00474900  0.27581800  0.99110700  1
  N  162  1  0.86990300  0.30340700  0.88355300  1
  N  163  1  0.13654500  0.30553600  0.88427200  1
  N  164  1  0.00578700  0.21510800  0.80952400  1
  N  202  1  0.00165700  0.99197500  0.27551200  1
  N  203  1  0.13605000  0.88368500  0.30610700  1
  N  204  1  0.87007200  0.88359700  0.30517600  1
  N  205  1  0.00206600  0.81000600  0.21575100  1
  N  243  1  0.00378300  0.01573100  0.73236700  1
  N  244  1  0.13837600  0.12443000  0.70490000  1
  N  245  1  0.87221400  0.12280500  0.70051700  1
  N  246  1  0.00170500  0.19763400  0.79210100  1
  N  284  1  0.00242000  0.27504300  0.01570000  1
  N  285  1  0.13705600  0.30534200  0.12508200  1
  N  286  1  0.87186100  0.30764600  0.12465900  1
  N  287  1  0.00205200  0.21606200  0.19796200  1
  N  325  1  0.00240800  0.73286800  0.99196700  1
  N  326  1  0.13700200  0.70237000  0.88243900  1
  N  327  1  0.87179300  0.70011900  0.88315900  1
  N  328  1  0.00183600  0.79161700  0.80957000  1
  N  366  1  0.50468100  0.51648700  0.77571700  1
  N  367  1  0.37018500  0.62463000  0.80359200  1
  N  368  1  0.63680500  0.62306200  0.80529900  1
  N  369  1  0.50608100  0.69813300  0.71511300  1
  N  407  1  0.50496200  0.49118300  0.23201500  1
  N  408  1  0.36988300  0.38396700  0.20437300  1
  N  409  1  0.63650200  0.38393100  0.20207500  1
  N  410  1  0.50590700  0.30944300  0.29230500  1
  N  448  1  0.50561200  0.23304300  0.51628700  1
  N  449  1  0.37119500  0.20187700  0.62535400  1
  N  450  1  0.63688400  0.20170800  0.62353700  1
  N  451  1  0.50572500  0.29209900  0.69855600  1
  N  489  1  0.50459500  0.77557500  0.49133500  1
  N  490  1  0.36853400  0.80227800  0.38370100  1
  N  491  1  0.63445800  0.80869000  0.38291300  1
  N  492  1  0.50591000  0.71545500  0.30936600  1
  N  530  1  0.50235100  0.49189200  0.77498000  1
  N  531  1  0.63671800  0.38247300  0.80554700  1
  N  532  1  0.37141600  0.38347400  0.80731000  1
  N  533  1  0.50160500  0.30956300  0.71601800  1
  N  571  1  0.50264300  0.51578000  0.23269000  1
  N  572  1  0.63732100  0.62498300  0.20262200  1
  N  573  1  0.37208700  0.62480900  0.19995400  1
  N  574  1  0.50191100  0.69801700  0.29187000  1
  N  612  1  0.50223100  0.77607300  0.51594300  1
  N  613  1  0.63839800  0.80268800  0.62265500  1
  N  614  1  0.37207800  0.80703700  0.62543400  1
  N  615  1  0.50203700  0.71557000  0.69764900  1
  N  653  1  0.50348700  0.23251400  0.49168300  1
  N  654  1  0.63745000  0.20342500  0.38175400  1
  N  655  1  0.37129600  0.20154000  0.38581200  1
  N  656  1  0.50181800  0.29195600  0.30971500  1
