# generated using pymatgen
data_SiH24C42(N2O3)2
_symmetry_space_group_name_H-M   'P 1'
_cell_length_a   43.16670000
_cell_length_b   46.64660000
_cell_length_c   46.64660000
_cell_angle_alpha   90.00000000
_cell_angle_beta   90.00000000
_cell_angle_gamma   90.02010000
_symmetry_Int_Tables_number   1
_chemical_formula_structural   SiH24C42(N2O3)2
_chemical_formula_sum   'Si16 H384 C672 N64 O96'
_cell_volume   93926.64516948
_cell_formula_units_Z   16
loop_
 _symmetry_equiv_pos_site_id
 _symmetry_equiv_pos_as_xyz
  1  'x, y, z'
loop_
 _atom_site_type_symbol
 _atom_site_label
 _atom_site_symmetry_multiplicity
 _atom_site_fract_x
 _atom_site_fract_y
 _atom_site_fract_z
 _atom_site_occupancy
  Si  7  1  0.16282000  0.15345900  0.15304900  1
  Si  48  1  0.16243600  0.84314500  0.84347600  1
  Si  89  1  0.83393700  0.84318700  0.15291500  1
  Si  130  1  0.83360800  0.15351300  0.84336500  1
  Si  171  1  0.83641500  0.15199600  0.15262400  1
  Si  212  1  0.83605900  0.84469500  0.84359200  1
  Si  253  1  0.16005400  0.15193700  0.84380800  1
  Si  294  1  0.16038200  0.84466400  0.15278700  1
  Si  335  1  0.66333100  0.65136900  0.65403900  1
  Si  376  1  0.66364100  0.34517500  0.34222400  1
  Si  417  1  0.33274300  0.34524400  0.65416300  1
  Si  458  1  0.33308800  0.65142900  0.34236100  1
  Si  499  1  0.33523500  0.65323500  0.65134000  1
  Si  540  1  0.33552000  0.34348400  0.34522100  1
  Si  581  1  0.66124600  0.65316000  0.34509900  1
  Si  622  1  0.66093500  0.34342500  0.65116900  1
  H  26  1  0.13908700  0.05541600  0.13440500  1
  H  27  1  0.12902600  0.10547200  0.13271700  1
  H  28  1  0.22695700  0.07129200  0.17093200  1
  H  29  1  0.21769500  0.12142100  0.16827900  1
  H  30  1  0.21797100  0.16249900  0.12113600  1
  H  31  1  0.22671500  0.17014700  0.07119400  1
  H  32  1  0.13024900  0.16860700  0.05638500  1
  H  33  1  0.12118800  0.16054200  0.10578600  1
  H  34  1  0.12758900  0.20436600  0.14819100  1
  H  35  1  0.07573500  0.21574000  0.16057700  1
  H  36  1  0.06442400  0.13342600  0.19671200  1
  H  37  1  0.11669700  0.12218300  0.18559600  1
  H  38  1  0.18328700  0.14090900  0.20948700  1
  H  39  1  0.18813100  0.21009600  0.15068300  1
  H  40  1  0.21513900  0.23759800  0.18540300  1
  H  41  1  0.21361600  0.16734500  0.24260700  1
  H  67  1  0.13874000  0.94117000  0.86215100  1
  H  68  1  0.12867600  0.89111400  0.86384000  1
  H  69  1  0.22658500  0.92534800  0.82557100  1
  H  70  1  0.21732100  0.87521200  0.82823000  1
  H  71  1  0.21760100  0.83412500  0.87536300  1
  H  72  1  0.22638200  0.82645100  0.92528700  1
  H  73  1  0.12992600  0.82789700  0.94015400  1
  H  74  1  0.12083400  0.83598400  0.89076800  1
  H  75  1  0.12711200  0.79226600  0.84834900  1
  H  76  1  0.07525300  0.78092200  0.83591300  1
  H  77  1  0.06412000  0.86322000  0.79971300  1
  H  78  1  0.11639300  0.87443600  0.81088900  1
  H  79  1  0.18292400  0.85570600  0.78703700  1
  H  80  1  0.18769200  0.78650200  0.84581500  1
  H  81  1  0.21469800  0.75901500  0.81109900  1
  H  82  1  0.21325300  0.82928900  0.75392000  1
  H  108  1  0.85766800  0.94120900  0.13419000  1
  H  109  1  0.86771000  0.89115700  0.13252400  1
  H  110  1  0.76981800  0.92538000  0.17077800  1
  H  111  1  0.77905900  0.87524700  0.16814200  1
  H  112  1  0.77879200  0.83413300  0.12099900  1
  H  113  1  0.77004300  0.82645600  0.07106700  1
  H  114  1  0.86651500  0.82792600  0.05626100  1
  H  115  1  0.87557300  0.83601700  0.10565100  1
  H  116  1  0.86924600  0.79231800  0.14810200  1
  H  117  1  0.92111500  0.78102000  0.16052300  1
  H  118  1  0.93226000  0.86336000  0.19665100  1
  H  119  1  0.87997900  0.87452700  0.18548900  1
  H  120  1  0.81344900  0.85575400  0.20934600  1
  H  121  1  0.80864900  0.78654100  0.15057900  1
  H  122  1  0.78162300  0.75905500  0.18530000  1
  H  123  1  0.78310100  0.82933700  0.24246800  1
  H  149  1  0.85738300  0.05550500  0.86205200  1
  H  150  1  0.86742100  0.10556500  0.86371600  1
  H  151  1  0.76949600  0.07127100  0.82554600  1
  H  152  1  0.77873000  0.12141000  0.82817600  1
  H  153  1  0.77846800  0.16258200  0.87530500  1
  H  154  1  0.76976200  0.17027000  0.92524600  1
  H  155  1  0.86623900  0.16873400  0.93999800  1
  H  156  1  0.87525600  0.16062400  0.89060700  1
  H  157  1  0.86891500  0.20440600  0.84821800  1
  H  158  1  0.92080200  0.21572700  0.83585300  1
  H  159  1  0.93195200  0.13342300  0.79967900  1
  H  160  1  0.87965900  0.12222800  0.81078100  1
  H  161  1  0.81306000  0.14091200  0.78694500  1
  H  162  1  0.80836100  0.21014600  0.84569500  1
  H  163  1  0.78131700  0.23761700  0.81098900  1
  H  164  1  0.78270500  0.16732500  0.75383400  1
  H  190  1  0.86894800  0.17089500  0.05602900  1
  H  191  1  0.87819800  0.16415500  0.10546900  1
  H  192  1  0.77402700  0.15269600  0.06816000  1
  H  193  1  0.78301800  0.14561000  0.11797300  1
  H  194  1  0.78716700  0.12182000  0.18281100  1
  H  195  1  0.77669600  0.07182200  0.18736400  1
  H  196  1  0.85487900  0.05306500  0.13626300  1
  H  197  1  0.86567000  0.10265700  0.13151800  1
  H  198  1  0.88346100  0.12141700  0.18488400  1
  H  199  1  0.93527900  0.13333000  0.19600900  1
  H  200  1  0.92303500  0.21525200  0.15925000  1
  H  201  1  0.87095400  0.20338600  0.14741900  1
  H  202  1  0.79425300  0.19814300  0.13749800  1
  H  203  1  0.82916700  0.15770100  0.21234100  1
  H  204  1  0.80095300  0.19074500  0.24095600  1
  H  205  1  0.76437800  0.22924700  0.16630200  1
  H  231  1  0.86887100  0.82588600  0.94011600  1
  H  232  1  0.87797300  0.83262200  0.89065400  1
  H  233  1  0.77390400  0.84397400  0.92821300  1
  H  234  1  0.78275400  0.85106600  0.87837300  1
  H  235  1  0.78675900  0.87485100  0.81349300  1
  H  236  1  0.77629000  0.92483800  0.80895500  1
  H  237  1  0.85459800  0.94364300  0.85988900  1
  H  238  1  0.86539400  0.89405400  0.86461600  1
  H  239  1  0.88313000  0.87524900  0.81129800  1
  H  240  1  0.93493800  0.86331600  0.80019800  1
  H  241  1  0.92257700  0.78139400  0.83694600  1
  H  242  1  0.87050700  0.79327900  0.84875000  1
  H  243  1  0.79388300  0.79855800  0.85879800  1
  H  244  1  0.82868700  0.83898000  0.78388800  1
  H  245  1  0.80039000  0.80592800  0.75532800  1
  H  246  1  0.76392700  0.76744900  0.83005200  1
  H  272  1  0.12758500  0.17078400  0.94042900  1
  H  273  1  0.11830300  0.16404600  0.89099300  1
  H  274  1  0.22249500  0.15262300  0.92824300  1
  H  275  1  0.21346800  0.14554300  0.87843000  1
  H  276  1  0.20927500  0.12179900  0.81357900  1
  H  277  1  0.21974000  0.07181000  0.80900400  1
  H  278  1  0.14158700  0.05298700  0.86013500  1
  H  279  1  0.13079900  0.10257300  0.86490100  1
  H  280  1  0.11296400  0.12135600  0.81157700  1
  H  281  1  0.06115600  0.13327500  0.80046100  1
  H  282  1  0.07348000  0.21520300  0.83721200  1
  H  283  1  0.12556400  0.20332500  0.84902600  1
  H  284  1  0.20221500  0.19811000  0.85892400  1
  H  285  1  0.16728400  0.15765200  0.78408700  1
  H  286  1  0.19549800  0.19071500  0.75546800  1
  H  287  1  0.23209100  0.22923000  0.83012000  1
  H  313  1  0.12759400  0.82582900  0.05625600  1
  H  314  1  0.11847800  0.83257300  0.10571100  1
  H  315  1  0.22257000  0.84391900  0.06818600  1
  H  316  1  0.21370900  0.85100800  0.11802400  1
  H  317  1  0.20966700  0.87481600  0.18294000  1
  H  318  1  0.22016000  0.92480800  0.18750700  1
  H  319  1  0.14196100  0.94361300  0.13644700  1
  H  320  1  0.13114100  0.89402400  0.13169400  1
  H  321  1  0.11334500  0.87528400  0.18502900  1
  H  322  1  0.06151100  0.86340800  0.19612100  1
  H  323  1  0.07374900  0.78142700  0.15947600  1
  H  324  1  0.12585900  0.79326500  0.14768100  1
  H  325  1  0.20251000  0.79850800  0.13761200  1
  H  326  1  0.16771800  0.83896000  0.21249800  1
  H  327  1  0.19597300  0.80591400  0.24107900  1
  H  328  1  0.23242500  0.76740500  0.16637500  1
  H  354  1  0.64973500  0.55250800  0.63235000  1
  H  355  1  0.63823500  0.60212000  0.62802200  1
  H  356  1  0.72211700  0.57133100  0.69026200  1
  H  357  1  0.71141600  0.62116400  0.68569000  1
  H  358  1  0.71897300  0.65191000  0.62159700  1
  H  359  1  0.72908000  0.66021400  0.57201400  1
  H  360  1  0.63334000  0.67079700  0.55705400  1
  H  361  1  0.62297100  0.66282100  0.60602900  1
  H  362  1  0.62851900  0.70240500  0.65059400  1
  H  363  1  0.57618000  0.71349100  0.66195600  1
  H  364  1  0.56236400  0.62883300  0.69136200  1
  H  365  1  0.61466400  0.61753700  0.68065200  1
  H  366  1  0.66597400  0.65162300  0.71431100  1
  H  367  1  0.70276400  0.70106800  0.64594400  1
  H  368  1  0.72865900  0.73062000  0.67944100  1
  H  369  1  0.69060400  0.68252500  0.74767700  1
  H  395  1  0.65002200  0.44401000  0.36395600  1
  H  396  1  0.63854100  0.39438800  0.36826700  1
  H  397  1  0.72240600  0.42528400  0.30603100  1
  H  398  1  0.71172700  0.37543700  0.31058900  1
  H  399  1  0.71921900  0.34471500  0.37476900  1
  H  400  1  0.72923300  0.33641600  0.42436700  1
  H  401  1  0.63347900  0.32564600  0.43914900  1
  H  402  1  0.62320500  0.33363100  0.39016800  1
  H  403  1  0.62880900  0.29411600  0.34559000  1
  H  404  1  0.57643700  0.28305700  0.33428800  1
  H  405  1  0.56268100  0.36773400  0.30494200  1
  H  406  1  0.61500400  0.37900700  0.31560100  1
  H  407  1  0.66634200  0.34489300  0.28195200  1
  H  408  1  0.70313700  0.29554700  0.35036800  1
  H  409  1  0.72912400  0.26604200  0.31690600  1
  H  410  1  0.69106000  0.31403500  0.24862000  1
  H  436  1  0.34638700  0.44407000  0.63237800  1
  H  437  1  0.35784800  0.39445400  0.62809100  1
  H  438  1  0.27400700  0.42534800  0.69032700  1
  H  439  1  0.28466800  0.37550200  0.68579100  1
  H  440  1  0.27717400  0.34473200  0.62160400  1
  H  441  1  0.26717400  0.33642400  0.57200300  1
  H  442  1  0.36293700  0.32571900  0.55724700  1
  H  443  1  0.37319500  0.33371000  0.60623100  1
  H  444  1  0.36758200  0.29420900  0.65083000  1
  H  445  1  0.41996500  0.28320300  0.66211000  1
  H  446  1  0.43370900  0.36791000  0.69141200  1
  H  447  1  0.38137500  0.37912700  0.68077000  1
  H  448  1  0.33002800  0.34498300  0.71443400  1
  H  449  1  0.29325400  0.29558500  0.64602800  1
  H  450  1  0.26727100  0.26606800  0.67949400  1
  H  451  1  0.30531400  0.31411300  0.74777100  1
  H  477  1  0.34661900  0.55259000  0.36412700  1
  H  478  1  0.35812100  0.60220500  0.36844300  1
  H  479  1  0.27431300  0.57134400  0.30612700  1
  H  480  1  0.28501100  0.62118600  0.31068900  1
  H  481  1  0.27746800  0.65196800  0.37484800  1
  H  482  1  0.26740500  0.66029600  0.42443400  1
  H  483  1  0.36316400  0.67094500  0.43931000  1
  H  484  1  0.37348500  0.66293700  0.39033900  1
  H  485  1  0.36798700  0.70245100  0.34575500  1
  H  486  1  0.42036800  0.71346400  0.33443200  1
  H  487  1  0.43402200  0.62877400  0.30508500  1
  H  488  1  0.38169700  0.61754500  0.31576800  1
  H  489  1  0.33041900  0.65167900  0.28208100  1
  H  490  1  0.29367100  0.70110900  0.35045900  1
  H  491  1  0.26773900  0.73062700  0.31697500  1
  H  492  1  0.30575000  0.68254800  0.24872300  1
  H  518  1  0.36595300  0.66376800  0.55313600  1
  H  519  1  0.37625500  0.65716200  0.60265100  1
  H  520  1  0.26973300  0.66211200  0.56947300  1
  H  521  1  0.27968300  0.65602900  0.61938700  1
  H  522  1  0.28126300  0.62434700  0.67503900  1
  H  523  1  0.27033300  0.57462000  0.68134200  1
  H  524  1  0.35483600  0.55362400  0.64088900  1
  H  525  1  0.36616200  0.60293200  0.63477300  1
  H  526  1  0.37933900  0.62417900  0.68790000  1
  H  527  1  0.43179800  0.63439000  0.69854800  1
  H  528  1  0.42531600  0.71232900  0.65284900  1
  H  529  1  0.37332500  0.70159800  0.64064900  1
  H  530  1  0.31396200  0.70971800  0.63836400  1
  H  531  1  0.31503400  0.65293400  0.70927800  1
  H  532  1  0.28840700  0.68755000  0.73707200  1
  H  533  1  0.29034900  0.74518000  0.66716300  1
  H  559  1  0.36593700  0.33302600  0.44351100  1
  H  560  1  0.37639000  0.33964700  0.39402000  1
  H  561  1  0.26976800  0.33454500  0.42691400  1
  H  562  1  0.27986800  0.34063700  0.37702400  1
  H  563  1  0.28155500  0.37231100  0.32150500  1
  H  564  1  0.27060900  0.42202400  0.31517800  1
  H  565  1  0.35512600  0.44312300  0.35558200  1
  H  566  1  0.36646500  0.39382200  0.36172600  1
  H  567  1  0.37964200  0.37247800  0.30862500  1
  H  568  1  0.43208100  0.36224800  0.29796000  1
  H  569  1  0.42560100  0.28443300  0.34388600  1
  H  570  1  0.37363100  0.29519100  0.35609900  1
  H  571  1  0.31435100  0.28697400  0.35815300  1
  H  572  1  0.31535400  0.34378000  0.28724700  1
  H  573  1  0.28880100  0.30910700  0.25943400  1
  H  574  1  0.29081200  0.25147000  0.32933600  1
  H  600  1  0.63062000  0.66360600  0.44333300  1
  H  601  1  0.62027400  0.65699700  0.39382500  1
  H  602  1  0.72682600  0.66206500  0.42691400  1
  H  603  1  0.71683000  0.65598200  0.37700500  1
  H  604  1  0.71520400  0.62429000  0.32141500  1
  H  605  1  0.72611100  0.57457100  0.31509500  1
  H  606  1  0.64156200  0.55353700  0.35547300  1
  H  607  1  0.63025900  0.60284700  0.36160800  1
  H  608  1  0.61711900  0.62415400  0.30850900  1
  H  609  1  0.56466700  0.63436400  0.29788200  1
  H  610  1  0.57119300  0.71224800  0.34369300  1
  H  611  1  0.62318600  0.70150300  0.35586900  1
  H  612  1  0.68247700  0.70964700  0.35805800  1
  H  613  1  0.68143300  0.65286000  0.28714000  1
  H  614  1  0.70802000  0.68751900  0.25933700  1
  H  615  1  0.70605300  0.74513900  0.32925400  1
  H  641  1  0.63050400  0.33294900  0.55288100  1
  H  642  1  0.62005700  0.33956400  0.60237200  1
  H  643  1  0.72667600  0.33448700  0.56947300  1
  H  644  1  0.71658000  0.34056600  0.61936300  1
  H  645  1  0.71488700  0.37227600  0.67492800  1
  H  646  1  0.72583000  0.42199600  0.68127400  1
  H  647  1  0.64138100  0.44305300  0.64075800  1
  H  648  1  0.63003900  0.39374900  0.63459300  1
  H  649  1  0.61685700  0.37248000  0.68773300  1
  H  650  1  0.56439300  0.36231700  0.69837900  1
  H  651  1  0.57074300  0.28444200  0.65254700  1
  H  652  1  0.62276200  0.29513500  0.64035300  1
  H  653  1  0.68206500  0.28691100  0.63825700  1
  H  654  1  0.68106700  0.34372700  0.70915100  1
  H  655  1  0.70760600  0.30906700  0.73697500  1
  H  656  1  0.70559200  0.25142200  0.66708000  1
  H  667  1  0.29991400  0.25978600  0.23901800  1
  H  668  1  0.27045600  0.23016000  0.20816900  1
  H  670  1  0.18209700  0.20542600  0.26507400  1
  H  674  1  0.20155200  0.20004600  0.36443000  1
  H  685  1  0.29948300  0.73686000  0.75748700  1
  H  686  1  0.27004100  0.76647400  0.78834000  1
  H  688  1  0.18170600  0.79122300  0.73144000  1
  H  692  1  0.20122300  0.79661800  0.63210000  1
  H  703  1  0.69687700  0.73683100  0.23894600  1
  H  704  1  0.72628400  0.76648000  0.20807700  1
  H  706  1  0.81465600  0.79129700  0.26492600  1
  H  710  1  0.79524300  0.79663600  0.36428800  1
  H  721  1  0.69648800  0.25974800  0.75739700  1
  H  722  1  0.72593900  0.23014100  0.78825500  1
  H  724  1  0.81427100  0.20539300  0.73134800  1
  H  728  1  0.79385700  0.20014600  0.63180600  1
  H  739  1  0.70988500  0.23082200  0.27564300  1
  H  740  1  0.73844900  0.19996600  0.24496700  1
  H  742  1  0.80235000  0.26442500  0.19159700  1
  H  746  1  0.76526300  0.35839500  0.17863600  1
  H  757  1  0.70932700  0.76578700  0.72072600  1
  H  758  1  0.73786700  0.79667500  0.75140700  1
  H  760  1  0.80185600  0.73229000  0.80473200  1
  H  764  1  0.76489000  0.63824800  0.81764400  1
  H  775  1  0.28653300  0.23087500  0.72074900  1
  H  776  1  0.25800700  0.19998500  0.75143700  1
  H  778  1  0.19410800  0.26436500  0.80485400  1
  H  782  1  0.23114000  0.35838400  0.81778500  1
  H  793  1  0.28704500  0.76580200  0.27567700  1
  H  794  1  0.25848900  0.79666900  0.24500600  1
  H  796  1  0.19448900  0.73224300  0.19169600  1
  H  800  1  0.23204200  0.63818400  0.17891800  1
  H  811  1  0.14936900  0.97645800  0.19231100  1
  H  812  1  0.15010900  0.02713600  0.18730400  1
  H  814  1  0.23158300  0.04354800  0.12016500  1
  H  818  1  0.31029000  0.97434100  0.11144800  1
  H  829  1  0.14898800  0.02012000  0.80419600  1
  H  830  1  0.14976400  0.96943300  0.80919100  1
  H  832  1  0.23122800  0.95310000  0.87634200  1
  H  836  1  0.30987300  0.02268400  0.88478300  1
  H  847  1  0.84747000  0.02014900  0.19215100  1
  H  848  1  0.84668300  0.96946600  0.18712600  1
  H  850  1  0.76516200  0.95314900  0.12001100  1
  H  854  1  0.68651500  0.02242800  0.11134100  1
  H  865  1  0.84711600  0.97653900  0.80409900  1
  H  866  1  0.84634900  0.02722100  0.80913700  1
  H  868  1  0.76488400  0.04350800  0.87630400  1
  H  872  1  0.68622600  0.97393300  0.88466000  1
  H  883  1  0.20065200  0.12697500  0.97619500  1
  H  884  1  0.20252500  0.13083900  0.02696400  1
  H  886  1  0.16253900  0.22405400  0.04539800  1
  H  890  1  0.16347000  0.29316500  0.97224200  1
  H  901  1  0.79584300  0.12706600  0.02022200  1
  H  902  1  0.79394300  0.13096200  0.96944900  1
  H  904  1  0.83398800  0.22417300  0.95104200  1
  H  908  1  0.83308700  0.29325600  0.02422300  1
  H  919  1  0.20067200  0.86956200  0.02030100  1
  H  920  1  0.20237900  0.86570000  0.96952000  1
  H  922  1  0.16211700  0.77253800  0.95119000  1
  H  926  1  0.16319500  0.70342500  0.02433700  1
  H  937  1  0.79582600  0.86960600  0.97609200  1
  H  938  1  0.79409400  0.86571800  0.02687200  1
  H  940  1  0.83428900  0.77255900  0.04518500  1
  H  944  1  0.83290600  0.70358600  0.97174100  1
  H  955  1  0.97277800  0.18632400  0.13673600  1
  H  956  1  0.02750700  0.18623400  0.13741600  1
  H  958  1  0.05226200  0.17516400  0.23624200  1
  H  962  1  0.97901800  0.13125400  0.29653600  1
  H  973  1  0.02407700  0.81041000  0.13681100  1
  H  974  1  0.96933300  0.81053000  0.13740000  1
  H  976  1  0.94440100  0.82159500  0.23618700  1
  H  980  1  0.01755200  0.86537400  0.29667800  1
  H  991  1  0.02369700  0.18625900  0.85973700  1
  H  992  1  0.96895300  0.18617400  0.85904600  1
  H  994  1  0.94423000  0.17520900  0.76019500  1
  H  998  1  0.01746000  0.13144100  0.69981300  1
  H  1009  1  0.97227300  0.81038100  0.85954800  1
  H  1010  1  0.02701600  0.81046900  0.85897800  1
  H  1012  1  0.05199900  0.82144600  0.76018600  1
  H  1016  1  0.97860800  0.86549100  0.69992900  1
  H  1027  1  0.65076800  0.47292300  0.69325900  1
  H  1028  1  0.65211600  0.52385500  0.69279400  1
  H  1030  1  0.73782800  0.54552200  0.63250300  1
  H  1034  1  0.81505200  0.47577600  0.61822100  1
  H  1045  1  0.65100200  0.52360800  0.30303400  1
  H  1046  1  0.65239200  0.47266800  0.30349300  1
  H  1048  1  0.73812700  0.45110200  0.36376500  1
  H  1052  1  0.81527400  0.52125200  0.37773000  1
  H  1063  1  0.34542100  0.52368100  0.69333700  1
  H  1064  1  0.34405200  0.47274000  0.69283900  1
  H  1066  1  0.25827100  0.45115200  0.63259300  1
  H  1070  1  0.18105500  0.52094100  0.61846100  1
  H  1081  1  0.34565800  0.47302100  0.30312600  1
  H  1082  1  0.34426500  0.52396300  0.30359600  1
  H  1084  1  0.25855800  0.54550400  0.36392400  1
  H  1088  1  0.18144400  0.47533000  0.37791800  1
  H  1099  1  0.70553700  0.62703100  0.47517300  1
  H  1100  1  0.70683600  0.62890500  0.52608500  1
  H  1102  1  0.66625700  0.72144600  0.54756000  1
  H  1106  1  0.66421600  0.79210400  0.47583700  1
  H  1117  1  0.29099700  0.62712400  0.52125100  1
  H  1118  1  0.28966100  0.62902300  0.47033200  1
  H  1120  1  0.33025200  0.72157000  0.44886700  1
  H  1124  1  0.33199000  0.79209000  0.52091900  1
  H  1135  1  0.70547900  0.36955300  0.52118300  1
  H  1136  1  0.70689000  0.36767300  0.47026100  1
  H  1138  1  0.66645600  0.27506800  0.44873400  1
  H  1142  1  0.66442900  0.20442600  0.52046700  1
  H  1153  1  0.29095800  0.36959200  0.47520300  1
  H  1154  1  0.28952200  0.36769400  0.52612400  1
  H  1156  1  0.32995100  0.27511500  0.54764800  1
  H  1160  1  0.33171200  0.20460700  0.47558400  1
  H  1171  1  0.47279500  0.68265300  0.63444900  1
  H  1172  1  0.52748300  0.68207300  0.63522500  1
  H  1174  1  0.55202000  0.67214400  0.73409600  1
  H  1178  1  0.47755600  0.63183400  0.79562900  1
  H  1189  1  0.52319500  0.31413700  0.63427100  1
  H  1190  1  0.46849300  0.31471100  0.63519100  1
  H  1192  1  0.44425900  0.32452200  0.73413700  1
  H  1196  1  0.51891600  0.36466200  0.79558000  1
  H  1207  1  0.52367400  0.68256300  0.36204300  1
  H  1208  1  0.46897300  0.68197000  0.36125000  1
  H  1210  1  0.44448600  0.67215000  0.26234900  1
  H  1214  1  0.51897400  0.63203200  0.20074600  1
  H  1225  1  0.47319300  0.31409900  0.36208600  1
  H  1226  1  0.52789100  0.31460800  0.36117100  1
  H  1228  1  0.55214500  0.32433100  0.26221400  1
  H  1232  1  0.47724700  0.36478600  0.20102000  1
  C  1  1  0.21711400  0.20508700  0.21731100  1
  C  2  1  0.20943300  0.21684900  0.19029700  1
  C  3  1  0.19355800  0.20048700  0.16976000  1
  C  4  1  0.18457800  0.17194000  0.17577900  1
  C  5  1  0.19072600  0.16088100  0.20348500  1
  C  6  1  0.20826000  0.17659000  0.22332600  1
  C  8  1  0.12720800  0.16148500  0.16428500  1
  C  9  1  0.10861800  0.14199800  0.17996600  1
  C  10  1  0.07787100  0.14884000  0.18723700  1
  C  11  1  0.06512200  0.17581000  0.18007400  1
  C  12  1  0.08435100  0.19612900  0.16639900  1
  C  13  1  0.11500000  0.18921400  0.15900900  1
  C  14  1  0.16855800  0.16251900  0.11900600  1
  C  15  1  0.17119200  0.11861900  0.15273100  1
  C  16  1  0.14985700  0.09883100  0.14087400  1
  C  17  1  0.15577500  0.06924900  0.14166100  1
  C  18  1  0.18375400  0.05868200  0.15326600  1
  C  19  1  0.20638500  0.07836600  0.16259400  1
  C  20  1  0.20044100  0.10796400  0.16160500  1
  C  21  1  0.19909200  0.16470500  0.10800900  1
  C  22  1  0.20440500  0.16913500  0.07859000  1
  C  23  1  0.17926800  0.17128800  0.05939200  1
  C  24  1  0.14882400  0.16850700  0.07006400  1
  C  25  1  0.14357100  0.16388300  0.09938000  1
  C  42  1  0.21671400  0.79153800  0.77920600  1
  C  43  1  0.20901500  0.77976700  0.80621300  1
  C  44  1  0.19316000  0.79612700  0.82675500  1
  C  45  1  0.18416100  0.82466400  0.82073500  1
  C  46  1  0.19034300  0.83573000  0.79303500  1
  C  47  1  0.20790000  0.82004100  0.77320300  1
  C  49  1  0.12681400  0.83513900  0.83223800  1
  C  50  1  0.10827400  0.85463100  0.81652500  1
  C  51  1  0.07752800  0.84780400  0.80921900  1
  C  52  1  0.06473000  0.82084600  0.81637900  1
  C  53  1  0.08390600  0.80052300  0.83009500  1
  C  54  1  0.11455600  0.80742300  0.83751600  1
  C  55  1  0.16819100  0.83408500  0.87751300  1
  C  56  1  0.17083000  0.87798400  0.84380800  1
  C  57  1  0.14950200  0.89776400  0.85566600  1
  C  58  1  0.15542700  0.92734600  0.85489200  1
  C  59  1  0.18339100  0.93793100  0.84325800  1
  C  60  1  0.20600500  0.91826200  0.83389100  1
  C  61  1  0.20006900  0.88865900  0.83490500  1
  C  62  1  0.19873000  0.83189400  0.88849800  1
  C  63  1  0.20406600  0.82745500  0.91791000  1
  C  64  1  0.17894700  0.82525900  0.93712500  1
  C  65  1  0.14849800  0.82803300  0.92647000  1
  C  66  1  0.14322200  0.83266000  0.89715600  1
  C  83  1  0.77961500  0.79158600  0.21718400  1
  C  84  1  0.78730800  0.77981100  0.19017900  1
  C  85  1  0.80317500  0.79617100  0.16963500  1
  C  86  1  0.81219100  0.82470900  0.17565200  1
  C  87  1  0.80599200  0.83578900  0.20334200  1
  C  88  1  0.78842700  0.82009900  0.22317600  1
  C  90  1  0.86955200  0.83520700  0.16417500  1
  C  91  1  0.88809400  0.85472300  0.17986800  1
  C  92  1  0.91884500  0.84792700  0.18716600  1
  C  93  1  0.93164200  0.82097500  0.18001100  1
  C  94  1  0.91246000  0.80062000  0.16633200  1
  C  95  1  0.88180500  0.80749200  0.15891900  1
  C  96  1  0.82820300  0.83411100  0.11887900  1
  C  97  1  0.82555100  0.87802300  0.15255900  1
  C  98  1  0.84688400  0.89780200  0.14068800  1
  C  99  1  0.84096300  0.92738400  0.14143100  1
  C  100  1  0.81300600  0.93796800  0.15306600  1
  C  101  1  0.79038500  0.91829600  0.16243700  1
  C  102  1  0.79631500  0.88869400  0.16145200  1
  C  103  1  0.79767300  0.83192100  0.10787400  1
  C  104  1  0.79235400  0.82746900  0.07846000  1
  C  105  1  0.81748900  0.82527700  0.05926500  1
  C  106  1  0.84793400  0.82805900  0.06993400  1
  C  107  1  0.85318800  0.83269100  0.09925000  1
  C  124  1  0.77927000  0.20508100  0.77911100  1
  C  125  1  0.78699300  0.21686300  0.80610800  1
  C  126  1  0.80286900  0.20050900  0.82664500  1
  C  127  1  0.81185000  0.17196600  0.82062600  1
  C  128  1  0.80562600  0.16088100  0.79294500  1
  C  129  1  0.78807700  0.17657500  0.77311300  1
  C  131  1  0.86921900  0.16153400  0.83210300  1
  C  132  1  0.88776100  0.14204600  0.81639000  1
  C  133  1  0.91853200  0.14885100  0.80915200  1
  C  134  1  0.93133800  0.17579700  0.81634200  1
  C  135  1  0.91215000  0.19612400  0.83003700  1
  C  136  1  0.88147600  0.18924900  0.83739400  1
  C  137  1  0.82787900  0.16258400  0.87740400  1
  C  138  1  0.82523600  0.11866900  0.84372300  1
  C  139  1  0.84658800  0.09890300  0.85556700  1
  C  140  1  0.84068300  0.06931700  0.85480000  1
  C  141  1  0.81270500  0.05871100  0.84321200  1
  C  142  1  0.79006300  0.07837000  0.83388100  1
  C  143  1  0.79598400  0.10797700  0.83487700  1
  C  144  1  0.79735800  0.16479900  0.88841800  1
  C  145  1  0.79206400  0.16922900  0.91784200  1
  C  146  1  0.81721600  0.17141600  0.93702000  1
  C  147  1  0.84765100  0.16860900  0.92633500  1
  C  148  1  0.85288000  0.16396700  0.89701700  1
  C  165  1  0.78005000  0.21308000  0.20629000  1
  C  166  1  0.79881200  0.19187800  0.21911800  1
  C  167  1  0.81549000  0.17246100  0.20210400  1
  C  168  1  0.81400200  0.17372600  0.17177600  1
  C  169  1  0.79526600  0.19523600  0.15915700  1
  C  170  1  0.77786800  0.21410400  0.17614700  1
  C  172  1  0.87214200  0.16051300  0.16338900  1
  C  173  1  0.88393400  0.18839700  0.15808300  1
  C  174  1  0.91464700  0.19557800  0.16514100  1
  C  175  1  0.93411100  0.17554300  0.17895600  1
  C  176  1  0.92167300  0.14856700  0.18645000  1
  C  177  1  0.89111000  0.14130700  0.17906700  1
  C  178  1  0.82833800  0.11750400  0.15774500  1
  C  179  1  0.83121700  0.15600300  0.11743200  1
  C  180  1  0.85586600  0.16238400  0.09846000  1
  C  181  1  0.85050500  0.16622400  0.06903500  1
  C  182  1  0.82037500  0.16358900  0.05750400  1
  C  183  1  0.79604200  0.15526800  0.07591800  1
  C  184  1  0.80149500  0.15117400  0.10534300  1
  C  185  1  0.80223200  0.10776800  0.17343600  1
  C  186  1  0.79571100  0.07830600  0.17595300  1
  C  187  1  0.81523700  0.05795500  0.16284100  1
  C  188  1  0.84079200  0.06743600  0.14656800  1
  C  189  1  0.84700200  0.09677900  0.14378100  1
  C  206  1  0.77953100  0.78360900  0.79003600  1
  C  207  1  0.79829800  0.80479800  0.77717100  1
  C  208  1  0.81501700  0.82422400  0.79415200  1
  C  209  1  0.81359000  0.82296300  0.82448200  1
  C  210  1  0.79485100  0.80146500  0.83713900  1
  C  211  1  0.77739300  0.78260300  0.82018200  1
  C  213  1  0.87175500  0.83615300  0.83277700  1
  C  214  1  0.88350500  0.80826000  0.83808000  1
  C  215  1  0.91421600  0.80107300  0.83105100  1
  C  216  1  0.93371300  0.82110000  0.81724700  1
  C  217  1  0.92130700  0.84807400  0.80972900  1
  C  218  1  0.89075100  0.85535000  0.81710300  1
  C  219  1  0.82799700  0.87918600  0.83846800  1
  C  220  1  0.83095100  0.84070000  0.87879700  1
  C  221  1  0.85565700  0.83435300  0.89771400  1
  C  222  1  0.85038500  0.83052300  0.92715200  1
  C  223  1  0.82029000  0.83312900  0.93875600  1
  C  224  1  0.79589800  0.84141900  0.92039900  1
  C  225  1  0.80125900  0.84549200  0.89095900  1
  C  226  1  0.80185200  0.88890800  0.82283600  1
  C  227  1  0.79533500  0.91836800  0.82032100  1
  C  228  1  0.81489900  0.93873200  0.83338500  1
  C  229  1  0.84048800  0.92926200  0.84961200  1
  C  230  1  0.84670100  0.89992200  0.85238800  1
  C  247  1  0.21641700  0.21305000  0.79013500  1
  C  248  1  0.19763700  0.19185000  0.77730600  1
  C  249  1  0.18095700  0.17242400  0.79432100  1
  C  250  1  0.18245900  0.17368300  0.82464700  1
  C  251  1  0.20122200  0.19518400  0.83726800  1
  C  252  1  0.21863100  0.21405400  0.82027600  1
  C  254  1  0.12432400  0.16045100  0.83306800  1
  C  255  1  0.11254300  0.18832600  0.83840800  1
  C  256  1  0.08184300  0.19552100  0.83134000  1
  C  257  1  0.06236900  0.17549300  0.81751500  1
  C  258  1  0.07476900  0.14850600  0.81003500  1
  C  259  1  0.10533800  0.14125300  0.81738000  1
  C  260  1  0.16811900  0.11745100  0.83866800  1
  C  261  1  0.16527700  0.15593200  0.87899900  1
  C  262  1  0.14064100  0.16229900  0.89798600  1
  C  263  1  0.14602000  0.16612800  0.92740900  1
  C  264  1  0.17615600  0.16350400  0.93892400  1
  C  265  1  0.20047800  0.15520200  0.92049400  1
  C  266  1  0.19500900  0.15112800  0.89107000  1
  C  267  1  0.19422700  0.10773500  0.82297700  1
  C  268  1  0.20073400  0.07827800  0.82042800  1
  C  269  1  0.18121200  0.05791000  0.83354000  1
  C  270  1  0.15567000  0.06737100  0.84983200  1
  C  271  1  0.14946000  0.09671000  0.85263000  1
  C  288  1  0.21681800  0.78357400  0.20638500  1
  C  289  1  0.19806200  0.80476800  0.21923600  1
  C  290  1  0.18136400  0.82418700  0.20224400  1
  C  291  1  0.18281000  0.82292500  0.17191500  1
  C  292  1  0.20153100  0.80141800  0.15927100  1
  C  293  1  0.21897000  0.78256300  0.17623900  1
  C  295  1  0.12466600  0.83615700  0.16359300  1
  C  296  1  0.11285500  0.80828000  0.15828300  1
  C  297  1  0.08213300  0.80111600  0.16532300  1
  C  298  1  0.06267500  0.82116900  0.17911200  1
  C  299  1  0.07511300  0.84815300  0.18658200  1
  C  300  1  0.10569900  0.85538100  0.17925200  1
  C  301  1  0.16848700  0.87915400  0.15788800  1
  C  302  1  0.16550200  0.84064900  0.11758500  1
  C  303  1  0.14079700  0.83430600  0.09866100  1
  C  304  1  0.14607900  0.83046600  0.06922500  1
  C  305  1  0.17618100  0.83307200  0.05763000  1
  C  306  1  0.20057500  0.84135200  0.07599400  1
  C  307  1  0.19520300  0.84543200  0.10543400  1
  C  308  1  0.19460300  0.88887600  0.17357400  1
  C  309  1  0.20113800  0.91833600  0.17609900  1
  C  310  1  0.18161200  0.93870000  0.16300700  1
  C  311  1  0.15605500  0.92923100  0.14672900  1
  C  312  1  0.14982600  0.89989100  0.14393800  1
  C  329  1  0.71238500  0.70919000  0.71673400  1
  C  330  1  0.71542900  0.71401600  0.68697800  1
  C  331  1  0.70059100  0.69604000  0.66715000  1
  C  332  1  0.68292700  0.67224300  0.67648400  1
  C  333  1  0.67930600  0.66800800  0.70640700  1
  C  334  1  0.69381000  0.68618700  0.72623700  1
  C  336  1  0.62679100  0.65838900  0.66322100  1
  C  337  1  0.60719300  0.63786200  0.67633400  1
  C  338  1  0.57640300  0.64464100  0.68337200  1
  C  339  1  0.56454400  0.67235400  0.67815700  1
  C  340  1  0.58433500  0.69335900  0.66640200  1
  C  341  1  0.61514300  0.68659000  0.65952300  1
  C  342  1  0.67007400  0.65837900  0.61955200  1
  C  343  1  0.67274500  0.61690800  0.65735500  1
  C  344  1  0.65613500  0.59625200  0.64121500  1
  C  345  1  0.66285600  0.56692300  0.64364000  1
  C  346  1  0.68685800  0.55743600  0.66183000  1
  C  347  1  0.70453400  0.57778800  0.67701800  1
  C  348  1  0.69775100  0.60718400  0.67453400  1
  C  349  1  0.70062100  0.65660100  0.60847700  1
  C  350  1  0.70672800  0.66146100  0.57924500  1
  C  351  1  0.68234100  0.66767600  0.56006200  1
  C  352  1  0.65170400  0.66790000  0.57066500  1
  C  353  1  0.64567600  0.66330800  0.59985300  1
  C  370  1  0.71285300  0.28742500  0.27959200  1
  C  371  1  0.71587600  0.28261500  0.30934900  1
  C  372  1  0.70099200  0.30057100  0.32915800  1
  C  373  1  0.68327400  0.32431600  0.31980200  1
  C  374  1  0.67969500  0.32854000  0.28987500  1
  C  375  1  0.69425500  0.31038700  0.27006300  1
  C  377  1  0.62711300  0.33814000  0.33299100  1
  C  378  1  0.60752100  0.35867800  0.31990300  1
  C  379  1  0.57671500  0.35191300  0.31289500  1
  C  380  1  0.56483300  0.32420500  0.31812000  1
  C  381  1  0.58461700  0.30318300  0.32982700  1
  C  382  1  0.61544200  0.30993500  0.33667200  1
  C  383  1  0.67032500  0.33816300  0.37672000  1
  C  384  1  0.67306000  0.37964200  0.33892900  1
  C  385  1  0.65643600  0.40027700  0.35507200  1
  C  386  1  0.66314500  0.42961200  0.35266000  1
  C  387  1  0.68714100  0.43913200  0.33446800  1
  C  388  1  0.70481400  0.41880400  0.31926200  1
  C  389  1  0.69805700  0.38939700  0.32174900  1
  C  390  1  0.70084600  0.33997800  0.38785200  1
  C  391  1  0.70689700  0.33512600  0.41709600  1
  C  392  1  0.68248400  0.32884600  0.43623300  1
  C  393  1  0.65187000  0.32858500  0.42557200  1
  C  394  1  0.64589600  0.33317300  0.39637600  1
  C  411  1  0.28352900  0.28747600  0.71680500  1
  C  412  1  0.28051000  0.28265600  0.68704700  1
  C  413  1  0.29539400  0.30061900  0.66723600  1
  C  414  1  0.31310700  0.32438200  0.67658500  1
  C  415  1  0.31667900  0.32861800  0.70651400  1
  C  416  1  0.30212200  0.31045700  0.72632900  1
  C  418  1  0.36927100  0.33824100  0.66340500  1
  C  419  1  0.38886200  0.35880200  0.67647600  1
  C  420  1  0.41967500  0.35207200  0.68347300  1
  C  421  1  0.43156200  0.32437600  0.67824400  1
  C  422  1  0.41178000  0.30332400  0.66656500  1
  C  423  1  0.38094900  0.31004500  0.65973500  1
  C  424  1  0.32607100  0.33821200  0.61966800  1
  C  425  1  0.32332600  0.37970800  0.65743500  1
  C  426  1  0.33995000  0.40034100  0.64127700  1
  C  427  1  0.33323800  0.42967200  0.64366300  1
  C  428  1  0.30925500  0.43919600  0.66185700  1
  C  429  1  0.29157900  0.41886700  0.67708000  1
  C  430  1  0.29833400  0.38946300  0.67461300  1
  C  431  1  0.29555200  0.34000300  0.60852700  1
  C  432  1  0.28950800  0.33514700  0.57928300  1
  C  433  1  0.31392900  0.32888900  0.56015400  1
  C  434  1  0.34454100  0.32864400  0.57081800  1
  C  435  1  0.35050400  0.33323800  0.60001600  1
  C  452  1  0.28399200  0.70920500  0.27967500  1
  C  453  1  0.28096700  0.71403400  0.30943100  1
  C  454  1  0.29581800  0.69606900  0.32925200  1
  C  455  1  0.31350800  0.67229900  0.31991400  1
  C  456  1  0.31708900  0.66805500  0.28998900  1
  C  457  1  0.30256000  0.68621500  0.27016300  1
  C  459  1  0.36963200  0.65842500  0.33315200  1
  C  460  1  0.38919600  0.63787000  0.32005800  1
  C  461  1  0.42001100  0.64460600  0.31305000  1
  C  462  1  0.43192300  0.67230500  0.31826800  1
  C  463  1  0.41217200  0.69333800  0.33000300  1
  C  464  1  0.38133800  0.68661700  0.33684300  1
  C  465  1  0.32637000  0.65845400  0.37684800  1
  C  466  1  0.32364100  0.61696700  0.33907300  1
  C  467  1  0.34023200  0.59632500  0.35523700  1
  C  468  1  0.33350900  0.56699400  0.35282300  1
  C  469  1  0.30952800  0.55748100  0.33461200  1
  C  470  1  0.29187500  0.57782000  0.31939300  1
  C  471  1  0.29865400  0.60722200  0.32187600  1
  C  472  1  0.29583200  0.65668200  0.38794900  1
  C  473  1  0.28975300  0.66154800  0.41718600  1
  C  474  1  0.31415600  0.66779700  0.43634300  1
  C  475  1  0.34478400  0.66802300  0.42571600  1
  C  476  1  0.35078400  0.66342000  0.39652600  1
  C  493  1  0.28599800  0.71961400  0.70467100  1
  C  494  1  0.29374700  0.69252700  0.71627300  1
  C  495  1  0.30887900  0.67179300  0.69958400  1
  C  496  1  0.31472900  0.67667400  0.67014500  1
  C  497  1  0.30813600  0.70423300  0.65891600  1
  C  498  1  0.29426600  0.72540700  0.67596300  1
  C  500  1  0.37125600  0.66092700  0.66161900  1
  C  501  1  0.38492200  0.68731800  0.65340200  1
  C  502  1  0.41569300  0.69383400  0.66065000  1
  C  503  1  0.43365600  0.67448100  0.67696000  1
  C  504  1  0.41937400  0.64918700  0.68712200  1
  C  505  1  0.38849900  0.64278600  0.68001100  1
  C  506  1  0.32596400  0.61894200  0.65621900  1
  C  507  1  0.32905700  0.65737700  0.61641100  1
  C  508  1  0.35363400  0.65891700  0.59639500  1
  C  509  1  0.34763400  0.66260000  0.56705300  1
  C  510  1  0.31689900  0.66427300  0.55683400  1
  C  511  1  0.29222300  0.66129200  0.57641100  1
  C  512  1  0.29825800  0.65778500  0.60581500  1
  C  513  1  0.29756300  0.60986400  0.66850300  1
  C  514  1  0.29072200  0.58052900  0.67180700  1
  C  515  1  0.31199000  0.55952000  0.66255000  1
  C  516  1  0.33941200  0.56839800  0.64866000  1
  C  517  1  0.34598200  0.59761300  0.64506700  1
  C  534  1  0.28643600  0.27703500  0.29183000  1
  C  535  1  0.29414600  0.30413700  0.28023300  1
  C  536  1  0.30922900  0.32490400  0.29693300  1
  C  537  1  0.31505800  0.32003100  0.32636900  1
  C  538  1  0.30853400  0.29245200  0.33759600  1
  C  539  1  0.29470900  0.27125200  0.32053800  1
  C  541  1  0.37156400  0.33580400  0.33501700  1
  C  542  1  0.38523000  0.30944700  0.34330900  1
  C  543  1  0.41599400  0.30292000  0.33606300  1
  C  544  1  0.43394300  0.32221400  0.31966100  1
  C  545  1  0.41966600  0.34748000  0.30944200  1
  C  546  1  0.38880400  0.35389900  0.31657000  1
  C  547  1  0.32626500  0.37776700  0.34030100  1
  C  548  1  0.32923500  0.33935600  0.38013300  1
  C  549  1  0.35375000  0.33785200  0.40021600  1
  C  550  1  0.34766100  0.33416100  0.42954300  1
  C  551  1  0.31689700  0.33245300  0.43967800  1
  C  552  1  0.29227900  0.33539500  0.42003500  1
  C  553  1  0.29840100  0.33889800  0.39064600  1
  C  554  1  0.29785500  0.38681300  0.32802800  1
  C  555  1  0.29100700  0.41614000  0.32470500  1
  C  556  1  0.31227300  0.43717300  0.33393900  1
  C  557  1  0.33970600  0.42832800  0.34782200  1
  C  558  1  0.34628300  0.39912100  0.35143000  1
  C  575  1  0.71042300  0.71957800  0.29174700  1
  C  576  1  0.70269400  0.69248400  0.28014300  1
  C  577  1  0.68759900  0.67172100  0.29683600  1
  C  578  1  0.68175700  0.67659400  0.32627000  1
  C  579  1  0.68832900  0.70415700  0.33751400  1
  C  580  1  0.70215900  0.72535700  0.32045600  1
  C  582  1  0.62522000  0.66086000  0.33484800  1
  C  583  1  0.61155700  0.68722200  0.34313500  1
  C  584  1  0.58079700  0.69375500  0.33588100  1
  C  585  1  0.56283000  0.67442700  0.31953900  1
  C  586  1  0.57709100  0.64914300  0.30934700  1
  C  587  1  0.60797600  0.64275600  0.31641100  1
  C  588  1  0.67048400  0.61887100  0.34019400  1
  C  589  1  0.66745900  0.65728700  0.38002300  1
  C  590  1  0.64290100  0.65879000  0.40006100  1
  C  591  1  0.64892600  0.66246700  0.42939900  1
  C  592  1  0.67967000  0.66417200  0.43959300  1
  C  593  1  0.70433000  0.66123100  0.41999400  1
  C  594  1  0.69827000  0.65773000  0.39059200  1
  C  595  1  0.69888800  0.60980400  0.32792500  1
  C  596  1  0.70570800  0.58047100  0.32460200  1
  C  597  1  0.68442300  0.55945500  0.33384000  1
  C  598  1  0.65699500  0.56831900  0.34771700  1
  C  599  1  0.65044300  0.59753200  0.35132000  1
  C  616  1  0.70997800  0.27699400  0.70457900  1
  C  617  1  0.70226800  0.30409400  0.71617400  1
  C  618  1  0.68720300  0.32485800  0.69946800  1
  C  619  1  0.68137200  0.31997400  0.67003200  1
  C  620  1  0.68788400  0.29239500  0.65881100  1
  C  621  1  0.70170300  0.27120400  0.67587100  1
  C  623  1  0.62488000  0.33577300  0.66137900  1
  C  624  1  0.61115600  0.30943200  0.65308100  1
  C  625  1  0.58037800  0.30294100  0.66032500  1
  C  626  1  0.56246400  0.32226800  0.67670500  1
  C  627  1  0.57677800  0.34753700  0.68689500  1
  C  628  1  0.60767200  0.35389300  0.67981800  1
  C  629  1  0.67021800  0.37771300  0.65605400  1
  C  630  1  0.66721300  0.33927400  0.61625700  1
  C  631  1  0.64269700  0.33777200  0.59617400  1
  C  632  1  0.64878000  0.33408300  0.56684900  1
  C  633  1  0.67954500  0.33238400  0.55671100  1
  C  634  1  0.70416500  0.33531800  0.57635500  1
  C  635  1  0.69804500  0.33881900  0.60574400  1
  C  636  1  0.69860100  0.38676900  0.66838500  1
  C  637  1  0.70544600  0.41610100  0.67171900  1
  C  638  1  0.68419900  0.43712200  0.66245500  1
  C  639  1  0.65679300  0.42826600  0.64852300  1
  C  640  1  0.65022600  0.39905700  0.64488500  1
  C  657  1  0.26994000  0.25663600  0.27502500  1
  C  658  1  0.24236300  0.24331200  0.28489300  1
  C  659  1  0.22378300  0.22617300  0.26636700  1
  C  660  1  0.23393000  0.22156900  0.23762900  1
  C  661  1  0.26232500  0.23360700  0.22850500  1
  C  662  1  0.27982900  0.25103700  0.24675100  1
  C  664  1  0.18771400  0.21912500  0.30514300  1
  C  665  1  0.20665600  0.23524400  0.32368700  1
  C  671  1  0.20011300  0.23885000  0.35255300  1
  C  675  1  0.26949700  0.73999300  0.72148700  1
  C  676  1  0.24193200  0.75332100  0.71161900  1
  C  677  1  0.22336900  0.77046500  0.73014500  1
  C  678  1  0.23351600  0.77506000  0.75888500  1
  C  679  1  0.26189900  0.76301700  0.76800900  1
  C  680  1  0.27939800  0.74560000  0.74975700  1
  C  682  1  0.18730700  0.77752400  0.69137100  1
  C  683  1  0.20622900  0.76139600  0.67282700  1
  C  689  1  0.19969400  0.75781100  0.64395700  1
  C  693  1  0.72688900  0.73998800  0.27492700  1
  C  694  1  0.75445600  0.75333900  0.28478000  1
  C  695  1  0.77299600  0.77051100  0.26624700  1
  C  696  1  0.76282400  0.77509900  0.23751600  1
  C  697  1  0.73443900  0.76303600  0.22840700  1
  C  698  1  0.71696500  0.74559000  0.24666300  1
  C  700  1  0.80909400  0.77758000  0.30499500  1
  C  701  1  0.79019200  0.76142900  0.32354800  1
  C  707  1  0.79675800  0.75783400  0.35240900  1
  C  711  1  0.72645800  0.25660000  0.72138800  1
  C  712  1  0.75404200  0.24329800  0.71153100  1
  C  713  1  0.77261200  0.22616200  0.73005700  1
  C  714  1  0.76246000  0.22155600  0.75879300  1
  C  715  1  0.73408000  0.23359700  0.76792100  1
  C  716  1  0.71657100  0.25100500  0.74966700  1
  C  718  1  0.80868300  0.21912100  0.69128500  1
  C  719  1  0.78977800  0.23527200  0.67275200  1
  C  725  1  0.79634300  0.23879200  0.64387300  1
  C  729  1  0.72884000  0.26976100  0.25979400  1
  C  730  1  0.74985300  0.28127400  0.23948400  1
  C  731  1  0.76769600  0.26310600  0.22138600  1
  C  732  1  0.76353500  0.23286300  0.22348500  1
  C  733  1  0.74200500  0.22161600  0.24333600  1
  C  734  1  0.72509100  0.23977100  0.26136700  1
  C  736  1  0.79205300  0.30495200  0.20127300  1
  C  737  1  0.77387900  0.32292600  0.21877700  1
  C  743  1  0.77555800  0.35259700  0.21766600  1
  C  747  1  0.72833700  0.72687200  0.73654700  1
  C  748  1  0.74936000  0.71538200  0.75685300  1
  C  749  1  0.76718400  0.73356900  0.77495900  1
  C  750  1  0.76299300  0.76380600  0.77286900  1
  C  751  1  0.74144200  0.77502800  0.75303200  1
  C  752  1  0.72454200  0.75685600  0.73499700  1
  C  754  1  0.79160500  0.69175200  0.79503300  1
  C  755  1  0.77344800  0.67375800  0.77752700  1
  C  761  1  0.77516500  0.64408800  0.77861400  1
  C  765  1  0.26755800  0.26979100  0.73660500  1
  C  766  1  0.24655800  0.28127900  0.75693200  1
  C  767  1  0.22874800  0.26309000  0.77504900  1
  C  768  1  0.23291800  0.23285400  0.77293900  1
  C  769  1  0.25443900  0.22163100  0.75307300  1
  C  770  1  0.27133200  0.23980500  0.73503300  1
  C  772  1  0.20436900  0.30490500  0.79517000  1
  C  773  1  0.22251500  0.32290400  0.77765400  1
  C  779  1  0.22081400  0.35257100  0.77876200  1
  C  783  1  0.26802600  0.72687300  0.25986700  1
  C  784  1  0.24698200  0.71536900  0.23957800  1
  C  785  1  0.22915000  0.73354500  0.22148000  1
  C  786  1  0.23334700  0.76378400  0.22356000  1
  C  787  1  0.25490700  0.77502000  0.24339000  1
  C  788  1  0.27181600  0.75685900  0.26141700  1
  C  790  1  0.20473100  0.69171200  0.20140300  1
  C  791  1  0.22287000  0.67372900  0.21892700  1
  C  797  1  0.22115200  0.64405200  0.21775400  1
  C  801  1  0.18746600  0.96842700  0.16467500  1
  C  802  1  0.20967000  0.98170000  0.14673800  1
  C  803  1  0.21000800  0.01199600  0.14293500  1
  C  804  1  0.18757600  0.02885200  0.15766400  1
  C  805  1  0.16655600  0.01542500  0.17665000  1
  C  806  1  0.16626000  0.98559800  0.17988700  1
  C  808  1  0.25195300  0.00655400  0.10949400  1
  C  809  1  0.25176800  0.97657500  0.11352200  1
  C  815  1  0.27211500  0.95831200  0.09950500  1
  C  819  1  0.18704500  0.02818400  0.83187200  1
  C  820  1  0.20925600  0.01493700  0.84981100  1
  C  821  1  0.20962300  0.98463900  0.85359700  1
  C  822  1  0.18720400  0.96776200  0.83885600  1
  C  823  1  0.16616800  0.98117100  0.81988400  1
  C  824  1  0.16587200  0.01099400  0.81663200  1
  C  826  1  0.25154800  0.99011900  0.88705500  1
  C  827  1  0.25132600  0.02010200  0.88306100  1
  C  833  1  0.27171400  0.03834200  0.89709400  1
  C  837  1  0.80941100  0.02822500  0.16449800  1
  C  838  1  0.78716200  0.01497100  0.14658600  1
  C  839  1  0.78677800  0.98467400  0.14278500  1
  C  840  1  0.80922300  0.96779900  0.15747200  1
  C  841  1  0.83026500  0.98119800  0.17645500  1
  C  842  1  0.83059900  0.01102200  0.17969200  1
  C  844  1  0.74481700  0.99016400  0.10936900  1
  C  845  1  0.74503500  0.02014100  0.11340700  1
  C  851  1  0.72470400  0.03842800  0.09940000  1
  C  855  1  0.80904300  0.96845700  0.83175400  1
  C  856  1  0.78684700  0.98169400  0.84971700  1
  C  857  1  0.78648800  0.01198900  0.85353300  1
  C  858  1  0.80890800  0.02887700  0.83880700  1
  C  859  1  0.82995000  0.01547900  0.81983200  1
  C  860  1  0.83022300  0.98566000  0.81653100  1
  C  862  1  0.74455300  0.00648300  0.88697300  1
  C  863  1  0.74477300  0.97650400  0.88295600  1
  C  869  1  0.72437800  0.95825600  0.89696600  1
  C  873  1  0.18125300  0.16812700  0.96866000  1
  C  874  1  0.17131100  0.19356700  0.98252400  1
  C  875  1  0.17240200  0.19627200  0.01287400  1
  C  876  1  0.18386200  0.17294500  0.02939600  1
  C  877  1  0.19529800  0.14826300  0.01539900  1
  C  878  1  0.19408000  0.14592800  0.98543900  1
  C  880  1  0.15051600  0.24344500  0.00878100  1
  C  881  1  0.14945300  0.24082100  0.97867100  1
  C  887  1  0.13796700  0.26216700  0.96090000  1
  C  891  1  0.81530200  0.16820600  0.02776200  1
  C  892  1  0.82524700  0.19365500  0.01390800  1
  C  893  1  0.82413800  0.19637000  0.98355700  1
  C  894  1  0.81266100  0.17305300  0.96701800  1
  C  895  1  0.80125600  0.14835400  0.98102500  1
  C  896  1  0.80244300  0.14601700  0.01098300  1
  C  898  1  0.84603200  0.24355500  0.98766200  1
  C  899  1  0.84710200  0.24092300  0.01776900  1
  C  905  1  0.85859500  0.26227000  0.03554500  1
  C  909  1  0.18116700  0.82845300  0.02787600  1
  C  910  1  0.17113400  0.80302500  0.01403700  1
  C  911  1  0.17212400  0.80032200  0.98368100  1
  C  912  1  0.18355700  0.82364100  0.96711900  1
  C  913  1  0.19508600  0.84830300  0.98109800  1
  C  914  1  0.19396000  0.85064800  0.01105800  1
  C  916  1  0.15019000  0.75315600  0.98784000  1
  C  917  1  0.14923500  0.75578000  0.01795100  1
  C  923  1  0.13777800  0.73443900  0.03575600  1
  C  927  1  0.81530900  0.82850100  0.96851400  1
  C  928  1  0.82534000  0.80307400  0.98234600  1
  C  929  1  0.82433700  0.80036200  0.01270000  1
  C  930  1  0.81290400  0.82367200  0.02926600  1
  C  931  1  0.80141600  0.84834300  0.01528600  1
  C  932  1  0.80246100  0.85066700  0.98532400  1
  C  934  1  0.84624500  0.75320200  0.00853400  1
  C  935  1  0.84724600  0.75584300  0.97842700  1
  C  941  1  0.85866900  0.73445200  0.96065900  1
  C  945  1  0.96651100  0.18041600  0.18153100  1
  C  946  1  0.98281300  0.17704200  0.20768600  1
  C  947  1  0.01582200  0.17727400  0.20850700  1
  C  948  1  0.03265200  0.18051300  0.18244000  1
  C  949  1  0.01611600  0.18490600  0.15663600  1
  C  950  1  0.98367300  0.18495700  0.15619300  1
  C  952  1  0.01362700  0.17074300  0.25954500  1
  C  953  1  0.98096400  0.17007700  0.25866600  1
  C  959  1  0.96290000  0.16647600  0.28300000  1
  C  963  1  0.03025700  0.81636500  0.18160900  1
  C  964  1  0.01390300  0.81972500  0.20774000  1
  C  965  1  0.98089300  0.81951000  0.20850700  1
  C  966  1  0.96411800  0.81632100  0.18240200  1
  C  967  1  0.98070000  0.81191900  0.15662700  1
  C  968  1  0.01314200  0.81181000  0.15624600  1
  C  970  1  0.98299400  0.82596500  0.25955800  1
  C  971  1  0.01565900  0.82662300  0.25873300  1
  C  977  1  0.03367900  0.83017000  0.28310300  1
  C  981  1  0.02997000  0.18034300  0.81495100  1
  C  982  1  0.01366700  0.17701300  0.78878600  1
  C  983  1  0.98065900  0.17725000  0.78795200  1
  C  984  1  0.96382600  0.18043300  0.81402500  1
  C  985  1  0.98035300  0.18481100  0.83983400  1
  C  986  1  0.01279400  0.18483600  0.84028600  1
  C  988  1  0.98287300  0.17083300  0.73690000  1
  C  989  1  0.01553500  0.17015900  0.73779000  1
  C  995  1  0.03360700  0.16662200  0.71345400  1
  C  999  1  0.96611300  0.81622700  0.81473700  1
  C  1000  1  0.98248600  0.81959000  0.78861500  1
  C  1001  1  0.01549600  0.81935900  0.78785400  1
  C  1002  1  0.03225800  0.81616200  0.81396100  1
  C  1003  1  0.01566400  0.81183700  0.83974200  1
  C  1004  1  0.98322100  0.81172000  0.84011500  1
  C  1006  1  0.01341800  0.82582600  0.73680400  1
  C  1007  1  0.98075400  0.82647100  0.73761600  1
  C  1013  1  0.96279300  0.83008600  0.71320900  1
  C  1017  1  0.68977900  0.46683000  0.66617900  1
  C  1018  1  0.71313500  0.48148000  0.65067800  1
  C  1019  1  0.71421700  0.51200100  0.65014400  1
  C  1020  1  0.69146300  0.52769300  0.66563700  1
  C  1021  1  0.66918200  0.51291500  0.68215300  1
  C  1022  1  0.66833200  0.48290400  0.68238000  1
  C  1024  1  0.75765800  0.50950300  0.61809900  1
  C  1025  1  0.75654400  0.47927100  0.61855900  1
  C  1031  1  0.77701800  0.46230100  0.60316100  1
  C  1035  1  0.68998600  0.52974200  0.33014400  1
  C  1036  1  0.71335800  0.51512000  0.34563900  1
  C  1037  1  0.71447000  0.48459900  0.34615800  1
  C  1038  1  0.69172100  0.46888200  0.33066700  1
  C  1039  1  0.66940900  0.48363700  0.31417900  1
  C  1040  1  0.66855900  0.51364600  0.31392900  1
  C  1042  1  0.75792000  0.48714500  0.37819000  1
  C  1043  1  0.75676600  0.51737200  0.37776000  1
  C  1049  1  0.77730000  0.53432500  0.39314800  1
  C  1053  1  0.30643100  0.52980600  0.66624600  1
  C  1054  1  0.28303300  0.51517300  0.65077600  1
  C  1055  1  0.28192100  0.48465000  0.65023200  1
  C  1056  1  0.30471900  0.46894800  0.66566000  1
  C  1057  1  0.32701100  0.48369500  0.68218000  1
  C  1058  1  0.32788200  0.51370400  0.68241600  1
  C  1060  1  0.23842900  0.48719300  0.61824900  1
  C  1061  1  0.23956200  0.51742100  0.61872900  1
  C  1067  1  0.21907300  0.53441400  0.60336900  1
  C  1071  1  0.30668100  0.46687900  0.33024100  1
  C  1072  1  0.28333200  0.48149500  0.34577200  1
  C  1073  1  0.28221500  0.51201500  0.34630200  1
  C  1074  1  0.30494600  0.52773000  0.33079400  1
  C  1075  1  0.32726100  0.51299200  0.31429900  1
  C  1076  1  0.32809500  0.48298200  0.31401600  1
  C  1078  1  0.23878600  0.50945200  0.37835800  1
  C  1079  1  0.23994900  0.47922500  0.37792200  1
  C  1085  1  0.21943000  0.46226600  0.39331700  1
  C  1089  1  0.68519200  0.66801200  0.46925600  1
  C  1090  1  0.67452200  0.69268100  0.48389800  1
  C  1091  1  0.67579200  0.69444400  0.51431000  1
  C  1092  1  0.68738900  0.67061300  0.53011600  1
  C  1093  1  0.69945800  0.64670300  0.51519500  1
  C  1094  1  0.69854800  0.64548100  0.48515200  1
  C  1096  1  0.65303600  0.74140600  0.51163000  1
  C  1097  1  0.65132800  0.73942500  0.48149700  1
  C  1103  1  0.63897900  0.76094000  0.46444500  1
  C  1107  1  0.31140200  0.66809200  0.52716200  1
  C  1108  1  0.32207500  0.69277000  0.51252400  1
  C  1109  1  0.32077500  0.69454100  0.48211400  1
  C  1110  1  0.30915700  0.67071500  0.46629300  1
  C  1111  1  0.29712900  0.64678700  0.48123100  1
  C  1112  1  0.29801200  0.64556900  0.51127200  1
  C  1114  1  0.34352400  0.74152200  0.48479000  1
  C  1115  1  0.34527800  0.73952700  0.51491900  1
  C  1121  1  0.35760000  0.76111300  0.53192700  1
  C  1125  1  0.68512800  0.32856400  0.52705700  1
  C  1126  1  0.67452900  0.30387000  0.51240200  1
  C  1127  1  0.67586800  0.30210200  0.48199200  1
  C  1128  1  0.68745100  0.32595500  0.46619000  1
  C  1129  1  0.69945300  0.34988400  0.48113900  1
  C  1130  1  0.69846000  0.35112300  0.51117500  1
  C  1132  1  0.65320000  0.25508600  0.48464400  1
  C  1133  1  0.65143000  0.25707000  0.51477300  1
  C  1139  1  0.63909400  0.23552400  0.53180900  1
  C  1143  1  0.31131200  0.32861600  0.46933300  1
  C  1144  1  0.32192900  0.30393400  0.48398400  1
  C  1145  1  0.32057600  0.30215800  0.51439100  1
  C  1146  1  0.30897900  0.32599800  0.53019300  1
  C  1147  1  0.29700200  0.34992700  0.51524000  1
  C  1148  1  0.29789900  0.35113800  0.48519900  1
  C  1150  1  0.34325100  0.25515900  0.51174100  1
  C  1151  1  0.34506700  0.25716200  0.48161500  1
  C  1157  1  0.35738900  0.23557400  0.46462100  1
  C  1161  1  0.46626900  0.67817700  0.67944100  1
  C  1162  1  0.48249700  0.67528800  0.70571900  1
  C  1163  1  0.51549000  0.67484500  0.70650800  1
  C  1164  1  0.53227600  0.67736900  0.68037700  1
  C  1165  1  0.51598300  0.68128000  0.65442500  1
  C  1166  1  0.48357900  0.68163900  0.65397900  1
  C  1168  1  0.51335900  0.66943500  0.75765400  1
  C  1169  1  0.48068500  0.66974000  0.75690000  1
  C  1175  1  0.46262700  0.66722100  0.78137300  1
  C  1179  1  0.52985100  0.31860900  0.67924600  1
  C  1180  1  0.51369900  0.32144000  0.70557100  1
  C  1181  1  0.48070600  0.32188400  0.70644800  1
  C  1182  1  0.46385300  0.31942800  0.68035000  1
  C  1183  1  0.48006700  0.31554900  0.65435200  1
  C  1184  1  0.51246700  0.31515400  0.65382700  1
  C  1186  1  0.48299300  0.32716200  0.75760100  1
  C  1187  1  0.51566400  0.32686000  0.75676200  1
  C  1193  1  0.53379300  0.32931000  0.78119500  1
  C  1197  1  0.53021700  0.67809700  0.31705800  1
  C  1198  1  0.51399600  0.67525600  0.29076900  1
  C  1199  1  0.48100000  0.67479900  0.28996100  1
  C  1200  1  0.46421200  0.67725500  0.31609600  1
  C  1201  1  0.48048800  0.68114900  0.34205900  1
  C  1202  1  0.51289100  0.68149800  0.34251800  1
  C  1204  1  0.48315900  0.66951500  0.23880400  1
  C  1205  1  0.51583300  0.66983200  0.23957400  1
  C  1211  1  0.53390200  0.66738800  0.21510200  1
  C  1215  1  0.46654200  0.31848100  0.31710600  1
  C  1216  1  0.48270300  0.32130300  0.29078200  1
  C  1217  1  0.51569400  0.32171100  0.28990100  1
  C  1218  1  0.53254500  0.31922700  0.31599500  1
  C  1219  1  0.51632600  0.31543800  0.34200300  1
  C  1220  1  0.48392400  0.31505900  0.34253100  1
  C  1222  1  0.51341700  0.32701100  0.23875000  1
  C  1223  1  0.48074800  0.32671800  0.23958700  1
  C  1229  1  0.46266400  0.32924400  0.21512200  1
  N  663  1  0.19645800  0.21573900  0.27731500  1
  N  666  1  0.23263800  0.24691400  0.31236400  1
  N  681  1  0.19605500  0.78090500  0.71919700  1
  N  684  1  0.23220200  0.74972300  0.68414800  1
  N  699  1  0.80032100  0.78096400  0.27717600  1
  N  702  1  0.76421200  0.74973900  0.31224100  1
  N  717  1  0.79992900  0.21572400  0.71910900  1
  N  720  1  0.76377600  0.24690900  0.68406300  1
  N  735  1  0.78869600  0.27601000  0.20341500  1
  N  738  1  0.75403300  0.31006800  0.23724300  1
  N  753  1  0.78820500  0.72069000  0.79291500  1
  N  756  1  0.75357600  0.68659300  0.75907100  1
  N  771  1  0.20775100  0.27597000  0.79303100  1
  N  774  1  0.24235800  0.31006900  0.75917200  1
  N  789  1  0.20813100  0.72064900  0.20352100  1
  N  792  1  0.24276600  0.68657700  0.23736100  1
  N  807  1  0.23113600  0.02305400  0.12395500  1
  N  810  1  0.23034600  0.96564100  0.13176700  1
  N  825  1  0.23075600  0.97359900  0.87257200  1
  N  828  1  0.22991100  0.03101500  0.86480000  1
  N  843  1  0.76562700  0.97364200  0.12381200  1
  N  846  1  0.76648900  0.03105000  0.13163400  1
  N  861  1  0.76535100  0.02301400  0.87251200  1
  N  864  1  0.76618800  0.96560500  0.86468500  1
  N  879  1  0.16181300  0.22134200  0.02471600  1
  N  882  1  0.15990900  0.21595200  0.96714400  1
  N  897  1  0.83473100  0.22144900  0.97172300  1
  N  900  1  0.83665400  0.21604300  0.02929200  1
  N  915  1  0.16145500  0.77525800  0.97187100  1
  N  918  1  0.15975800  0.78064200  0.02944800  1
  N  933  1  0.83497700  0.77529200  0.02450400  1
  N  936  1  0.83671900  0.78070400  0.96693200  1
  N  951  1  0.02979500  0.17427600  0.23473300  1
  N  954  1  0.96721300  0.17339000  0.23272200  1
  N  969  1  0.96687000  0.82248500  0.23471400  1
  N  972  1  0.02945900  0.82333800  0.23280600  1
  N  987  1  0.96669400  0.17430200  0.76171500  1
  N  990  1  0.02927600  0.17341500  0.76374700  1
  N  1005  1  0.02952900  0.82233500  0.76165200  1
  N  1008  1  0.96694200  0.82320800  0.76354500  1
  N  1023  1  0.73654200  0.52471700  0.63354200  1
  N  1026  1  0.73411200  0.46680000  0.63468100  1
  N  1041  1  0.73681100  0.47190900  0.36274700  1
  N  1044  1  0.73432800  0.52982000  0.36163800  1
  N  1059  1  0.25956600  0.47195800  0.63364700  1
  N  1062  1  0.26203300  0.52987100  0.63481800  1
  N  1077  1  0.25987900  0.52469900  0.36290300  1
  N  1080  1  0.26237600  0.46678600  0.36177800  1
  N  1095  1  0.66506400  0.71912800  0.52685500  1
  N  1098  1  0.66224900  0.71511400  0.46918100  1
  N  1113  1  0.33148900  0.71923400  0.46956700  1
  N  1116  1  0.33435500  0.71520700  0.52723700  1
  N  1131  1  0.66520700  0.27739400  0.46943400  1
  N  1134  1  0.66227200  0.28141200  0.52710200  1
  N  1149  1  0.33122500  0.27745200  0.52694700  1
  N  1152  1  0.33420400  0.28149000  0.46928400  1
  N  1167  1  0.52951700  0.67196600  0.73272000  1
  N  1170  1  0.46692900  0.67273200  0.73091300  1
  N  1185  1  0.46675800  0.32470700  0.73270100  1
  N  1188  1  0.52933900  0.32393200  0.73073300  1
  N  1203  1  0.46698700  0.67196900  0.26373800  1
  N  1206  1  0.52957300  0.67276700  0.26557300  1
  N  1221  1  0.52964900  0.32453000  0.26365000  1
  N  1224  1  0.46706600  0.32381500  0.26562100  1
  O  669  1  0.16087000  0.20728500  0.31447900  1
  O  672  1  0.20581100  0.26212900  0.36336000  1
  O  673  1  0.20230100  0.21839000  0.36934300  1
  O  687  1  0.16048000  0.78937600  0.68203500  1
  O  690  1  0.20534900  0.73453200  0.63314400  1
  O  691  1  0.20193800  0.77827700  0.62717700  1
  O  705  1  0.83593100  0.78944600  0.31431200  1
  O  708  1  0.79111700  0.73454400  0.36321600  1
  O  709  1  0.79453400  0.77828900  0.36920200  1
  O  723  1  0.83549100  0.20724300  0.68193600  1
  O  726  1  0.79107300  0.26233600  0.63345200  1
  O  727  1  0.79343300  0.21852400  0.62699100  1
  O  741  1  0.81315500  0.31596800  0.18278800  1
  O  744  1  0.77260200  0.36596000  0.24004100  1
  O  745  1  0.76726700  0.36586400  0.19600600  1
  O  759  1  0.81272600  0.68076100  0.81350600  1
  O  762  1  0.77222000  0.63073600  0.75623300  1
  O  763  1  0.76689700  0.63079400  0.80026800  1
  O  777  1  0.18327100  0.31589400  0.81366700  1
  O  780  1  0.22373900  0.36593600  0.75638500  1
  O  781  1  0.22911500  0.36585000  0.80041600  1
  O  795  1  0.18363900  0.68070300  0.18290500  1
  O  798  1  0.22382800  0.63092900  0.24030700  1
  O  799  1  0.22987400  0.63075900  0.19628900  1
  O  813  1  0.27193900  0.01912700  0.09094200  1
  O  816  1  0.26274400  0.93464000  0.09233500  1
  O  817  1  0.30039800  0.95964400  0.10363200  1
  O  831  1  0.27157300  0.97756100  0.90557300  1
  O  834  1  0.26203800  0.06188100  0.90435500  1
  O  835  1  0.29993500  0.03730400  0.89267600  1
  O  849  1  0.72480600  0.97761600  0.09082100  1
  O  852  1  0.73409800  0.06209400  0.09223700  1
  O  853  1  0.69641900  0.03711800  0.10352800  1
  O  867  1  0.72453100  0.01902600  0.90550600  1
  O  870  1  0.73404500  0.93470700  0.90420700  1
  O  871  1  0.69615700  0.95930300  0.89254300  1
  O  885  1  0.14009900  0.26737000  0.02214300  1
  O  888  1  0.12391100  0.25503800  0.93929000  1
  O  889  1  0.15015400  0.28614200  0.95961100  1
  O  903  1  0.85643800  0.26749400  0.97430500  1
  O  906  1  0.87265600  0.25514400  0.05714800  1
  O  907  1  0.84640700  0.28623600  0.03684700  1
  O  921  1  0.13969800  0.72923500  0.97450800  1
  O  924  1  0.12380800  0.74157300  0.05740700  1
  O  925  1  0.14993300  0.71045600  0.03700700  1
  O  939  1  0.85667400  0.72925900  0.02185900  1
  O  942  1  0.87274000  0.74179700  0.93912500  1
  O  943  1  0.84622600  0.71062900  0.95912400  1
  O  957  1  0.02917900  0.16840800  0.28467700  1
  O  960  1  0.93825600  0.17929500  0.28444300  1
  O  961  1  0.96406200  0.14422700  0.29740900  1
  O  975  1  0.96739600  0.82826900  0.28466800  1
  O  978  1  0.05831100  0.81733700  0.28456500  1
  O  979  1  0.03249900  0.85239400  0.29755000  1
  O  993  1  0.96733100  0.16856200  0.71175600  1
  O  996  1  0.05826300  0.17944100  0.71205400  1
  O  997  1  0.03242900  0.14441400  0.69898300  1
  O  1011  1  0.02902600  0.82816600  0.71170200  1
  O  1014  1  0.93826000  0.81704800  0.71186300  1
  O  1015  1  0.96370600  0.85246100  0.69902200  1
  O  1029  1  0.77887300  0.52366700  0.60202900  1
  O  1032  1  0.76734600  0.43997900  0.59274400  1
  O  1033  1  0.80514400  0.46242400  0.60829700  1
  O  1047  1  0.77918600  0.47300500  0.39421100  1
  O  1050  1  0.76734800  0.55650800  0.40363700  1
  O  1051  1  0.80533400  0.53452800  0.38772200  1
  O  1065  1  0.21718000  0.47304800  0.60219800  1
  O  1068  1  0.22874200  0.55673900  0.59295600  1
  O  1069  1  0.19095500  0.53429600  0.60853500  1
  O  1083  1  0.21752900  0.52358600  0.39439700  1
  O  1086  1  0.22939400  0.44008500  0.40379800  1
  O  1087  1  0.19139300  0.46205500  0.38790200  1
  O  1101  1  0.64243700  0.76484500  0.52571700  1
  O  1104  1  0.62446700  0.75402000  0.44302900  1
  O  1105  1  0.65070500  0.78512200  0.46336100  1
  O  1119  1  0.35405300  0.76499600  0.47070700  1
  O  1122  1  0.37222700  0.75399100  0.55321500  1
  O  1123  1  0.34556700  0.78511500  0.53332900  1
  O  1137  1  0.64268300  0.23161700  0.47054400  1
  O  1140  1  0.62452800  0.24241300  0.55320000  1
  O  1141  1  0.65087900  0.21137600  0.53292000  1
  O  1155  1  0.35372400  0.23167700  0.52583500  1
  O  1158  1  0.37206200  0.24268700  0.44335700  1
  O  1159  1  0.34532200  0.21157700  0.46319600  1
  O  1173  1  0.52894500  0.66717800  0.78277500  1
  O  1176  1  0.43846300  0.68081800  0.78261900  1
  O  1177  1  0.46307500  0.64527300  0.79626600  1
  O  1191  1  0.46748100  0.32935900  0.78276900  1
  O  1194  1  0.55795800  0.31570500  0.78234400  1
  O  1195  1  0.53340000  0.35122100  0.79614600  1
  O  1209  1  0.46758500  0.66731700  0.21367000  1
  O  1212  1  0.55806700  0.68100000  0.21390300  1
  O  1213  1  0.53345700  0.64547800  0.20015000  1
  O  1227  1  0.52892900  0.32923500  0.21358600  1
  O  1230  1  0.43859500  0.31546000  0.21410300  1
  O  1231  1  0.46279900  0.35130500  0.20042800  1
