# generated using pymatgen
data_H10C13N3O2
_symmetry_space_group_name_H-M   'P 1'
_cell_length_a   32.79620000
_cell_length_b   32.79620000
_cell_length_c   32.79620000
_cell_angle_alpha   90.00000000
_cell_angle_beta   90.00000000
_cell_angle_gamma   90.00000000
_symmetry_Int_Tables_number   1
_chemical_formula_structural   H10C13N3O2
_chemical_formula_sum   'H480 C624 N144 O96'
_cell_volume   35275.28884484
_cell_formula_units_Z   48
loop_
 _symmetry_equiv_pos_site_id
 _symmetry_equiv_pos_as_xyz
  1  'x, y, z'
loop_
 _atom_site_type_symbol
 _atom_site_label
 _atom_site_symmetry_multiplicity
 _atom_site_fract_x
 _atom_site_fract_y
 _atom_site_fract_z
 _atom_site_occupancy
  H  7  1  0.16727400  0.35824900  0.44161900  1
  H  16  1  0.09468100  0.41230100  0.33299300  1
  H  17  1  0.23962700  0.47015900  0.28640100  1
  H  18  1  0.19943400  0.47097900  0.25674300  1
  H  19  1  0.05143500  0.24280800  0.43978000  1
  H  20  1  0.08022700  0.25106800  0.47899200  1
  H  21  1  0.08372400  0.34575100  0.34504600  1
  H  22  1  0.20076400  0.40307800  0.40336400  1
  H  29  1  0.34633300  0.65505800  0.94307700  1
  H  38  1  0.41870100  0.60085400  0.83434500  1
  H  39  1  0.27380300  0.54237700  0.78832100  1
  H  40  1  0.31388400  0.54131900  0.75857300  1
  H  41  1  0.46270000  0.76994100  0.94098800  1
  H  42  1  0.43403200  0.76172900  0.98031000  1
  H  43  1  0.42955300  0.66736800  0.84618400  1
  H  44  1  0.31270400  0.61018100  0.90494700  1
  H  51  1  0.84701100  0.85870100  0.07201800  1
  H  60  1  0.92083000  0.91261600  0.17938400  1
  H  61  1  0.77735600  0.97344600  0.22754300  1
  H  62  1  0.81838500  0.97628500  0.25567000  1
  H  63  1  0.96129200  0.74180300  0.07418900  1
  H  64  1  0.93321900  0.75084400  0.03460200  1
  H  65  1  0.93042300  0.84542800  0.16863700  1
  H  66  1  0.81292700  0.90226100  0.11167400  1
  H  73  1  0.66919400  0.15496800  0.57269200  1
  H  82  1  0.59329500  0.09811100  0.67797900  1
  H  83  1  0.73706800  0.04081700  0.72907300  1
  H  84  1  0.69554500  0.03713800  0.75651800  1
  H  85  1  0.53129700  0.23796000  0.55663800  1
  H  86  1  0.56636200  0.23876200  0.52163100  1
  H  87  1  0.58290400  0.16573500  0.66666667  1
  H  88  1  0.70167400  0.10956300  0.61161700  1
  H  95  1  0.44254600  0.16963900  0.35754200  1
  H  104  1  0.33594800  0.09469700  0.41406400  1
  H  105  1  0.28835900  0.23869700  0.47366800  1
  H  106  1  0.25997300  0.19772800  0.47654700  1
  H  107  1  0.45885500  0.03081200  0.27601800  1
  H  108  1  0.49401200  0.06579200  0.27541000  1
  H  109  1  0.34855300  0.08342400  0.34724200  1
  H  110  1  0.40481000  0.20160800  0.40386700  1
  H  117  1  0.93954000  0.34343600  0.65618000  1
  H  126  1  0.83300000  0.41871700  0.59990600  1
  H  127  1  0.78307300  0.27391600  0.54425300  1
  H  128  1  0.75430500  0.31468000  0.54224600  1
  H  129  1  0.95523700  0.47964100  0.74290400  1
  H  130  1  0.98991500  0.44434200  0.74322700  1
  H  131  1  0.84641600  0.43080000  0.66627000  1
  H  132  1  0.90141000  0.31159100  0.61008000  1
  H  139  1  0.07193700  0.84668700  0.85886000  1
  H  148  1  0.17855700  0.92046100  0.91362500  1
  H  149  1  0.22782500  0.77680100  0.97314700  1
  H  150  1  0.25558500  0.81806500  0.97652900  1
  H  151  1  0.07484700  0.96095700  0.74180600  1
  H  152  1  0.03549800  0.93238300  0.75017900  1
  H  153  1  0.16875700  0.92992900  0.84595300  1
  H  154  1  0.11196400  0.81202500  0.90179400  1
  H  161  1  0.57095700  0.66592800  0.15391000  1
  H  170  1  0.67770400  0.59162700  0.09978300  1
  H  171  1  0.72836600  0.73543700  0.04237600  1
  H  172  1  0.75627700  0.69417300  0.03963700  1
  H  173  1  0.57213400  0.55065900  0.27009200  1
  H  174  1  0.53323300  0.57987600  0.26187000  1
  H  175  1  0.66721200  0.58214700  0.16717000  1
  H  176  1  0.61075400  0.69988100  0.11012000  1
  H  183  1  0.35724600  0.43928300  0.16948600  1
  H  192  1  0.41296300  0.33260000  0.09411400  1
  H  193  1  0.46844500  0.28186900  0.23866600  1
  H  194  1  0.47030800  0.25330400  0.19771900  1
  H  195  1  0.27690500  0.45762400  0.03024300  1
  H  196  1  0.27646000  0.49257000  0.06543900  1
  H  197  1  0.34605900  0.34599500  0.08266500  1
  H  198  1  0.40303800  0.40059600  0.20143100  1
  H  205  1  0.65437800  0.94304600  0.34802500  1
  H  214  1  0.59913700  0.83538400  0.42061300  1
  H  215  1  0.53856000  0.78994300  0.27633900  1
  H  216  1  0.53548300  0.76117100  0.31694600  1
  H  217  1  0.77159000  0.93844800  0.46195000  1
  H  218  1  0.76337000  0.97807500  0.43371800  1
  H  219  1  0.66631300  0.84575700  0.43086400  1
  H  220  1  0.61027300  0.90467600  0.31376800  1
  H  227  1  0.85858200  0.07145100  0.84491000  1
  H  236  1  0.91265900  0.17893600  0.91840300  1
  H  237  1  0.97079000  0.22828500  0.77429500  1
  H  238  1  0.97255600  0.25686100  0.81513800  1
  H  239  1  0.74300500  0.07282500  0.96057900  1
  H  240  1  0.75200300  0.03328800  0.93246600  1
  H  241  1  0.84546500  0.16806600  0.92833400  1
  H  242  1  0.90230100  0.11108900  0.81071400  1
  H  249  1  0.15571100  0.57131100  0.66864800  1
  H  258  1  0.09875800  0.67791500  0.59371300  1
  H  259  1  0.03871000  0.72434400  0.73796400  1
  H  260  1  0.03612800  0.75310900  0.69726800  1
  H  261  1  0.23725900  0.55459800  0.52999800  1
  H  262  1  0.23869500  0.51993900  0.56543500  1
  H  263  1  0.16496200  0.66461700  0.58152800  1
  H  264  1  0.10827000  0.60795500  0.69994500  1
  H  271  1  0.10891900  0.39896700  0.81527200  1
  H  280  1  0.16501900  0.34463800  0.93519500  1
  H  281  1  0.22215600  0.49471600  0.95837400  1
  H  282  1  0.21989900  0.45932200  0.99349700  1
  H  283  1  0.05165700  0.24770000  0.81647000  1
  H  284  1  0.05354100  0.27635300  0.77547500  1
  H  285  1  0.09840700  0.33056300  0.92203800  1
  H  286  1  0.15708300  0.43650800  0.84692200  1
  H  293  1  0.40379100  0.61646500  0.31412800  1
  H  302  1  0.34506800  0.67008700  0.43303500  1
  H  303  1  0.29154500  0.51852100  0.45636100  1
  H  304  1  0.29276300  0.55380000  0.49159100  1
  H  305  1  0.45737400  0.76899800  0.31637200  1
  H  306  1  0.45607800  0.74048000  0.27528600  1
  H  307  1  0.41219100  0.68455300  0.42129300  1
  H  308  1  0.35561800  0.57817400  0.34518700  1
  H  315  1  0.60999500  0.11380300  0.19752000  1
  H  324  1  0.66624600  0.16726400  0.07762900  1
  H  325  1  0.72916500  0.01798000  0.05873400  1
  H  326  1  0.73319900  0.05367800  0.02441800  1
  H  327  1  0.55033000  0.26442500  0.19650700  1
  H  328  1  0.55240900  0.23562300  0.23728400  1
  H  329  1  0.59975000  0.18243500  0.09072700  1
  H  330  1  0.65642700  0.07539400  0.16585300  1
  H  337  1  0.90531000  0.89744300  0.69857600  1
  H  346  1  0.84528800  0.84354400  0.58079000  1
  H  347  1  0.78583000  0.99393900  0.55991900  1
  H  348  1  0.78064600  0.95783800  0.52610700  1
  H  349  1  0.95675800  0.74433100  0.69660300  1
  H  350  1  0.95607800  0.77296200  0.73766200  1
  H  351  1  0.91275300  0.82911800  0.59152300  1
  H  352  1  0.85853000  0.93670700  0.66701400  1
  H  359  1  0.89586400  0.69895100  0.90403300  1
  H  368  1  0.84189700  0.58015300  0.84544900  1
  H  369  1  0.99374700  0.55569900  0.79381500  1
  H  370  1  0.95840500  0.52052700  0.79613300  1
  H  371  1  0.74416000  0.69546500  0.95997800  1
  H  372  1  0.77227600  0.73684800  0.95836500  1
  H  373  1  0.82853000  0.59145300  0.91289000  1
  H  374  1  0.93375900  0.66799300  0.85499600  1
  H  381  1  0.11570600  0.19774900  0.60787900  1
  H  390  1  0.16875300  0.07866200  0.66644400  1
  H  391  1  0.01868600  0.05906900  0.72678000  1
  H  392  1  0.05440700  0.02474100  0.73126200  1
  H  393  1  0.26890400  0.19626800  0.55593400  1
  H  394  1  0.24019200  0.23722200  0.55711400  1
  H  395  1  0.18409300  0.09078700  0.59978400  1
  H  396  1  0.07688500  0.16662800  0.65528400  1
  H  403  1  0.61341900  0.31430500  0.40441000  1
  H  412  1  0.66691300  0.43364500  0.34697000  1
  H  413  1  0.51793900  0.45184900  0.28310000  1
  H  414  1  0.55372300  0.48600200  0.27846800  1
  H  415  1  0.76441300  0.31611900  0.46280100  1
  H  416  1  0.73573200  0.27521600  0.46121200  1
  H  417  1  0.68182100  0.42136600  0.41372200  1
  H  418  1  0.57458500  0.34598900  0.35827700  1
  H  425  1  0.39780600  0.81621400  0.10912500  1
  H  434  1  0.34492400  0.93653600  0.16586900  1
  H  435  1  0.49586900  0.95911200  0.22073700  1
  H  436  1  0.46069400  0.99448800  0.21863400  1
  H  437  1  0.24515300  0.81844000  0.05548200  1
  H  438  1  0.27351400  0.77727400  0.05731500  1
  H  439  1  0.33034000  0.92355900  0.09934100  1
  H  440  1  0.43586800  0.84746200  0.15756800  1
  H  447  1  0.19895500  0.60916900  0.11384100  1
  H  456  1  0.08086800  0.66716000  0.16893400  1
  H  457  1  0.05895800  0.72713100  0.01883200  1
  H  458  1  0.02511200  0.73155800  0.05502000  1
  H  459  1  0.19809900  0.55010100  0.26441400  1
  H  460  1  0.23888100  0.55165900  0.23545300  1
  H  461  1  0.09253600  0.59979600  0.18317500  1
  H  462  1  0.16704300  0.65572000  0.07545800  1
  H  469  1  0.69861800  0.90444100  0.89745900  1
  H  478  1  0.57818300  0.84687600  0.84570600  1
  H  479  1  0.56181900  0.78287800  0.99451600  1
  H  480  1  0.52708600  0.77904200  0.95924300  1
  H  481  1  0.69551100  0.95740500  0.74459000  1
  H  482  1  0.73671100  0.95600800  0.77288600  1
  H  483  1  0.59090800  0.91278100  0.83029800  1
  H  484  1  0.66819100  0.85634100  0.93590500  1
  H  491  1  0.81561700  0.10816900  0.39819300  1
  H  500  1  0.93465500  0.16659300  0.34556500  1
  H  501  1  0.95289800  0.22952600  0.49493600  1
  H  502  1  0.98713400  0.23424300  0.45922100  1
  H  503  1  0.81961100  0.05503800  0.24564900  1
  H  504  1  0.77815800  0.05633600  0.27361100  1
  H  505  1  0.92380300  0.09908600  0.33173700  1
  H  506  1  0.84701400  0.15472300  0.43773700  1
  H  513  1  0.31551600  0.40330300  0.61500500  1
  H  522  1  0.43342300  0.34556500  0.67093500  1
  H  523  1  0.46011500  0.29326700  0.51941400  1
  H  524  1  0.49463700  0.29463200  0.55544000  1
  H  525  1  0.31492100  0.46275800  0.76542200  1
  H  526  1  0.27438200  0.46108400  0.73612000  1
  H  527  1  0.42129900  0.41321600  0.68521700  1
  H  528  1  0.34808900  0.35703000  0.57679300  1
  H  536  1  0.28943700  0.43056900  0.37254700  1
  H  541  1  0.26745700  0.65277100  0.37666300  1
  H  542  1  0.21897800  0.65759200  0.35302300  1
  H  543  1  0.30164900  0.65968700  0.30978900  1
  H  544  1  0.26874500  0.70179200  0.31848200  1
  H  545  1  0.25361000  0.66225700  0.28485300  1
  H  553  1  0.22428200  0.58311400  0.87456600  1
  H  558  1  0.24366300  0.36107000  0.87895900  1
  H  559  1  0.29205600  0.35517600  0.85539600  1
  H  560  1  0.20950300  0.35457500  0.81186600  1
  H  561  1  0.24105300  0.31163100  0.82140100  1
  H  562  1  0.25762000  0.35023300  0.78733000  1
  H  570  1  0.72573100  0.92981600  0.14129300  1
  H  575  1  0.80268200  0.14887700  0.17262000  1
  H  576  1  0.77072400  0.12408500  0.20906600  1
  H  577  1  0.74506300  0.19209900  0.15058500  1
  H  578  1  0.75425600  0.19785100  0.20361900  1
  H  579  1  0.71246400  0.16792900  0.18652100  1
  H  587  1  0.78913800  0.08270300  0.64144100  1
  H  592  1  0.71075400  0.86530200  0.67684700  1
  H  593  1  0.74173600  0.89122600  0.71333600  1
  H  594  1  0.76841600  0.82082200  0.65836100  1
  H  595  1  0.75799400  0.81740300  0.71137000  1
  H  596  1  0.80040500  0.84628500  0.69397100  1
  H  604  1  0.37562300  0.28965500  0.43062000  1
  H  609  1  0.34094500  0.21119800  0.64817900  1
  H  610  1  0.30500500  0.24293800  0.62241100  1
  H  611  1  0.36076200  0.26868000  0.69258400  1
  H  612  1  0.30769500  0.25863900  0.69645900  1
  H  613  1  0.32511400  0.30096700  0.66749600  1
  H  621  1  0.87033300  0.22297900  0.58357100  1
  H  626  1  0.84089400  0.30413000  0.36557300  1
  H  627  1  0.80309100  0.27272500  0.38901800  1
  H  628  1  0.86227200  0.24700400  0.32165000  1
  H  629  1  0.80954900  0.25741900  0.31512200  1
  H  630  1  0.82522100  0.21468500  0.34451000  1
  H  638  1  0.14242500  0.72446000  0.92989800  1
  H  643  1  0.17106100  0.80521900  0.14784300  1
  H  644  1  0.20919900  0.77453600  0.12398500  1
  H  645  1  0.15159200  0.74764200  0.19224500  1
  H  646  1  0.20412400  0.75943300  0.19800200  1
  H  647  1  0.18916100  0.71623600  0.16893500  1
  H  655  1  0.64062100  0.78696100  0.08274100  1
  H  660  1  0.63709000  0.76939500  0.86122600  1
  H  661  1  0.66231200  0.72210900  0.85377700  1
  H  662  1  0.70290800  0.80614600  0.85352700  1
  H  663  1  0.69252900  0.77557500  0.81007900  1
  H  664  1  0.72865500  0.75893600  0.84677300  1
  H  672  1  0.42892200  0.37062600  0.28943000  1
  H  677  1  0.64801800  0.33838100  0.21084800  1
  H  678  1  0.62314600  0.29992100  0.24028100  1
  H  679  1  0.69046500  0.35725200  0.27004500  1
  H  680  1  0.69659400  0.30482300  0.25806100  1
  H  681  1  0.66609600  0.31951000  0.30036300  1
  H  689  1  0.58287300  0.87446800  0.22585400  1
  H  694  1  0.35997800  0.87982200  0.24406300  1
  H  695  1  0.35453500  0.85557900  0.29221300  1
  H  696  1  0.35445300  0.81287600  0.20921800  1
  H  697  1  0.31130500  0.82175200  0.24067400  1
  H  698  1  0.35019000  0.78793100  0.25713700  1
  H  706  1  0.93042600  0.14241500  0.72255400  1
  H  711  1  0.14855100  0.16814900  0.80528600  1
  H  712  1  0.12695500  0.20647600  0.77319400  1
  H  713  1  0.19250500  0.14470700  0.74881600  1
  H  714  1  0.20093800  0.19714200  0.75935400  1
  H  715  1  0.17166700  0.18263000  0.71614200  1
  H  723  1  0.08095300  0.64163600  0.78912600  1
  H  728  1  0.85810600  0.63135400  0.76407100  1
  H  729  1  0.85433800  0.65500600  0.71548300  1
  H  730  1  0.84883100  0.69791700  0.79814200  1
  H  731  1  0.80806100  0.68873300  0.76369300  1
  H  732  1  0.84759300  0.72303600  0.75014600  1
  H  740  1  0.78032300  0.93130400  0.88454200  1
  H  745  1  0.76425400  0.14860700  0.85975600  1
  H  746  1  0.72849400  0.15506500  0.81957100  1
  H  747  1  0.82108400  0.16025300  0.80998200  1
  H  748  1  0.78712600  0.20229200  0.81225400  1
  H  749  1  0.78462500  0.16766300  0.77070600  1
  H  757  1  0.73537000  0.08134400  0.38758200  1
  H  762  1  0.75024300  0.86422000  0.36332600  1
  H  763  1  0.78415300  0.85753300  0.32162000  1
  H  764  1  0.69135200  0.85049900  0.31652200  1
  H  765  1  0.72621300  0.80918000  0.31795200  1
  H  766  1  0.72606400  0.84304700  0.27571100  1
  H  774  1  0.22923100  0.42728500  0.63516300  1
  H  779  1  0.24481700  0.64874000  0.64209000  1
  H  780  1  0.28470600  0.65608000  0.67802100  1
  H  781  1  0.19363100  0.65852200  0.69806000  1
  H  782  1  0.22587900  0.70157300  0.69228500  1
  H  783  1  0.23407900  0.66686800  0.73302500  1
  H  791  1  0.28534600  0.58469000  0.13570100  1
  H  796  1  0.26918200  0.36324100  0.14573800  1
  H  797  1  0.22808000  0.35683700  0.18047800  1
  H  798  1  0.31842400  0.35660000  0.20378000  1
  H  799  1  0.28698500  0.31285100  0.19877600  1
  H  800  1  0.27689600  0.34913500  0.23767900  1
  H  808  1  0.88489600  0.77997200  0.93203900  1
  H  813  1  0.86207300  0.76283900  0.14978500  1
  H  814  1  0.82088300  0.72821600  0.15609400  1
  H  815  1  0.81412600  0.82096500  0.16259500  1
  H  816  1  0.81563200  0.78635700  0.20412800  1
  H  817  1  0.77380700  0.78561300  0.16975200  1
  H  825  1  0.38573700  0.73439700  0.08263900  1
  H  830  1  0.36193900  0.74977400  0.86489700  1
  H  831  1  0.32104400  0.78475000  0.85859700  1
  H  832  1  0.31331700  0.69205000  0.85256600  1
  H  833  1  0.31505200  0.72643600  0.81085700  1
  H  834  1  0.27336300  0.72779900  0.84537300  1
  H  842  1  0.63404100  0.22880300  0.42857400  1
  H  847  1  0.64475800  0.24435600  0.64956700  1
  H  848  1  0.68068300  0.28430300  0.65655800  1
  H  849  1  0.70100300  0.19327800  0.65818400  1
  H  850  1  0.69580400  0.22526000  0.70150600  1
  H  851  1  0.73598500  0.23377300  0.66623000  1
  H  859  1  0.12745700  0.27933800  0.58127500  1
  H  864  1  0.15112200  0.26270100  0.36422600  1
  H  865  1  0.19225800  0.22807100  0.35769100  1
  H  866  1  0.19899500  0.32075100  0.35043400  1
  H  867  1  0.19691500  0.28585100  0.30917600  1
  H  868  1  0.23916000  0.28529100  0.34303400  1
  H  876  1  0.93263300  0.88656700  0.77954500  1
  H  881  1  0.14937700  0.86316800  0.76070800  1
  H  882  1  0.15570100  0.82092800  0.72739900  1
  H  883  1  0.16508900  0.81758600  0.82005900  1
  H  884  1  0.20548200  0.81875700  0.78413400  1
  H  885  1  0.17204300  0.77621600  0.78592700  1
  H  893  1  0.08385200  0.37958100  0.72960700  1
  H  898  1  0.86375000  0.36942400  0.74725800  1
  H  899  1  0.85657000  0.33235600  0.78610400  1
  H  900  1  0.85187100  0.31518300  0.69457200  1
  H  901  1  0.80962800  0.32083300  0.72787800  1
  H  902  1  0.84368100  0.27921100  0.73413500  1
  H  910  1  0.43111700  0.62713700  0.23313700  1
  H  915  1  0.64831100  0.64697800  0.25424300  1
  H  916  1  0.65466200  0.69001100  0.28651300  1
  H  917  1  0.66666667  0.69053800  0.19410600  1
  H  918  1  0.70596400  0.68964500  0.23120000  1
  H  919  1  0.67342600  0.73273200  0.22724300  1
  H  927  1  0.58665400  0.13535500  0.28360500  1
  H  932  1  0.36492100  0.14585600  0.26959300  1
  H  933  1  0.35828000  0.18117000  0.22902500  1
  H  934  1  0.35833200  0.20317900  0.31968700  1
  H  935  1  0.31448800  0.19853500  0.28832500  1
  H  936  1  0.35066300  0.23764800  0.27867000  1
  H  944  1  0.02067000  0.18641800  0.35921600  1
  H  949  1  0.96232600  0.40961800  0.40287300  1
  H  950  1  0.95259300  0.38658800  0.35458700  1
  H  951  1  0.02151200  0.44697000  0.37294000  1
  H  952  1  0.97550100  0.45845300  0.34681800  1
  H  953  1  0.01131600  0.42438500  0.32475100  1
  H  961  1  0.49252400  0.82672500  0.86017700  1
  H  966  1  0.55111000  0.60325000  0.90323400  1
  H  967  1  0.56026100  0.62569800  0.85456300  1
  H  968  1  0.49121300  0.56599900  0.87459600  1
  H  969  1  0.53677300  0.55388200  0.84798000  1
  H  970  1  0.50090600  0.58794400  0.82600500  1
  H  978  1  0.99317400  0.68607100  0.15484300  1
  H  983  1  0.05384300  0.90791700  0.11122500  1
  H  984  1  0.06096300  0.88462500  0.15984000  1
  H  985  1  0.99479000  0.94722100  0.13899200  1
  H  986  1  0.04023900  0.95728000  0.16663900  1
  H  987  1  0.00262300  0.92444700  0.18753600  1
  H  995  1  0.52864400  0.32649500  0.64017900  1
  H  1000  1  0.45394300  0.10294700  0.62584500  1
  H  1001  1  0.44988200  0.12817700  0.67382900  1
  H  1002  1  0.51587400  0.06623700  0.65048800  1
  H  1003  1  0.47304300  0.05639000  0.68209500  1
  H  1004  1  0.51134600  0.09094100  0.69850200  1
  H  1012  1  0.37570900  0.03042800  0.18666900  1
  H  1017  1  0.38871000  0.95370600  0.41004200  1
  H  1018  1  0.34025000  0.95263600  0.38542600  1
  H  1019  1  0.36825300  0.01732100  0.44679900  1
  H  1020  1  0.33461800  0.97625100  0.45742200  1
  H  1021  1  0.31963800  0.01518700  0.42294600  1
  H  1029  1  0.87010200  0.48597100  0.82647500  1
  H  1034  1  0.89354700  0.55880900  0.60309800  1
  H  1035  1  0.84448900  0.56141300  0.62638700  1
  H  1036  1  0.87212300  0.49588400  0.56574900  1
  H  1037  1  0.84001900  0.53794700  0.55428700  1
  H  1038  1  0.82299000  0.49946700  0.58832500  1
  H  1046  1  0.15593200  0.99245100  0.68624800  1
  H  1051  1  0.11017400  0.05306400  0.90789300  1
  H  1052  1  0.15888600  0.06076000  0.88498800  1
  H  1053  1  0.13827900  0.99429300  0.94734900  1
  H  1054  1  0.16538200  0.04001400  0.95764900  1
  H  1055  1  0.18690400  0.00264500  0.92493700  1
  H  1063  1  0.65271400  0.51997200  0.32694400  1
  H  1068  1  0.60982700  0.46086500  0.10363700  1
  H  1069  1  0.65807100  0.45076300  0.12659200  1
  H  1070  1  0.64014800  0.51975000  0.06616100  1
  H  1071  1  0.66589500  0.47352800  0.05469800  1
  H  1072  1  0.68830000  0.50921200  0.08867400  1
  H  1080  1  0.18586900  0.37524500  0.02924500  1
  H  1085  1  0.41059700  0.38775300  0.95517600  1
  H  1086  1  0.38621000  0.33936000  0.95087000  1
  H  1087  1  0.44539000  0.36431400  0.01877200  1
  H  1088  1  0.45733700  0.33257900  0.97657500  1
  H  1089  1  0.42167700  0.31584800  0.01369500  1
  H  1097  1  0.82614200  0.85735300  0.49372800  1
  H  1102  1  0.60385400  0.90393800  0.55266500  1
  H  1103  1  0.62658900  0.85544800  0.56207200  1
  H  1104  1  0.56575500  0.87444400  0.49373200  1
  H  1105  1  0.55447900  0.84828800  0.53977000  1
  H  1106  1  0.58806600  0.82606000  0.50360800  1
  H  1114  1  0.68609200  0.15316900  0.99089300  1
  H  1119  1  0.90837500  0.11181500  0.05210600  1
  H  1120  1  0.88491400  0.16042500  0.05869100  1
  H  1121  1  0.94729400  0.13898400  0.99250300  1
  H  1122  1  0.95746600  0.16721300  0.03756700  1
  H  1123  1  0.92438200  0.18753800  0.99986100  1
  H  1131  1  0.32542800  0.63908100  0.52705200  1
  H  1136  1  0.10154800  0.62361900  0.45278500  1
  H  1137  1  0.12591200  0.67220700  0.45178100  1
  H  1138  1  0.06502400  0.64368500  0.51669500  1
  H  1139  1  0.05397700  0.67733500  0.47575100  1
  H  1140  1  0.08857600  0.69244400  0.51452100  1
  H  1148  1  0.94160100  0.28390000  0.88832600  1
  H  1153  1  0.14051400  0.23986200  0.84457400  1
  H  1154  1  0.16045700  0.19904100  0.87447700  1
  H  1155  1  0.17909400  0.28970900  0.88446300  1
  H  1156  1  0.21271400  0.25126700  0.86687300  1
  H  1157  1  0.19629200  0.25115600  0.91844300  1
  H  1165  1  0.56903900  0.73196100  0.39007900  1
  H  1170  1  0.37635800  0.77911900  0.33685600  1
  H  1171  1  0.35342500  0.81894000  0.36581100  1
  H  1172  1  0.33398700  0.72790500  0.37248000  1
  H  1173  1  0.30279400  0.76598600  0.35001000  1
  H  1174  1  0.31204900  0.76666000  0.40332800  1
  H  1182  1  0.44195700  0.22657300  0.12369400  1
  H  1187  1  0.64270000  0.27151500  0.16540300  1
  H  1188  1  0.65916900  0.31572300  0.13828600  1
  H  1189  1  0.68127200  0.22754900  0.11854300  1
  H  1190  1  0.71396500  0.26513500  0.13959000  1
  H  1191  1  0.69594700  0.27037500  0.08880300  1
  H  1199  1  0.06957200  0.78219500  0.62384700  1
  H  1204  1  0.87509000  0.73444000  0.67366700  1
  H  1205  1  0.85360600  0.69395600  0.64445000  1
  H  1206  1  0.83416500  0.78461300  0.63487900  1
  H  1207  1  0.80228000  0.74729200  0.65771100  1
  H  1208  1  0.81308600  0.74487100  0.60470500  1
  H  1216  1  0.78289000  0.62089300  0.07025700  1
  H  1221  1  0.73053400  0.67779600  0.88072800  1
  H  1222  1  0.69229700  0.64773400  0.85651200  1
  H  1223  1  0.78358600  0.64646300  0.83709200  1
  H  1224  1  0.74463300  0.66892300  0.80697500  1
  H  1225  1  0.74624000  0.61519100  0.81337900  1
  H  1233  1  0.23133200  0.12466100  0.44318300  1
  H  1238  1  0.27487600  0.16691300  0.64271800  1
  H  1239  1  0.31769000  0.13875400  0.66104100  1
  H  1240  1  0.22830800  0.12239000  0.68105500  1
  H  1241  1  0.26551900  0.14332200  0.71427300  1
  H  1242  1  0.26978400  0.09188600  0.69790200  1
  H  1250  1  0.72724400  0.38812200  0.57134400  1
  H  1255  1  0.77210900  0.34605000  0.37124800  1
  H  1256  1  0.81495800  0.37456800  0.35356000  1
  H  1257  1  0.72568200  0.39037800  0.33288600  1
  H  1258  1  0.76361100  0.37074500  0.29974100  1
  H  1259  1  0.76686100  0.42189400  0.31720500  1
  H  1267  1  0.28276800  0.89105800  0.94334500  1
  H  1272  1  0.23983000  0.84707200  0.14270900  1
  H  1273  1  0.19834100  0.87614200  0.16248400  1
  H  1274  1  0.28879100  0.88843600  0.18082200  1
  H  1275  1  0.25089800  0.87016300  0.21468900  1
  H  1276  1  0.24948000  0.92159900  0.19789500  1
  H  1284  1  0.12608100  0.44171600  0.22838800  1
  H  1289  1  0.17640200  0.63434900  0.27643200  1
  H  1290  1  0.14810500  0.65613500  0.31742400  1
  H  1291  1  0.13826700  0.67714300  0.22716000  1
  H  1292  1  0.16270300  0.70770800  0.26457300  1
  H  1293  1  0.10938900  0.69870100  0.26759700  1
  H  1301  1  0.62189600  0.06872300  0.78332600  1
  H  1306  1  0.66537700  0.86834800  0.74091300  1
  H  1307  1  0.63776400  0.84991600  0.69782900  1
  H  1308  1  0.62083200  0.83063400  0.78728400  1
  H  1309  1  0.63991000  0.79681300  0.74976800  1
  H  1310  1  0.58905400  0.81503400  0.74626100  1
  H  1318  1  0.89095500  0.94214400  0.28391200  1
  H  1323  1  0.84638200  0.13946300  0.23876400  1
  H  1324  1  0.87552900  0.15929500  0.19731800  1
  H  1325  1  0.88678700  0.17967900  0.28744700  1
  H  1326  1  0.86590000  0.21200000  0.24942100  1
  H  1327  1  0.91824200  0.19826300  0.24744000  1
  H  1335  1  0.38747800  0.57152100  0.72983800  1
  H  1340  1  0.33461200  0.38081600  0.77995400  1
  H  1341  1  0.36346000  0.35780700  0.81988500  1
  H  1342  1  0.37037600  0.33756400  0.72917400  1
  H  1343  1  0.34541800  0.30741700  0.76659600  1
  H  1344  1  0.39909500  0.31431400  0.76877000  1
  C  1  1  0.12737200  0.36091700  0.39057600  1
  C  2  1  0.14230700  0.34525100  0.42841000  1
  C  3  1  0.12485500  0.31116400  0.44883000  1
  C  4  1  0.09051100  0.29104500  0.43132200  1
  C  5  1  0.07582800  0.30409600  0.39247000  1
  C  6  1  0.09446000  0.33814900  0.37326900  1
  C  9  1  0.14655200  0.39504000  0.36815000  1
  C  10  1  0.18595100  0.41160000  0.37740400  1
  C  11  1  0.20611700  0.44028600  0.35180900  1
  C  12  1  0.18736500  0.45066200  0.31416500  1
  C  13  1  0.14482000  0.44388100  0.30940800  1
  C  14  1  0.12534100  0.41640800  0.33655800  1
  C  23  1  0.38609400  0.65226800  0.89192100  1
  C  24  1  0.37130000  0.66797400  0.92979500  1
  C  25  1  0.38893000  0.70202400  0.95011700  1
  C  26  1  0.42332700  0.72198400  0.93254500  1
  C  27  1  0.43778600  0.70894300  0.89361100  1
  C  28  1  0.41898800  0.67495400  0.87447400  1
  C  31  1  0.36690900  0.61805100  0.86966300  1
  C  32  1  0.32751400  0.60154000  0.87902400  1
  C  33  1  0.30739000  0.57274400  0.85353300  1
  C  34  1  0.32606300  0.56217500  0.81591200  1
  C  35  1  0.36857700  0.56903900  0.81107300  1
  C  36  1  0.38807300  0.59665500  0.83805500  1
  C  45  1  0.88681700  0.86079600  0.12315700  1
  C  46  1  0.87178500  0.84536400  0.08526600  1
  C  47  1  0.88897300  0.81112800  0.06485200  1
  C  48  1  0.92312300  0.79072400  0.08239900  1
  C  49  1  0.93788100  0.80357300  0.12129200  1
  C  50  1  0.91955900  0.83780200  0.14046500  1
  C  53  1  0.86817500  0.89526600  0.14546900  1
  C  54  1  0.82848100  0.91151500  0.13694900  1
  C  55  1  0.80911900  0.94092400  0.16235300  1
  C  56  1  0.82888000  0.95231600  0.19918100  1
  C  57  1  0.87146500  0.94524500  0.20318600  1
  C  58  1  0.89016500  0.91702800  0.17625800  1
  C  67  1  0.62655800  0.14943800  0.62139900  1
  C  68  1  0.64212700  0.16539100  0.58388500  1
  C  69  1  0.62184100  0.19608800  0.56085500  1
  C  70  1  0.58365100  0.21101100  0.57497300  1
  C  71  1  0.57099100  0.20177700  0.61546500  1
  C  72  1  0.59238000  0.17127700  0.63747400  1
  C  75  1  0.64621000  0.11648300  0.64502400  1
  C  76  1  0.68622700  0.10075900  0.63711700  1
  C  77  1  0.70578700  0.07205400  0.66315700  1
  C  78  1  0.68566600  0.06058500  0.69978900  1
  C  79  1  0.64286200  0.06671300  0.70293900  1
  C  80  1  0.62413400  0.09445400  0.67556100  1
  C  89  1  0.39388100  0.12699300  0.36357600  1
  C  90  1  0.43141900  0.14240600  0.34751000  1
  C  91  1  0.45455300  0.12178200  0.31713200  1
  C  92  1  0.44054200  0.08339300  0.30266000  1
  C  93  1  0.39995800  0.07097300  0.31176500  1
  C  94  1  0.37779100  0.09273200  0.34187800  1
  C  97  1  0.37024500  0.14696800  0.39633900  1
  C  98  1  0.37895300  0.18665100  0.41245100  1
  C  99  1  0.35340400  0.20656000  0.44134400  1
  C  100  1  0.31641800  0.18704700  0.45281500  1
  C  101  1  0.31215800  0.14444900  0.44599100  1
  C  102  1  0.33908800  0.12542000  0.41801800  1
  C  111  1  0.89104000  0.38629200  0.65058500  1
  C  112  1  0.92842600  0.37051300  0.66666667  1
  C  113  1  0.95132800  0.39039600  0.69769700  1
  C  114  1  0.93729300  0.42845600  0.71306200  1
  C  115  1  0.89725400  0.44190800  0.70293000  1
  C  116  1  0.87531600  0.42080500  0.67216400  1
  C  119  1  0.86718100  0.36643000  0.61785300  1
  C  120  1  0.87542600  0.32656300  0.60192100  1
  C  121  1  0.84907200  0.30640200  0.57392100  1
  C  122  1  0.81183600  0.32583700  0.56327300  1
  C  123  1  0.80810700  0.36858000  0.56938400  1
  C  124  1  0.83582000  0.38790800  0.59639000  1
  C  133  1  0.12316000  0.88635700  0.86105200  1
  C  134  1  0.08532300  0.87136700  0.84547700  1
  C  135  1  0.06515300  0.88849100  0.81107300  1
  C  136  1  0.08285400  0.92255300  0.79064700  1
  C  137  1  0.12162300  0.93737800  0.80380700  1
  C  138  1  0.14062300  0.91907700  0.83814700  1
  C  141  1  0.14532100  0.86762900  0.89555000  1
  C  142  1  0.13704500  0.82771000  0.91136300  1
  C  143  1  0.16249600  0.80826500  0.94067700  1
  C  144  1  0.19907800  0.82826800  0.95244400  1
  C  145  1  0.20256900  0.87098900  0.94600700  1
  C  146  1  0.17570600  0.88972300  0.91775400  1
  C  155  1  0.62181400  0.62580500  0.15171400  1
  C  156  1  0.58405300  0.64104400  0.16720200  1
  C  157  1  0.56364500  0.62394500  0.20147400  1
  C  158  1  0.58095800  0.58963300  0.22183400  1
  C  159  1  0.61974600  0.57467700  0.20889400  1
  C  160  1  0.63900800  0.59299300  0.17470800  1
  C  163  1  0.64428900  0.64450200  0.11740300  1
  C  164  1  0.63612600  0.68429300  0.10118100  1
  C  165  1  0.66207400  0.70371600  0.07227000  1
  C  166  1  0.69907300  0.68384800  0.06162900  1
  C  167  1  0.70247200  0.64112400  0.06809000  1
  C  168  1  0.67498400  0.62238100  0.09569200  1
  C  177  1  0.36286900  0.39086000  0.12652100  1
  C  178  1  0.34722400  0.42851400  0.14210300  1
  C  179  1  0.31726900  0.45221400  0.12147000  1
  C  180  1  0.30282300  0.43862100  0.08291500  1
  C  181  1  0.31141400  0.39799500  0.07027900  1
  C  182  1  0.34110400  0.37527900  0.09206700  1
  C  185  1  0.39505500  0.36650000  0.14657200  1
  C  186  1  0.41106000  0.37458300  0.18642500  1
  C  187  1  0.43906700  0.34811400  0.20642900  1
  C  188  1  0.44952500  0.31088700  0.18686100  1
  C  189  1  0.44341200  0.30731000  0.14409500  1
  C  190  1  0.41645400  0.33520100  0.12494800  1
  C  199  1  0.65161600  0.89164700  0.38745700  1
  C  200  1  0.66756900  0.92939800  0.37265300  1
  C  201  1  0.70214000  0.94916900  0.38985000  1
  C  202  1  0.72244700  0.93113000  0.42380600  1
  C  203  1  0.70889700  0.89245200  0.43852400  1
  C  204  1  0.67435600  0.87386100  0.42013100  1
  C  207  1  0.61687700  0.86998000  0.36853100  1
  C  208  1  0.60074100  0.87929800  0.32897100  1
  C  209  1  0.57119500  0.85447200  0.30913100  1
  C  210  1  0.55934600  0.81749500  0.32831300  1
  C  211  1  0.56616400  0.81283600  0.37087300  1
  C  212  1  0.59476200  0.83907400  0.39000600  1
  C  221  1  0.86083800  0.12254300  0.88475900  1
  C  222  1  0.84544900  0.08458400  0.86985800  1
  C  223  1  0.81152200  0.06396900  0.88741800  1
  C  224  1  0.79135200  0.08140600  0.92176600  1
  C  225  1  0.80400300  0.12045500  0.93626800  1
  C  226  1  0.83797000  0.13979500  0.91763500  1
  C  229  1  0.89502800  0.14504900  0.86582700  1
  C  230  1  0.91122200  0.13659400  0.82609000  1
  C  231  1  0.94004300  0.16246300  0.80642100  1
  C  232  1  0.95089500  0.19952700  0.82602600  1
  C  233  1  0.94444000  0.20324000  0.86871400  1
  C  234  1  0.91674100  0.17596200  0.88767400  1
  C  243  1  0.14920300  0.61961800  0.62566500  1
  C  244  1  0.16559000  0.58232700  0.64131600  1
  C  245  1  0.19622200  0.55937600  0.62089300  1
  C  246  1  0.21063900  0.57320100  0.58241900  1
  C  247  1  0.20093000  0.61348900  0.56946900  1
  C  248  1  0.17062100  0.63553500  0.59112100  1
  C  251  1  0.11628700  0.64306600  0.64567900  1
  C  252  1  0.09995400  0.63402800  0.68522000  1
  C  253  1  0.07116900  0.65958300  0.70528100  1
  C  254  1  0.05987400  0.69678000  0.68615300  1
  C  255  1  0.06692600  0.70141400  0.64361800  1
  C  256  1  0.09479500  0.67452400  0.62439900  1
  C  265  1  0.11741700  0.36446600  0.86982700  1
  C  266  1  0.10187300  0.37233600  0.82969200  1
  C  267  1  0.07518600  0.34489100  0.80905200  1
  C  268  1  0.06707600  0.30678900  0.82802700  1
  C  269  1  0.07094800  0.30396900  0.87102900  1
  C  270  1  0.09595300  0.33295400  0.89106500  1
  C  273  1  0.14843800  0.38938100  0.89093300  1
  C  274  1  0.16487200  0.42676600  0.87540700  1
  C  275  1  0.19243700  0.45155900  0.89803800  1
  C  276  1  0.20323200  0.43903900  0.93802100  1
  C  277  1  0.19704300  0.39772600  0.94941600  1
  C  278  1  0.16906400  0.37421100  0.92634300  1
  C  287  1  0.39418900  0.65068300  0.36867700  1
  C  288  1  0.41033500  0.64313900  0.32870000  1
  C  289  1  0.43708500  0.67096300  0.30861200  1
  C  290  1  0.44389000  0.70926900  0.32770300  1
  C  291  1  0.43974300  0.71183600  0.37067400  1
  C  292  1  0.41501200  0.68236000  0.39033500  1
  C  295  1  0.36311900  0.62541200  0.38929200  1
  C  296  1  0.34746700  0.58773900  0.37363200  1
  C  297  1  0.32024800  0.56239800  0.39608600  1
  C  298  1  0.30921000  0.57468300  0.43607500  1
  C  299  1  0.31440300  0.61613000  0.44749100  1
  C  300  1  0.34184800  0.64031600  0.42443400  1
  C  309  1  0.61827000  0.14806700  0.14277100  1
  C  310  1  0.60289100  0.14033900  0.18297700  1
  C  311  1  0.57615900  0.16770100  0.20357800  1
  C  312  1  0.56759400  0.20572000  0.18468700  1
  C  313  1  0.57200000  0.20888800  0.14173600  1
  C  314  1  0.59715200  0.17995000  0.12167700  1
  C  317  1  0.64937200  0.12289100  0.12196500  1
  C  318  1  0.66505900  0.08525800  0.13766900  1
  C  319  1  0.69362100  0.06065700  0.11610200  1
  C  320  1  0.70654300  0.07354100  0.07685100  1
  C  321  1  0.70008800  0.11485000  0.06508500  1
  C  322  1  0.67065500  0.13789000  0.08689500  1
  C  331  1  0.89523300  0.86327200  0.64407800  1
  C  332  1  0.91154900  0.87069300  0.68401000  1
  C  333  1  0.93797600  0.84260800  0.70415600  1
  C  334  1  0.94414100  0.80413100  0.68516900  1
  C  335  1  0.93982900  0.80140200  0.64219700  1
  C  336  1  0.91561900  0.83128300  0.62248100  1
  C  339  1  0.86406400  0.88860700  0.62365200  1
  C  340  1  0.84924000  0.92666900  0.63908700  1
  C  341  1  0.82075400  0.95144100  0.61759700  1
  C  342  1  0.80712500  0.93819500  0.57866200  1
  C  343  1  0.81263800  0.89659000  0.56742300  1
  C  344  1  0.84180600  0.87330300  0.58932500  1
  C  353  1  0.86172900  0.64436200  0.89453800  1
  C  354  1  0.86930900  0.68426900  0.91083500  1
  C  355  1  0.84174500  0.70411600  0.93806400  1
  C  356  1  0.80363100  0.68473600  0.94526600  1
  C  357  1  0.80121600  0.64177300  0.94085400  1
  C  358  1  0.83052400  0.62242300  0.91573200  1
  C  361  1  0.88680500  0.62373800  0.86336000  1
  C  362  1  0.92428800  0.63939200  0.84727000  1
  C  363  1  0.94956200  0.61660000  0.82026100  1
  C  364  1  0.93743600  0.57631700  0.81021700  1
  C  365  1  0.89592500  0.56506900  0.81520800  1
  C  366  1  0.87173900  0.58854400  0.84227800  1
  C  375  1  0.14985900  0.14319100  0.61769400  1
  C  376  1  0.14248400  0.18323800  0.60164700  1
  C  377  1  0.17065600  0.20356000  0.57546100  1
  C  378  1  0.20912800  0.18465800  0.56910300  1
  C  379  1  0.21178900  0.14166600  0.57304600  1
  C  380  1  0.18194300  0.12176600  0.59720400  1
  C  383  1  0.12433600  0.12265100  0.64870700  1
  C  384  1  0.08660800  0.13843800  0.66409600  1
  C  385  1  0.06170700  0.11684000  0.69241600  1
  C  386  1  0.07448400  0.07754500  0.70539300  1
  C  387  1  0.11592400  0.06594700  0.69954500  1
  C  388  1  0.13925100  0.08776700  0.67036800  1
  C  397  1  0.64753600  0.36909500  0.39568700  1
  C  398  1  0.63991000  0.32898400  0.41139300  1
  C  399  1  0.66740700  0.30863400  0.43819800  1
  C  400  1  0.70545100  0.32766300  0.44632700  1
  C  401  1  0.70843000  0.37060700  0.44178300  1
  C  402  1  0.67938100  0.39043600  0.41659700  1
  C  405  1  0.62243600  0.38960300  0.36433800  1
  C  406  1  0.58467800  0.37389400  0.34901900  1
  C  407  1  0.56021800  0.39507400  0.32006200  1
  C  408  1  0.57334800  0.43396500  0.30626400  1
  C  409  1  0.61466000  0.44573800  0.31271900  1
  C  410  1  0.63755300  0.42432100  0.34256100  1
  C  419  1  0.36385400  0.87101300  0.11814400  1
  C  420  1  0.37113500  0.83078000  0.10253700  1
  C  421  1  0.34311900  0.81046700  0.07615400  1
  C  422  1  0.30488700  0.82968200  0.06918400  1
  C  423  1  0.30253500  0.87272100  0.07285000  1
  C  424  1  0.33229500  0.89254300  0.09705900  1
  C  427  1  0.38920100  0.89194000  0.14892400  1
  C  428  1  0.42657400  0.87616000  0.16514000  1
  C  429  1  0.45187000  0.89877300  0.19229200  1
  C  430  1  0.43982600  0.93900600  0.20271900  1
  C  431  1  0.39851600  0.95062900  0.19702900  1
  C  432  1  0.37449200  0.92753200  0.16954900  1
  C  441  1  0.14457000  0.61788300  0.14856000  1
  C  442  1  0.18451500  0.60205500  0.14043400  1
  C  443  1  0.20513500  0.57517700  0.16763100  1
  C  444  1  0.18629900  0.56658100  0.20568400  1
  C  445  1  0.14338400  0.57119200  0.20905600  1
  C  446  1  0.12342900  0.59677400  0.18042100  1
  C  449  1  0.12379400  0.64915500  0.12361200  1
  C  450  1  0.13905700  0.66457800  0.08569000  1
  C  451  1  0.11717800  0.69296500  0.06117600  1
  C  452  1  0.07804500  0.70586000  0.07446600  1
  C  453  1  0.06697800  0.69997200  0.11606400  1
  C  454  1  0.08926300  0.67092300  0.13916900  1
  C  463  1  0.64367900  0.89474800  0.86388500  1
  C  464  1  0.68381500  0.91078000  0.87086700  1
  C  465  1  0.70383800  0.93710300  0.84259900  1
  C  466  1  0.68447000  0.94365300  0.80437500  1
  C  467  1  0.64145900  0.93954300  0.80217900  1
  C  468  1  0.62190200  0.91534500  0.83215500  1
  C  471  1  0.62340500  0.86352500  0.88932700  1
  C  472  1  0.63989800  0.84753800  0.92647100  1
  C  473  1  0.61878000  0.81886400  0.95132500  1
  C  474  1  0.57943700  0.80563700  0.93890600  1
  C  475  1  0.56691100  0.81244900  0.89790700  1
  C  476  1  0.58803800  0.84233300  0.87486100  1
  C  485  1  0.87082400  0.11730400  0.36489600  1
  C  486  1  0.83062500  0.10144100  0.37181500  1
  C  487  1  0.81080800  0.07480900  0.34370500  1
  C  488  1  0.83032000  0.06816800  0.30559100  1
  C  489  1  0.87335800  0.07198700  0.30356700  1
  C  490  1  0.89280300  0.09641700  0.33346900  1
  C  493  1  0.89090900  0.14875800  0.39014900  1
  C  494  1  0.87495300  0.16408400  0.42780600  1
  C  495  1  0.89601900  0.19310800  0.45233000  1
  C  496  1  0.93503000  0.20676000  0.43937100  1
  C  497  1  0.94684200  0.20051200  0.39804000  1
  C  498  1  0.92546800  0.17076100  0.37502300  1
  C  507  1  0.36961900  0.39490600  0.65021300  1
  C  508  1  0.32965400  0.41048400  0.64174300  1
  C  509  1  0.30875300  0.43745100  0.66863300  1
  C  510  1  0.32724900  0.44619500  0.70682300  1
  C  511  1  0.37012900  0.44160000  0.71067200  1
  C  512  1  0.39041200  0.41609700  0.68222900  1
  C  515  1  0.39089900  0.36399400  0.62530800  1
  C  516  1  0.37628200  0.34884600  0.58702300  1
  C  517  1  0.39923900  0.32172700  0.56206000  1
  C  518  1  0.43884700  0.31042000  0.57526800  1
  C  519  1  0.44926300  0.31529600  0.61705100  1
  C  520  1  0.42555000  0.34247300  0.64094400  1
  C  529  1  0.29449400  0.53194300  0.37765400  1
  C  531  1  0.27872800  0.45980100  0.37267800  1
  C  532  1  0.23697000  0.46798200  0.36619200  1
  C  534  1  0.25237000  0.54036800  0.37088200  1
  C  535  1  0.23578700  0.57935100  0.37030500  1
  C  539  1  0.25006300  0.64619400  0.34901000  1
  C  540  1  0.26986200  0.66899000  0.31310100  1
  C  546  1  0.21843000  0.48183100  0.87967600  1
  C  548  1  0.23474200  0.55379000  0.87466600  1
  C  549  1  0.27640300  0.54525000  0.86801000  1
  C  551  1  0.26043300  0.47297600  0.87275800  1
  C  552  1  0.27665600  0.43382800  0.87209900  1
  C  556  1  0.26118700  0.36711300  0.85127300  1
  C  557  1  0.24097400  0.34438200  0.81554700  1
  C  563  1  0.71939200  0.03114200  0.13604000  1
  C  565  1  0.73600400  0.95920700  0.14133300  1
  C  566  1  0.77755700  0.96801300  0.14828900  1
  C  568  1  0.76136600  0.04019000  0.14324500  1
  C  569  1  0.77988100  0.07825400  0.14326400  1
  C  573  1  0.77154400  0.13886700  0.17915500  1
  C  574  1  0.74390700  0.17673400  0.18006600  1
  C  580  1  0.79529700  0.98126400  0.63746500  1
  C  582  1  0.77882300  0.05333400  0.64201700  1
  C  583  1  0.73731800  0.04470600  0.64948100  1
  C  585  1  0.75336200  0.97249200  0.64513900  1
  C  586  1  0.73474400  0.93454500  0.64572800  1
  C  590  1  0.74173900  0.87537100  0.68397600  1
  C  591  1  0.76904700  0.83741500  0.68717800  1
  C  597  1  0.38092300  0.29549900  0.53197400  1
  C  599  1  0.37553500  0.27923700  0.45995900  1
  C  600  1  0.36787500  0.23777000  0.46859700  1
  C  602  1  0.37343100  0.25356300  0.54078600  1
  C  603  1  0.37208300  0.23500600  0.57873800  1
  C  607  1  0.33440500  0.24234400  0.63820300  1
  C  608  1  0.33178300  0.26955700  0.67625300  1
  C  614  1  0.87578200  0.21825200  0.48219700  1
  C  616  1  0.87012900  0.23368500  0.55433900  1
  C  617  1  0.86293900  0.27533700  0.54620100  1
  C  619  1  0.86814400  0.26030300  0.47383300  1
  C  620  1  0.86839400  0.27946000  0.43612100  1
  C  624  1  0.83330800  0.27300900  0.37485200  1
  C  625  1  0.83248800  0.24615100  0.33644500  1
  C  631  1  0.13661700  0.71872400  0.03126800  1
  C  633  1  0.14209700  0.73496100  0.95920400  1
  C  634  1  0.14838000  0.77668500  0.96771700  1
  C  636  1  0.14320800  0.76089700  0.03995600  1
  C  637  1  0.14314500  0.77969500  0.07786600  1
  C  641  1  0.17918200  0.77421900  0.13856100  1
  C  642  1  0.18118800  0.74752300  0.17702900  1
  C  648  1  0.63873900  0.79364800  0.98126700  1
  C  650  1  0.64168200  0.77675900  0.05334600  1
  C  651  1  0.64876800  0.73520800  0.04468500  1
  C  653  1  0.64646600  0.75178000  0.97237300  1
  C  654  1  0.64751500  0.73564100  0.93315500  1
  C  658  1  0.66562100  0.75291700  0.86611000  1
  C  659  1  0.69974300  0.77488300  0.84255600  1
  C  665  1  0.53029400  0.37480600  0.29506300  1
  C  667  1  0.45825800  0.36980200  0.27903500  1
  C  668  1  0.46672800  0.36178000  0.23760900  1
  C  670  1  0.53902600  0.36638700  0.25323900  1
  C  671  1  0.57698500  0.36595100  0.23445100  1
  C  675  1  0.63769700  0.32993500  0.24141900  1
  C  676  1  0.67523700  0.32768500  0.26942100  1
  C  682  1  0.48169700  0.88036200  0.21873800  1
  C  684  1  0.55344000  0.87507200  0.23598600  1
  C  685  1  0.54438100  0.86923900  0.27766300  1
  C  687  1  0.47230800  0.87416600  0.26073700  1
  C  688  1  0.43298100  0.87360200  0.27653000  1
  C  692  1  0.36642100  0.85200200  0.26125100  1
  C  693  1  0.34411300  0.81621400  0.24067800  1
  C  699  1  0.03186900  0.13654200  0.71807200  1
  C  701  1  0.95960300  0.14215500  0.73340300  1
  C  702  1  0.96761600  0.14859000  0.77520300  1
  C  704  1  0.04005200  0.14322300  0.76033300  1
  C  705  1  0.07765400  0.14250000  0.77975000  1
  C  709  1  0.14005700  0.17579700  0.77394400  1
  C  710  1  0.17891200  0.17506000  0.74773400  1
  C  716  1  0.97971500  0.63452800  0.79383100  1
  C  718  1  0.05180100  0.64030700  0.77827400  1
  C  719  1  0.04369900  0.64500500  0.73625100  1
  C  721  1  0.97136400  0.63951400  0.75145700  1
  C  722  1  0.93255400  0.63908700  0.73459500  1
  C  726  1  0.86472300  0.65913800  0.74691100  1
  C  727  1  0.84071700  0.69461800  0.76602900  1
  C  733  1  0.79169300  0.03083300  0.86655600  1
  C  735  1  0.77278200  0.95948400  0.87366900  1
  C  736  1  0.73548200  0.96594800  0.85323400  1
  C  738  1  0.75409100  0.03787200  0.84602900  1
  C  739  1  0.73891900  0.07619200  0.83572900  1
  C  743  1  0.75914400  0.14420500  0.82710300  1
  C  744  1  0.79010500  0.17033100  0.80342000  1
  C  750  1  0.72208400  0.98213000  0.36891800  1
  C  752  1  0.74214500  0.05323500  0.37604700  1
  C  753  1  0.77863400  0.04654500  0.35428800  1
  C  755  1  0.75898200  0.97485200  0.34719600  1
  C  756  1  0.77363300  0.93645400  0.33629800  1
  C  760  1  0.75371000  0.86805900  0.33039200  1
  C  761  1  0.72218200  0.84090600  0.30869200  1
  C  767  1  0.21963000  0.52832400  0.64119400  1
  C  769  1  0.23799100  0.45661700  0.64082500  1
  C  770  1  0.27738900  0.46538400  0.65568000  1
  C  772  1  0.25933900  0.53756900  0.65616200  1
  C  773  1  0.27425900  0.57681700  0.66260200  1
  C  777  1  0.25370600  0.64441400  0.67392600  1
  C  778  1  0.22485800  0.66950200  0.70115500  1
  C  784  1  0.29402300  0.48352300  0.14159700  1
  C  786  1  0.27621000  0.55541900  0.14108300  1
  C  787  1  0.23640300  0.54696600  0.15501000  1
  C  789  1  0.25391200  0.47468400  0.15576700  1
  C  790  1  0.23855200  0.43554200  0.16176500  1
  C  794  1  0.25906000  0.36875700  0.17702400  1
  C  795  1  0.28726000  0.34528100  0.20628800  1
  C  801  1  0.86791600  0.79147700  0.03172700  1
  C  803  1  0.87408100  0.77258400  0.96028000  1
  C  804  1  0.85302400  0.73564400  0.96682000  1
  C  806  1  0.84684900  0.75418900  0.03890800  1
  C  807  1  0.83668900  0.73897700  0.07732100  1
  C  811  1  0.82925200  0.75876200  0.14555600  1
  C  812  1  0.80668900  0.79005900  0.17227200  1
  C  818  1  0.36811300  0.72207200  0.98310600  1
  C  820  1  0.37481200  0.74161400  0.05439600  1
  C  821  1  0.35404100  0.77865500  0.04761200  1
  C  823  1  0.34721400  0.75945200  0.97577000  1
  C  824  1  0.33684100  0.77441700  0.93730500  1
  C  828  1  0.32917600  0.75417400  0.86924200  1
  C  829  1  0.30618500  0.72298700  0.84276300  1
  C  835  1  0.64203800  0.21922200  0.52952200  1
  C  837  1  0.64035800  0.23754300  0.45777600  1
  C  838  1  0.65533300  0.27697100  0.46622800  1
  C  840  1  0.65720200  0.25893000  0.53840700  1
  C  841  1  0.66393400  0.27413800  0.57745500  1
  C  845  1  0.67649700  0.25335400  0.64479200  1
  C  846  1  0.70418600  0.22444700  0.66929800  1
  C  852  1  0.14577600  0.29129700  0.48185200  1
  C  854  1  0.13866000  0.27208700  0.55315300  1
  C  855  1  0.15979000  0.23518500  0.54669800  1
  C  857  1  0.16696700  0.25406100  0.47481800  1
  C  858  1  0.17775700  0.23904500  0.43653600  1
  C  862  1  0.18399000  0.25868900  0.36810700  1
  C  863  1  0.20625600  0.28976700  0.34089000  1
  C  869  1  0.03190400  0.86759500  0.79151900  1
  C  871  1  0.96065200  0.87505700  0.77237100  1
  C  872  1  0.96685100  0.85341400  0.73571700  1
  C  874  1  0.03876800  0.84593100  0.75451800  1
  C  875  1  0.07693700  0.83483200  0.73938500  1
  C  879  1  0.14580900  0.83013700  0.75792100  1
  C  880  1  0.17396200  0.80927800  0.78914400  1
  C  886  1  0.98293500  0.36994300  0.72021800  1
  C  888  1  0.05481600  0.37257100  0.73837600  1
  C  889  1  0.04682000  0.35688300  0.77760600  1
  C  891  1  0.97453500  0.35395600  0.75972900  1
  C  892  1  0.93570100  0.34637000  0.77521600  1
  C  896  1  0.86769900  0.33724700  0.75501800  1
  C  897  1  0.84148900  0.31138400  0.72591400  1
  C  903  1  0.53057100  0.64506900  0.22105900  1
  C  905  1  0.45927300  0.63832500  0.24029500  1
  C  906  1  0.46574700  0.65987000  0.27695100  1
  C  908  1  0.53774900  0.66666667  0.25805100  1
  C  909  1  0.57602200  0.67776200  0.27310100  1
  C  913  1  0.64536800  0.68014000  0.25600500  1
  C  914  1  0.67478900  0.69955700  0.22501800  1
  C  920  1  0.48565100  0.14187200  0.29361600  1
  C  922  1  0.55730600  0.14100600  0.27489800  1
  C  923  1  0.54840900  0.15527300  0.23531400  1
  C  925  1  0.47635100  0.15631700  0.25370900  1
  C  926  1  0.43705400  0.16250600  0.23879000  1
  C  930  1  0.37033900  0.17729500  0.25990200  1
  C  931  1  0.34690600  0.20610600  0.28859900  1
  C  937  1  0.04082700  0.28451500  0.37466900  1
  C  939  1  0.01384200  0.21646900  0.36369200  1
  C  940  1  0.97567500  0.22810700  0.37978500  1
  C  942  1  0.00091000  0.29750000  0.38560300  1
  C  943  1  0.99106100  0.33492000  0.40222700  1
  C  947  1  0.97643100  0.39845500  0.37473600  1
  C  948  1  0.99764700  0.43448400  0.35337400  1
  C  954  1  0.47262800  0.72853000  0.87555700  1
  C  956  1  0.49944600  0.79666000  0.86438500  1
  C  957  1  0.53785300  0.78496400  0.87981900  1
  C  959  1  0.51273700  0.71549500  0.88573800  1
  C  960  1  0.52284500  0.67811900  0.90228800  1
  C  964  1  0.53665100  0.61420900  0.87519400  1
  C  965  1  0.51489300  0.57808600  0.85455400  1
  C  971  1  0.97309200  0.78413700  0.13885500  1
  C  973  1  0.00001000  0.71610500  0.15026700  1
  C  974  1  0.03823200  0.72769800  0.13426100  1
  C  976  1  0.01300500  0.79705700  0.12795300  1
  C  977  1  0.02271100  0.83420400  0.11085400  1
  C  981  1  0.03831300  0.89727000  0.13880900  1
  C  982  1  0.01756500  0.93402100  0.15937700  1
  C  988  1  0.53923700  0.22593300  0.63385200  1
  C  990  1  0.51916700  0.29683000  0.64077900  1
  C  991  1  0.47783900  0.28684600  0.63431800  1
  C  993  1  0.49731700  0.21532000  0.63064700  1
  C  994  1  0.48333100  0.17726100  0.61953600  1
  C  998  1  0.47121100  0.11515000  0.65169800  1
  C  999  1  0.49446000  0.07981000  0.67206900  1
  C  1005  1  0.38146500  0.03948900  0.28743200  1
  C  1007  1  0.37505900  0.02044900  0.21617300  1
  C  1008  1  0.38132800  0.97900800  0.22564700  1
  C  1010  1  0.38457500  0.99740000  0.29744400  1
  C  1011  1  0.39535400  0.98260300  0.33532000  1
  C  1015  1  0.36383200  0.97254700  0.39815300  1
  C  1016  1  0.34535100  0.99700400  0.43371800  1
  C  1022  1  0.87910900  0.47446700  0.72615200  1
  C  1024  1  0.87096500  0.49530200  0.79676700  1
  C  1025  1  0.87909100  0.53628800  0.78672900  1
  C  1027  1  0.88431100  0.51618800  0.71548300  1
  C  1028  1  0.89727300  0.52981800  0.67786600  1
  C  1032  1  0.86777500  0.54076400  0.61429700  1
  C  1033  1  0.84950200  0.51687800  0.57824400  1
  C  1039  1  0.13931900  0.97245500  0.78425600  1
  C  1041  1  0.15055300  0.99921700  0.71617200  1
  C  1042  1  0.13389500  0.03723100  0.72746600  1
  C  1044  1  0.12752000  0.01225400  0.79685500  1
  C  1045  1  0.11073400  0.02199900  0.83418900  1
  C  1049  1  0.13801000  0.03785800  0.89743400  1
  C  1050  1  0.15852300  0.01728900  0.93432000  1
  C  1056  1  0.63750400  0.53977000  0.22875300  1
  C  1058  1  0.64819200  0.51312700  0.29689500  1
  C  1059  1  0.63299200  0.47461300  0.28520600  1
  C  1061  1  0.62715900  0.49972900  0.21572800  1
  C  1062  1  0.61074200  0.48964900  0.17828700  1
  C  1066  1  0.63809600  0.47475700  0.11474400  1
  C  1067  1  0.65955600  0.49575300  0.07864800  1
  C  1073  1  0.28661400  0.37995900  0.03887800  1
  C  1075  1  0.21542500  0.37403800  0.01949000  1
  C  1076  1  0.22509500  0.38001100  0.97804100  1
  C  1078  1  0.29690300  0.38261800  0.99680900  1
  C  1079  1  0.33496600  0.39291800  0.98194100  1
  C  1083  1  0.39818100  0.36194500  0.97234500  1
  C  1084  1  0.43298100  0.34235700  0.99703700  1
  C  1090  1  0.72829900  0.87441000  0.47353400  1
  C  1092  1  0.79616000  0.86227500  0.50054600  1
  C  1093  1  0.78474400  0.87856900  0.53868800  1
  C  1095  1  0.71544300  0.88549100  0.51346200  1
  C  1096  1  0.67831100  0.90272100  0.52331100  1
  C  1100  1  0.61467600  0.87575200  0.53838900  1
  C  1101  1  0.57830200  0.85471900  0.51743500  1
  C  1107  1  0.78441500  0.13813900  0.97133600  1
  C  1109  1  0.71613300  0.14889100  0.99789400  1
  C  1110  1  0.72765800  0.13313300  0.03623300  1
  C  1112  1  0.79723700  0.12746100  0.01134300  1
  C  1113  1  0.83450900  0.11076700  0.02129200  1
  C  1117  1  0.89754700  0.13915100  0.03626400  1
  C  1118  1  0.93412800  0.15959500  0.01509400  1
  C  1124  1  0.22489700  0.63188800  0.53757200  1
  C  1126  1  0.29576500  0.63942800  0.51755100  1
  C  1127  1  0.28587800  0.63300100  0.47619300  1
  C  1129  1  0.21434700  0.62860100  0.49563100  1
  C  1130  1  0.17645600  0.61732800  0.48126700  1
  C  1134  1  0.11339700  0.64848100  0.47166500  1
  C  1135  1  0.07785800  0.66666667  0.49635100  1
  C  1141  1  0.04238800  0.27862500  0.89247900  1
  C  1143  1  0.96894000  0.27009000  0.89406800  1
  C  1144  1  0.97290000  0.22733600  0.89151300  1
  C  1146  1  0.04679400  0.23562400  0.89648900  1
  C  1147  1  0.08398400  0.21530100  0.89462900  1
  C  1151  1  0.15039600  0.23085000  0.87515700  1
  C  1152  1  0.18706400  0.25756400  0.88711900  1
  C  1158  1  0.46810700  0.73726000  0.39231700  1
  C  1160  1  0.54161500  0.74571800  0.39551300  1
  C  1161  1  0.53767600  0.78846700  0.39343300  1
  C  1163  1  0.46374600  0.78028600  0.39657700  1
  C  1164  1  0.42691300  0.80114900  0.39396400  1
  C  1168  1  0.36321300  0.78703700  0.36650600  1
  C  1169  1  0.32548900  0.76004600  0.37361100  1
  C  1175  1  0.54279200  0.23370200  0.12040200  1
  C  1177  1  0.46920700  0.24080900  0.11857400  1
  C  1178  1  0.47234200  0.28358300  0.12142100  1
  C  1180  1  0.54635700  0.27688500  0.11689700  1
  C  1181  1  0.58317800  0.29785000  0.11930800  1
  C  1185  1  0.65068000  0.28358100  0.13531600  1
  C  1186  1  0.68797700  0.26006500  0.11942300  1
  C  1192  1  0.96868300  0.77626100  0.62080400  1
  C  1194  1  0.04213300  0.76837900  0.61861800  1
  C  1195  1  0.03846500  0.72561200  0.62088400  1
  C  1197  1  0.96454900  0.73319500  0.61663600  1
  C  1198  1  0.92785800  0.71194600  0.61890500  1
  C  1202  1  0.86318600  0.72592000  0.64365800  1
  C  1203  1  0.82563600  0.75247500  0.63457700  1
  C  1209  1  0.77643500  0.61975200  0.96944300  1
  C  1211  1  0.76898000  0.61553800  0.04290000  1
  C  1212  1  0.72620400  0.61821300  0.03939200  1
  C  1214  1  0.73341200  0.61521800  0.96539600  1
  C  1215  1  0.71190900  0.61779800  0.92886800  1
  C  1219  1  0.72419700  0.64835300  0.86631800  1
  C  1220  1  0.75153900  0.64441400  0.82839900  1
  C  1226  1  0.23700000  0.12046800  0.54409400  1
  C  1228  1  0.24512500  0.11881200  0.47049100  1
  C  1229  1  0.28787100  0.12150100  0.47422600  1
  C  1231  1  0.28009000  0.11643400  0.54816500  1
  C  1232  1  0.30095600  0.11866100  0.58507500  1
  C  1236  1  0.28569500  0.13664700  0.65175600  1
  C  1237  1  0.26062500  0.12253900  0.68874500  1
  C  1243  1  0.73356100  0.39222000  0.47049700  1
  C  1245  1  0.74123300  0.39389400  0.54411200  1
  C  1246  1  0.78402200  0.39112200  0.54068500  1
  C  1248  1  0.77665500  0.39598200  0.46666100  1
  C  1249  1  0.79755100  0.39349400  0.42986100  1
  C  1253  1  0.78290600  0.37645000  0.36265500  1
  C  1254  1  0.75808300  0.39092100  0.32562600  1
  C  1260  1  0.27730900  0.89418100  0.04417600  1
  C  1262  1  0.26907800  0.89670500  0.97075400  1
  C  1263  1  0.22630600  0.89395200  0.97468400  1
  C  1265  1  0.23432400  0.89830000  0.04859700  1
  C  1266  1  0.21402500  0.89614100  0.08579200  1
  C  1270  1  0.23011100  0.87750800  0.15236000  1
  C  1271  1  0.25661700  0.89037200  0.18887400  1
  C  1277  1  0.12188300  0.54257000  0.23440100  1
  C  1279  1  0.12031500  0.46895400  0.24238100  1
  C  1280  1  0.12249300  0.47261300  0.28517500  1
  C  1282  1  0.11793700  0.54651800  0.27750000  1
  C  1283  1  0.12017700  0.58307700  0.29881100  1
  C  1287  1  0.14682700  0.64704200  0.28533300  1
  C  1288  1  0.13870400  0.68523600  0.25940800  1
  C  1294  1  0.61961500  0.96792700  0.77696000  1
  C  1296  1  0.61671800  0.04143700  0.76920000  1
  C  1297  1  0.61989000  0.03785900  0.72648100  1
  C  1299  1  0.61603800  0.96389900  0.73387500  1
  C  1300  1  0.61881000  0.92681000  0.71345800  1
  C  1304  1  0.63518400  0.85963100  0.72965200  1
  C  1305  1  0.62015200  0.82309000  0.75495100  1
  C  1311  1  0.89493400  0.04302700  0.27867400  1
  C  1313  1  0.89659600  0.96958000  0.27024900  1
  C  1314  1  0.89453800  0.97338500  0.22743900  1
  C  1316  1  0.89966300  0.04729700  0.23568400  1
  C  1317  1  0.89837600  0.08433500  0.21502900  1
  C  1321  1  0.87662700  0.15001100  0.22936300  1
  C  1322  1  0.88770700  0.18752300  0.25517000  1
  C  1328  1  0.39119800  0.47065300  0.73590600  1
  C  1330  1  0.39291800  0.54414900  0.74370900  1
  C  1331  1  0.39098200  0.54066100  0.78651000  1
  C  1333  1  0.39523500  0.46665200  0.77900000  1
  C  1334  1  0.39289700  0.43021200  0.80063000  1
  C  1338  1  0.36404000  0.36714700  0.78784500  1
  C  1339  1  0.37018400  0.32901400  0.76130900  1
  N  8  1  0.07269400  0.25906900  0.45157400  1
  N  15  1  0.21010500  0.46855500  0.28414600  1
  N  30  1  0.44139300  0.75380200  0.95281600  1
  N  37  1  0.30332400  0.54417900  0.78596400  1
  N  52  1  0.94067400  0.75863100  0.06212500  1
  N  59  1  0.80691400  0.97144000  0.22900800  1
  N  74  1  0.55968400  0.23433800  0.55005800  1
  N  81  1  0.70744200  0.04185300  0.73001800  1
  N  96  1  0.46553000  0.05919300  0.27965600  1
  N  103  1  0.28675900  0.20912800  0.47208900  1
  N  118  1  0.96182000  0.45156800  0.73763500  1
  N  125  1  0.78138700  0.30351100  0.54560300  1
  N  140  1  0.06285000  0.94000600  0.75831700  1
  N  147  1  0.22903400  0.80639300  0.97147300  1
  N  162  1  0.56058400  0.57209100  0.25388100  1
  N  169  1  0.72953700  0.70582300  0.04352400  1
  N  184  1  0.28033600  0.46406600  0.05870600  1
  N  191  1  0.46723500  0.28035500  0.20907200  1
  N  206  1  0.75500900  0.95076100  0.44124700  1
  N  213  1  0.54014200  0.78804900  0.30590500  1
  N  228  1  0.75961900  0.06091100  0.93972300  1
  N  235  1  0.96896700  0.22985200  0.80385900  1
  N  250  1  0.23396100  0.54825900  0.55848900  1
  N  257  1  0.04048800  0.72622200  0.70842700  1
  N  272  1  0.05317400  0.27490000  0.80510000  1
  N  279  1  0.22057200  0.46585600  0.96472900  1
  N  294  1  0.45643400  0.74180900  0.30493500  1
  N  301  1  0.29271300  0.54740500  0.46281900  1
  N  316  1  0.55287600  0.23721700  0.20766100  1
  N  323  1  0.72699000  0.04681400  0.05220900  1
  N  338  1  0.95643500  0.77155100  0.70803400  1
  N  345  1  0.78689100  0.96496600  0.55386400  1
  N  360  1  0.77121200  0.70720200  0.95868500  1
  N  367  1  0.96486600  0.54925600  0.79450100  1
  N  382  1  0.24166100  0.20757900  0.55679100  1
  N  389  1  0.04757400  0.05264700  0.72530100  1
  N  404  1  0.73721100  0.30484400  0.46068500  1
  N  411  1  0.54675600  0.45832200  0.28528300  1
  N  426  1  0.27229000  0.80692400  0.05674300  1
  N  433  1  0.46703900  0.96567700  0.21948700  1
  N  448  1  0.20926700  0.55176300  0.23713600  1
  N  455  1  0.05293300  0.72586200  0.04782400  1
  N  470  1  0.70705200  0.95624600  0.77170900  1
  N  477  1  0.55503100  0.78502500  0.96576800  1
  N  492  1  0.80781700  0.05609500  0.27269900  1
  N  499  1  0.95941700  0.22751400  0.46610900  1
  N  514  1  0.30398000  0.46103300  0.73805000  1
  N  521  1  0.46600000  0.29387600  0.54842100  1
  N  530  1  0.30503900  0.49157600  0.37926700  1
  N  533  1  0.22685200  0.50818700  0.36513700  1
  N  547  1  0.20817600  0.52225600  0.88133200  1
  N  550  1  0.28618700  0.50495200  0.86693400  1
  N  564  1  0.70935100  0.99063100  0.13437500  1
  N  567  1  0.78711300  0.00834200  0.14913500  1
  N  581  1  0.80535000  0.02176000  0.63519600  1
  N  584  1  0.72770400  0.00441000  0.65082000  1
  N  598  1  0.38266100  0.30570600  0.49150600  1
  N  601  1  0.36702200  0.22805300  0.50886400  1
  N  615  1  0.87740700  0.20758000  0.52253400  1
  N  618  1  0.86193900  0.28553400  0.50603800  1
  N  632  1  0.13531900  0.70844300  0.99080200  1
  N  635  1  0.14895000  0.78648500  0.00797500  1
  N  649  1  0.63567500  0.80345100  0.02177200  1
  N  652  1  0.65109400  0.72581000  0.00434000  1
  N  666  1  0.48989300  0.37711100  0.30531900  1
  N  669  1  0.50698000  0.36018500  0.22780400  1
  N  683  1  0.52226200  0.88158200  0.20895200  1
  N  686  1  0.50395200  0.86862000  0.28692600  1
  N  700  1  0.99151800  0.13529800  0.70729300  1
  N  703  1  0.00774100  0.14911700  0.78551900  1
  N  717  1  0.02003200  0.63411100  0.80469500  1
  N  720  1  0.00355600  0.64483800  0.72590200  1
  N  734  1  0.79828800  0.99190900  0.88033500  1
  N  737  1  0.72899400  0.00522400  0.84135400  1
  N  751  1  0.71648600  0.02104600  0.38318500  1
  N  754  1  0.78427500  0.00727500  0.34199700  1
  N  768  1  0.21157900  0.48809100  0.63335500  1
  N  771  1  0.28504500  0.50562000  0.66234000  1
  N  785  1  0.30249000  0.52373200  0.13403200  1
  N  788  1  0.22830100  0.50678800  0.16149600  1
  N  802  1  0.88145700  0.79790700  0.99270100  1
  N  805  1  0.84147000  0.72927700  0.00621500  1
  N  819  1  0.38178900  0.71597700  0.02215200  1
  N  822  1  0.34224100  0.78471700  0.00825500  1
  N  836  1  0.63345800  0.21115800  0.48942000  1
  N  839  1  0.66265700  0.28464000  0.50634600  1
  N  853  1  0.13172900  0.29753400  0.52075000  1
  N  856  1  0.17193400  0.22899900  0.50745900  1
  N  870  1  0.99314700  0.88201800  0.79769700  1
  N  873  1  0.00600500  0.84094600  0.72960100  1
  N  887  1  0.02290600  0.37933100  0.71227200  1
  N  890  1  0.00683700  0.34874500  0.78520200  1
  N  904  1  0.49165800  0.63107100  0.21491800  1
  N  907  1  0.50503200  0.67194700  0.28297200  1
  N  921  1  0.52591200  0.13400500  0.30153700  1
  N  924  1  0.50816900  0.16197300  0.22774300  1
  N  938  1  0.04477100  0.24434400  0.36406700  1
  N  941  1  0.97155000  0.26843400  0.38893300  1
  N  955  1  0.46855800  0.76875800  0.86516500  1
  N  958  1  0.54211200  0.74459000  0.88872900  1
  N  972  1  0.96908000  0.74399200  0.14964600  1
  N  975  1  0.04233900  0.76794600  0.12481600  1
  N  989  1  0.54755800  0.26657400  0.63806500  1
  N  992  1  0.46964900  0.24635700  0.62917400  1
  N  1006  1  0.37751700  0.04836800  0.24686300  1
  N  1009  1  0.38609400  0.97019900  0.26602800  1
  N  1023  1  0.87338900  0.46663100  0.76673900  1
  N  1026  1  0.88567700  0.54396900  0.74637400  1
  N  1040  1  0.15047400  0.96843900  0.74422700  1
  N  1043  1  0.12422700  0.04146400  0.76764500  1
  N  1057  1  0.64781000  0.54400900  0.26896900  1
  N  1060  1  0.62411900  0.47034800  0.24481900  1
  N  1074  1  0.24599300  0.37642200  0.04754800  1
  N  1077  1  0.26560400  0.38435300  0.96946700  1
  N  1091  1  0.76829100  0.86312500  0.46960700  1
  N  1094  1  0.74458400  0.88838400  0.54281300  1
  N  1108  1  0.74417800  0.14849100  0.96710700  1
  N  1111  1  0.76799800  0.12411700  0.04053400  1
  N  1125  1  0.26550200  0.63646200  0.54590800  1
  N  1128  1  0.24543400  0.62758900  0.46802100  1
  N  1142  1  0.00334900  0.29311700  0.89133000  1
  N  1145  1  0.01191700  0.21299000  0.89287900  1
  N  1159  1  0.50719300  0.72279800  0.39187200  1
  N  1162  1  0.49870200  0.80291400  0.39405500  1
  N  1176  1  0.50405000  0.21841700  0.12104600  1
  N  1179  1  0.51100500  0.29879500  0.12047000  1
  N  1193  1  0.00757400  0.79116300  0.62151800  1
  N  1196  1  0.99963500  0.71085800  0.61979500  1
  N  1210  1  0.79146800  0.61966700  0.00827100  1
  N  1213  1  0.71121400  0.61774900  0.00061700  1
  N  1227  1  0.22236200  0.12150900  0.50509600  1
  N  1230  1  0.30245200  0.12019100  0.51312700  1
  N  1244  1  0.71865400  0.39119200  0.50939800  1
  N  1247  1  0.79880700  0.39227500  0.50183900  1
  N  1261  1  0.29198400  0.89346700  0.00521200  1
  N  1264  1  0.21177700  0.89498300  0.01363500  1
  N  1278  1  0.12303800  0.50359200  0.21966600  1
  N  1281  1  0.12118700  0.51145000  0.29983200  1
  N  1295  1  0.61989000  0.00682600  0.79188200  1
  N  1298  1  0.61935900  0.99903400  0.71158600  1
  N  1312  1  0.89374500  0.00402300  0.29323000  1
  N  1315  1  0.89623900  0.01236800  0.21310800  1
  N  1329  1  0.39022900  0.50953200  0.72098400  1
  N  1332  1  0.39212200  0.50180600  0.80122800  1
  O  537  1  0.19949500  0.58266000  0.37862400  1
  O  538  1  0.24982000  0.60310700  0.34018000  1
  O  554  1  0.31297900  0.43018700  0.88012100  1
  O  555  1  0.26220800  0.41012700  0.84212000  1
  O  571  1  0.80855200  0.08269700  0.11975900  1
  O  572  1  0.75704600  0.11168900  0.14798700  1
  O  588  1  0.70683600  0.92949000  0.62144800  1
  O  589  1  0.75736600  0.90128200  0.65227400  1
  O  605  1  0.39383600  0.20505400  0.58351900  1
  O  606  1  0.36638400  0.25743600  0.61227300  1
  O  622  1  0.89252500  0.30769500  0.43221800  1
  O  623  1  0.86347900  0.25714000  0.40237000  1
  O  639  1  0.11870700  0.80768300  0.08175600  1
  O  640  1  0.14900800  0.75754300  0.11151100  1
  O  656  1  0.64075200  0.69908500  0.92925800  1
  O  657  1  0.67618600  0.75160000  0.90880700  1
  O  673  1  0.58134800  0.39029000  0.20648100  1
  O  674  1  0.61009000  0.35995700  0.25743400  1
  O  690  1  0.42896800  0.88187400  0.31276200  1
  O  691  1  0.40955400  0.84340300  0.26207200  1
  O  707  1  0.08089500  0.11888500  0.80850600  1
  O  708  1  0.11173300  0.14654300  0.75775600  1
  O  724  1  0.92936500  0.63051600  0.69833200  1
  O  725  1  0.90765800  0.66866700  0.74795900  1
  O  741  1  0.70267100  0.07929500  0.82706600  1
  O  742  1  0.76398300  0.10183300  0.81597700  1
  O  758  1  0.80922900  0.93344800  0.32523600  1
  O  759  1  0.74760300  0.91014900  0.31876600  1
  O  775  1  0.31126500  0.58071100  0.66654400  1
  O  776  1  0.25132100  0.60193000  0.68529700  1
  O  792  1  0.20141700  0.43163300  0.16370000  1
  O  793  1  0.26043900  0.41167600  0.18674400  1
  O  809  1  0.82752100  0.70283500  0.08010800  1
  O  810  1  0.81800400  0.76446400  0.10331900  1
  O  826  1  0.32728500  0.81045100  0.93443500  1
  O  827  1  0.31808300  0.74873400  0.91155800  1
  O  843  1  0.66838000  0.31106400  0.58144600  1
  O  844  1  0.68723000  0.25124000  0.60212500  1
  O  860  1  0.18873600  0.20339800  0.43386800  1
  O  861  1  0.19567300  0.26475500  0.41018200  1
  O  877  1  0.07924600  0.82275800  0.70406700  1
  O  878  1  0.10399200  0.81821200  0.76525100  1
  O  894  1  0.93244100  0.33909500  0.81176600  1
  O  895  1  0.90995400  0.32530900  0.75134100  1
  O  911  1  0.57786900  0.69087000  0.30809100  1
  O  912  1  0.60400400  0.69265400  0.24721300  1
  O  928  1  0.43279800  0.16494900  0.20172000  1
  O  929  1  0.41325900  0.18705400  0.26124300  1
  O  945  1  0.99189000  0.33614300  0.43949300  1
  O  946  1  0.00641300  0.36757300  0.38332200  1
  O  962  1  0.52293600  0.67706100  0.93957300  1
  O  963  1  0.50701400  0.64539600  0.88389600  1
  O  979  1  0.02167100  0.83551500  0.07358200  1
  O  980  1  0.00764600  0.86741500  0.12905900  1
  O  996  1  0.47871500  0.17224400  0.58284600  1
  O  997  1  0.50023200  0.14531400  0.63847400  1
  O  1013  1  0.43151400  0.97434000  0.33946300  1
  O  1014  1  0.37854400  0.00067500  0.36782700  1
  O  1030  1  0.93395700  0.53604100  0.67498100  1
  O  1031  1  0.88075200  0.51218800  0.64499300  1
  O  1047  1  0.07342600  0.02107300  0.83496000  1
  O  1048  1  0.12884000  0.00712400  0.86746700  1
  O  1064  1  0.57347900  0.49043500  0.17689100  1
  O  1065  1  0.62980800  0.50481500  0.14563600  1
  O  1081  1  0.33914000  0.42911400  0.97392500  1
  O  1082  1  0.36685700  0.37514100  0.00012900  1
  O  1098  1  0.67761000  0.93999700  0.52226800  1
  O  1099  1  0.64535300  0.88419500  0.50816300  1
  O  1115  1  0.83603400  0.07348900  0.02099500  1
  O  1116  1  0.86760400  0.12887600  0.00585500  1
  O  1132  1  0.17266700  0.58112300  0.47304300  1
  O  1133  1  0.14392500  0.63380300  0.49958900  1
  O  1149  1  0.08462300  0.17951400  0.90532500  1
  O  1150  1  0.11793500  0.23596200  0.90439200  1
  O  1166  1  0.42577800  0.83576800  0.40792900  1
  O  1167  1  0.39205800  0.78045100  0.39903400  1
  O  1183  1  0.58241000  0.33445400  0.11174700  1
  O  1184  1  0.61724600  0.27890100  0.10714700  1
  O  1200  1  0.92772100  0.67677700  0.60633900  1
  O  1201  1  0.89319600  0.73238700  0.61220300  1
  O  1217  1  0.67802100  0.60215000  0.92815400  1
  O  1218  1  0.73249700  0.61500500  0.89372600  1
  O  1234  1  0.33720700  0.10964400  0.58486400  1
  O  1235  1  0.28092100  0.10777000  0.61895700  1
  O  1251  1  0.83386300  0.40231800  0.42990400  1
  O  1252  1  0.77793900  0.40487700  0.39583000  1
  O  1268  1  0.17795600  0.90584400  0.08641500  1
  O  1269  1  0.23449300  0.90660300  0.11965800  1
  O  1285  1  0.10647600  0.58359900  0.33355700  1
  O  1286  1  0.11444500  0.61809100  0.27864900  1
  O  1302  1  0.61109600  0.92646200  0.67690200  1
  O  1303  1  0.60679000  0.89304300  0.73323500  1
  O  1319  1  0.91028900  0.08429600  0.17960700  1
  O  1320  1  0.90684700  0.11867100  0.23538800  1
  O  1336  1  0.40738600  0.42994700  0.83504600  1
  O  1337  1  0.39712000  0.39508600  0.78038100  1
