# generated using pymatgen
data_H28C41N4
_symmetry_space_group_name_H-M   'P 1'
_cell_length_a   41.22890000
_cell_length_b   41.22890000
_cell_length_c   47.92960000
_cell_angle_alpha   90.00000000
_cell_angle_beta   90.00000000
_cell_angle_gamma   90.00000000
_symmetry_Int_Tables_number   1
_chemical_formula_structural   H28C41N4
_chemical_formula_sum   'H1120 C1640 N160'
_cell_volume   81471.79788754
_cell_formula_units_Z   40
loop_
 _symmetry_equiv_pos_site_id
 _symmetry_equiv_pos_as_xyz
  1  'x, y, z'
loop_
 _atom_site_type_symbol
 _atom_site_label
 _atom_site_symmetry_multiplicity
 _atom_site_fract_x
 _atom_site_fract_y
 _atom_site_fract_z
 _atom_site_occupancy
  H  26  1  0.22064400  0.10736800  0.18316400  1
  H  27  1  0.19025100  0.13898100  0.15120400  1
  H  28  1  0.14298800  0.04137600  0.18984300  1
  H  29  1  0.11248900  0.07296000  0.15766000  1
  H  30  1  0.06723100  0.11729600  0.15106900  1
  H  31  1  0.03669300  0.14890300  0.18291100  1
  H  32  1  0.11422700  0.21502500  0.18971300  1
  H  33  1  0.14489100  0.18341600  0.15765800  1
  H  34  1  0.11549500  0.18859800  0.10487600  1
  H  35  1  0.14596800  0.22021000  0.07281600  1
  H  36  1  0.21552300  0.14562600  0.06731400  1
  H  37  1  0.18522500  0.11403800  0.09951900  1
  H  38  1  0.14214100  0.06771000  0.10494000  1
  H  39  1  0.07238300  0.14222600  0.09937800  1
  H  40  1  0.04220300  0.11058700  0.06711300  1
  H  45  1  0.11180400  0.03606900  0.07280800  1
  H  71  1  0.53679600  0.14878800  0.68303800  1
  H  72  1  0.56720900  0.11714600  0.65112000  1
  H  73  1  0.61460300  0.21456400  0.68998500  1
  H  74  1  0.64512300  0.18294900  0.65783400  1
  H  75  1  0.69044100  0.13862500  0.65099900  1
  H  76  1  0.72096300  0.10703400  0.68286000  1
  H  77  1  0.64325100  0.04116700  0.68996700  1
  H  78  1  0.61260500  0.07275900  0.65788800  1
  H  79  1  0.64193600  0.06725000  0.60511900  1
  H  80  1  0.61144100  0.03564000  0.57307800  1
  H  81  1  0.54217400  0.11045800  0.56724100  1
  H  82  1  0.57249200  0.14204200  0.59943200  1
  H  83  1  0.61554000  0.18840200  0.60511700  1
  H  84  1  0.68505600  0.11368300  0.59932300  1
  H  85  1  0.71523900  0.14528500  0.56703200  1
  H  90  1  0.64588200  0.22000400  0.57296800  1
  H  116  1  0.03680200  0.60748500  0.57283400  1
  H  117  1  0.06717700  0.63909600  0.60482100  1
  H  118  1  0.11409600  0.54099000  0.56682500  1
  H  119  1  0.14457400  0.57257700  0.59901400  1
  H  120  1  0.18966600  0.61700200  0.60492300  1
  H  121  1  0.22016900  0.64861100  0.57304700  1
  H  122  1  0.14300000  0.71525100  0.56696900  1
  H  123  1  0.11237300  0.68363000  0.59903500  1
  H  124  1  0.14187800  0.68822200  0.65185400  1
  H  125  1  0.11142400  0.71980200  0.68395600  1
  H  126  1  0.04136200  0.64563000  0.68876100  1
  H  127  1  0.07165500  0.61407500  0.65653400  1
  H  128  1  0.11485800  0.56789600  0.65178300  1
  H  129  1  0.18510600  0.64201100  0.65663800  1
  H  130  1  0.21530100  0.61041200  0.68890900  1
  H  135  1  0.14520200  0.53628900  0.68394100  1
  H  161  1  0.72037600  0.64883700  0.07344100  1
  H  162  1  0.68995400  0.61719100  0.10535400  1
  H  163  1  0.64262300  0.71468600  0.06657000  1
  H  164  1  0.61209300  0.68307000  0.09871200  1
  H  165  1  0.56679900  0.63872700  0.10544700  1
  H  166  1  0.53628900  0.60712800  0.07358300  1
  H  167  1  0.61395100  0.54117900  0.06660200  1
  H  168  1  0.64458700  0.57277800  0.09868300  1
  H  169  1  0.61521000  0.56738400  0.15143300  1
  H  170  1  0.64569300  0.53576300  0.18347700  1
  H  171  1  0.71504800  0.61050700  0.18924400  1
  H  172  1  0.68474400  0.64210400  0.15704800  1
  H  173  1  0.64167400  0.68844500  0.15144500  1
  H  174  1  0.57208500  0.61378100  0.15712800  1
  H  175  1  0.54188700  0.64538300  0.18941000  1
  H  180  1  0.61131700  0.72004700  0.18358500  1
  H  206  1  0.86122900  0.46973400  0.32220400  1
  H  207  1  0.89173200  0.43809800  0.35423900  1
  H  208  1  0.79107400  0.39563800  0.31750300  1
  H  209  1  0.82141500  0.36402900  0.34965300  1
  H  210  1  0.86470500  0.31792000  0.35413600  1
  H  211  1  0.89513000  0.28638900  0.32197500  1
  H  212  1  0.96534600  0.36043700  0.31740500  1
  H  213  1  0.93506300  0.39196300  0.34966900  1
  H  214  1  0.93942000  0.36690300  0.40135800  1
  H  215  1  0.96978700  0.39850000  0.43336300  1
  H  216  1  0.89258800  0.46512800  0.43921100  1
  H  217  1  0.86211400  0.43355100  0.40701600  1
  H  218  1  0.81709700  0.38905300  0.40139300  1
  H  219  1  0.89433200  0.32230800  0.40691800  1
  H  220  1  0.86380700  0.29065800  0.43903000  1
  H  225  1  0.78670100  0.35741700  0.43332500  1
  H  251  1  0.89602000  0.78580600  0.82286800  1
  H  252  1  0.86561900  0.81746600  0.85494400  1
  H  253  1  0.96561700  0.86033900  0.81724300  1
  H  254  1  0.93538300  0.89197500  0.84945900  1
  H  255  1  0.89232100  0.93829700  0.85482100  1
  H  256  1  0.86195000  0.96987900  0.82267400  1
  H  257  1  0.79227000  0.89541200  0.81723900  1
  H  258  1  0.82249200  0.86383400  0.84951700  1
  H  259  1  0.81747800  0.88880200  0.90119100  1
  H  260  1  0.78705800  0.85725900  0.93318000  1
  H  261  1  0.86466100  0.79121300  0.93992100  1
  H  262  1  0.89518400  0.82272900  0.90770900  1
  H  263  1  0.94044300  0.86707200  0.90117900  1
  H  264  1  0.86280100  0.93323000  0.90760300  1
  H  265  1  0.89340800  0.96485600  0.93968100  1
  H  270  1  0.97092900  0.89869300  0.93304600  1
  H  296  1  0.36130300  0.28614200  0.93382900  1
  H  297  1  0.39175200  0.31777500  0.90176100  1
  H  298  1  0.29137600  0.36041700  0.93890700  1
  H  299  1  0.32165600  0.39202400  0.90671000  1
  H  300  1  0.36480800  0.43823200  0.90180400  1
  H  301  1  0.39518700  0.46981900  0.93395400  1
  H  302  1  0.46520100  0.39562100  0.93894900  1
  H  303  1  0.43497200  0.36404100  0.90668500  1
  H  304  1  0.43961400  0.38903100  0.85498800  1
  H  305  1  0.47002300  0.35745300  0.82300300  1
  H  306  1  0.39268800  0.29102200  0.81680900  1
  H  307  1  0.36217600  0.32258000  0.84899800  1
  H  308  1  0.31702300  0.36697800  0.85499400  1
  H  309  1  0.39438400  0.43352600  0.84902500  1
  H  310  1  0.36378200  0.46512600  0.81692400  1
  H  315  1  0.28654900  0.39856800  0.82308900  1
  H  341  1  0.39595600  0.96986700  0.43418900  1
  H  342  1  0.36545300  0.93827500  0.40212300  1
  H  343  1  0.46588700  0.89557900  0.43910700  1
  H  344  1  0.43555200  0.86401800  0.40692000  1
  H  345  1  0.39231500  0.81789100  0.40216300  1
  H  346  1  0.36186800  0.78632800  0.43428100  1
  H  347  1  0.29182700  0.86052100  0.43910700  1
  H  348  1  0.32213400  0.89208100  0.40688000  1
  H  349  1  0.31761000  0.86707700  0.35517700  1
  H  350  1  0.28726200  0.89868100  0.32316800  1
  H  351  1  0.36459200  0.96513900  0.31715100  1
  H  352  1  0.39504600  0.93355500  0.34935600  1
  H  353  1  0.44010900  0.88906600  0.35519600  1
  H  354  1  0.36273400  0.82252100  0.34938600  1
  H  355  1  0.39327500  0.79087800  0.31727800  1
  H  360  1  0.47052500  0.85743800  0.32327200  1
  H  367  1  0.96712600  0.03117600  0.03329300  1
  H  368  1  0.06251900  0.01395900  0.00459400  1
  H  369  1  0.04229200  0.97550300  0.97196200  1
  H  370  1  0.94687500  0.99272000  0.00064500  1
  H  372  1  0.99758000  0.94332900  0.95401000  1
  H  374  1  0.01219300  0.06490300  0.04968900  1
  H  381  1  0.79042200  0.22458500  0.53312200  1
  H  382  1  0.69498400  0.24203300  0.50464500  1
  H  383  1  0.71519100  0.28051200  0.47202400  1
  H  384  1  0.81065500  0.26306600  0.50048200  1
  H  386  1  0.75991700  0.31271500  0.45410200  1
  H  388  1  0.74532700  0.19089000  0.54954400  1
  H  395  1  0.29017000  0.53115000  0.72301100  1
  H  396  1  0.19479000  0.51388500  0.75171800  1
  H  397  1  0.21503900  0.47543100  0.78433800  1
  H  398  1  0.31044300  0.49269400  0.75565000  1
  H  400  1  0.25977700  0.44320400  0.80221500  1
  H  402  1  0.24511700  0.56476500  0.70652200  1
  H  409  1  0.46673600  0.72463600  0.22339200  1
  H  410  1  0.56218400  0.74215000  0.25181500  1
  H  411  1  0.54198000  0.78063500  0.28443000  1
  H  412  1  0.44650500  0.76312100  0.25602800  1
  H  414  1  0.49724900  0.81278700  0.30239800  1
  H  416  1  0.51182600  0.69099200  0.20692200  1
  H  423  1  0.21682600  0.78121000  0.47303800  1
  H  424  1  0.31211100  0.76408400  0.50203900  1
  H  425  1  0.29177600  0.72563700  0.53462800  1
  H  426  1  0.19646800  0.74276100  0.50564600  1
  H  428  1  0.24701100  0.69337100  0.55238800  1
  H  430  1  0.26192800  0.81491000  0.45670800  1
  H  437  1  0.71596000  0.47458300  0.28375000  1
  H  438  1  0.81111400  0.49264500  0.25484100  1
  H  439  1  0.79049500  0.53142600  0.22263100  1
  H  440  1  0.69534100  0.51336600  0.25154200  1
  H  442  1  0.74518400  0.56507500  0.20669100  1
  H  444  1  0.76123600  0.44108400  0.29985700  1
  H  451  1  0.54122800  0.27976300  0.78441800  1
  H  452  1  0.44583600  0.26441700  0.75492000  1
  H  453  1  0.46581200  0.22636100  0.72184900  1
  H  454  1  0.56120600  0.24170900  0.75134200  1
  H  456  1  0.51025900  0.19378700  0.70381400  1
  H  458  1  0.49676100  0.31248700  0.80230400  1
  H  465  1  0.96558800  0.52967000  0.53438000  1
  H  466  1  0.06099000  0.51437500  0.50488000  1
  H  467  1  0.04103000  0.47631200  0.47180300  1
  H  468  1  0.94562900  0.49160700  0.50130200  1
  H  470  1  0.99657400  0.44354400  0.45393500  1
  H  472  1  0.01004000  0.56237100  0.55231500  1
  H  479  1  0.79139000  0.72646200  0.03468200  1
  H  480  1  0.69600500  0.74168900  0.00511700  1
  H  481  1  0.71598100  0.77968700  0.97199500  1
  H  482  1  0.81136400  0.76446000  0.00155900  1
  H  484  1  0.76043100  0.81232700  0.95400800  1
  H  486  1  0.74694800  0.69387300  0.05272000  1
  H  493  1  0.29166000  0.02986100  0.22210300  1
  H  494  1  0.19619200  0.01438100  0.25137100  1
  H  495  1  0.21611300  0.97633100  0.28447400  1
  H  496  1  0.31158000  0.99181000  0.25520800  1
  H  498  1  0.26055800  0.94367400  0.30247500  1
  H  500  1  0.24722200  0.06242800  0.20401500  1
  H  507  1  0.21623300  0.28131000  0.97254000  1
  H  508  1  0.31140100  0.26352200  0.00154500  1
  H  509  1  0.29083300  0.22477300  0.03381100  1
  H  510  1  0.19566800  0.24256100  0.00480600  1
  H  512  1  0.24558000  0.19108900  0.04981000  1
  H  514  1  0.26146500  0.31492300  0.95646600  1
  H  521  1  0.71719700  0.97490900  0.78347900  1
  H  522  1  0.81251600  0.99180500  0.75446300  1
  H  523  1  0.79225600  0.03021300  0.72180700  1
  H  524  1  0.69691000  0.01331800  0.75080400  1
  H  526  1  0.74755200  0.06244100  0.70391400  1
  H  528  1  0.76224500  0.94112000  0.79981900  1
  H  535  1  0.46663900  0.03145300  0.53386900  1
  H  536  1  0.56178800  0.01321600  0.50503500  1
  H  537  1  0.54113800  0.97443900  0.47283500  1
  H  538  1  0.44598600  0.99267600  0.50166900  1
  H  540  1  0.49582500  0.94100100  0.45671800  1
  H  542  1  0.51199100  0.06504800  0.54981300  1
  H  549  1  0.96633800  0.72507200  0.72222200  1
  H  550  1  0.06139300  0.74198700  0.75187600  1
  H  551  1  0.04084500  0.78068400  0.78420300  1
  H  552  1  0.94578900  0.76376800  0.75454900  1
  H  554  1  0.99568600  0.81470300  0.79996500  1
  H  556  1  0.01148400  0.69114700  0.70635500  1
  H  563  1  0.04021900  0.28101200  0.28345100  1
  H  564  1  0.94497100  0.26431000  0.25417500  1
  H  565  1  0.96528500  0.22592300  0.22152500  1
  H  566  1  0.06055700  0.24262400  0.25078300  1
  H  568  1  0.01000100  0.19360400  0.20375400  1
  H  570  1  0.99517900  0.31478900  0.29977300  1
  H  577  1  0.46498200  0.53042200  0.03451600  1
  H  578  1  0.56038200  0.51329600  0.00575400  1
  H  579  1  0.54011700  0.47490800  0.97305300  1
  H  580  1  0.44474200  0.49203400  0.00183500  1
  H  582  1  0.49506600  0.44125900  0.95656800  1
  H  584  1  0.50969100  0.56253500  0.05252800  1
  H  610  1  0.22064400  0.10736800  0.37093900  1
  H  611  1  0.19025100  0.13898100  0.33897900  1
  H  612  1  0.14298800  0.04137600  0.37761800  1
  H  613  1  0.11248900  0.07296000  0.34543500  1
  H  614  1  0.06723100  0.11729600  0.33884400  1
  H  615  1  0.03669300  0.14890300  0.37068600  1
  H  616  1  0.11422700  0.21502500  0.37748800  1
  H  617  1  0.14489100  0.18341600  0.34543300  1
  H  618  1  0.11549500  0.18859800  0.29265100  1
  H  619  1  0.14596800  0.22021000  0.26059100  1
  H  620  1  0.21552300  0.14562600  0.25508900  1
  H  621  1  0.18522500  0.11403800  0.28729400  1
  H  622  1  0.14214100  0.06771000  0.29271500  1
  H  623  1  0.07238300  0.14222600  0.28715300  1
  H  624  1  0.04220300  0.11058700  0.25488800  1
  H  629  1  0.11180400  0.03606900  0.26058300  1
  H  655  1  0.53679600  0.14878800  0.87081300  1
  H  656  1  0.56720900  0.11714600  0.83889500  1
  H  657  1  0.61460300  0.21456400  0.87776000  1
  H  658  1  0.64512300  0.18294900  0.84560900  1
  H  659  1  0.69044100  0.13862500  0.83877400  1
  H  660  1  0.72096300  0.10703400  0.87063500  1
  H  661  1  0.64325100  0.04116700  0.87774200  1
  H  662  1  0.61260500  0.07275900  0.84566300  1
  H  663  1  0.64193600  0.06725000  0.79289400  1
  H  664  1  0.61144100  0.03564000  0.76085300  1
  H  665  1  0.54217400  0.11045800  0.75501600  1
  H  666  1  0.57249200  0.14204200  0.78720700  1
  H  667  1  0.61554000  0.18840200  0.79289200  1
  H  668  1  0.68505600  0.11368300  0.78709800  1
  H  669  1  0.71523900  0.14528500  0.75480700  1
  H  674  1  0.64588200  0.22000400  0.76074300  1
  H  700  1  0.03680200  0.60748500  0.76060900  1
  H  701  1  0.06717700  0.63909600  0.79259600  1
  H  702  1  0.11409600  0.54099000  0.75460000  1
  H  703  1  0.14457400  0.57257700  0.78678900  1
  H  704  1  0.18966600  0.61700200  0.79269800  1
  H  705  1  0.22016900  0.64861100  0.76082200  1
  H  706  1  0.14300000  0.71525100  0.75474400  1
  H  707  1  0.11237300  0.68363000  0.78681000  1
  H  708  1  0.14187800  0.68822200  0.83962900  1
  H  709  1  0.11142400  0.71980200  0.87173100  1
  H  710  1  0.04136200  0.64563000  0.87653600  1
  H  711  1  0.07165500  0.61407500  0.84430900  1
  H  712  1  0.11485800  0.56789600  0.83955800  1
  H  713  1  0.18510600  0.64201100  0.84441300  1
  H  714  1  0.21530100  0.61041200  0.87668400  1
  H  719  1  0.14520200  0.53628900  0.87171600  1
  H  745  1  0.72037600  0.64883700  0.26121600  1
  H  746  1  0.68995400  0.61719100  0.29312900  1
  H  747  1  0.64262300  0.71468600  0.25434500  1
  H  748  1  0.61209300  0.68307000  0.28648700  1
  H  749  1  0.56679900  0.63872700  0.29322200  1
  H  750  1  0.53628900  0.60712800  0.26135800  1
  H  751  1  0.61395100  0.54117900  0.25437700  1
  H  752  1  0.64458700  0.57277800  0.28645800  1
  H  753  1  0.61521000  0.56738400  0.33920800  1
  H  754  1  0.64569300  0.53576300  0.37125200  1
  H  755  1  0.71504800  0.61050700  0.37701900  1
  H  756  1  0.68474400  0.64210400  0.34482300  1
  H  757  1  0.64167400  0.68844500  0.33922000  1
  H  758  1  0.57208500  0.61378100  0.34490300  1
  H  759  1  0.54188700  0.64538300  0.37718500  1
  H  764  1  0.61131700  0.72004700  0.37136000  1
  H  790  1  0.86122900  0.46973400  0.50997900  1
  H  791  1  0.89173200  0.43809800  0.54201400  1
  H  792  1  0.79107400  0.39563800  0.50527800  1
  H  793  1  0.82141500  0.36402900  0.53742800  1
  H  794  1  0.86470500  0.31792000  0.54191100  1
  H  795  1  0.89513000  0.28638900  0.50975000  1
  H  796  1  0.96534600  0.36043700  0.50518000  1
  H  797  1  0.93506300  0.39196300  0.53744400  1
  H  798  1  0.93942000  0.36690300  0.58913300  1
  H  799  1  0.96978700  0.39850000  0.62113800  1
  H  800  1  0.89258800  0.46512800  0.62698600  1
  H  801  1  0.86211400  0.43355100  0.59479100  1
  H  802  1  0.81709700  0.38905300  0.58916800  1
  H  803  1  0.89433200  0.32230800  0.59469300  1
  H  804  1  0.86380700  0.29065800  0.62680500  1
  H  809  1  0.78670100  0.35741700  0.62110000  1
  H  835  1  0.89602000  0.78580600  0.01064340  1
  H  836  1  0.86561900  0.81746600  0.04271940  1
  H  837  1  0.96561700  0.86033900  0.00501840  1
  H  838  1  0.93538300  0.89197500  0.03723440  1
  H  839  1  0.89232100  0.93829700  0.04259640  1
  H  840  1  0.86195000  0.96987900  0.01044940  1
  H  841  1  0.79227000  0.89541200  0.00501440  1
  H  842  1  0.82249200  0.86383400  0.03729240  1
  H  843  1  0.81747800  0.88880200  0.08896640  1
  H  844  1  0.78705800  0.85725900  0.12095500  1
  H  845  1  0.86466100  0.79121300  0.12769600  1
  H  846  1  0.89518400  0.82272900  0.09548440  1
  H  847  1  0.94044300  0.86707200  0.08895440  1
  H  848  1  0.86280100  0.93323000  0.09537840  1
  H  849  1  0.89340800  0.96485600  0.12745600  1
  H  854  1  0.97092900  0.89869300  0.12082100  1
  H  880  1  0.36130300  0.28614200  0.12160400  1
  H  881  1  0.39175200  0.31777500  0.08953640  1
  H  882  1  0.29137600  0.36041700  0.12668200  1
  H  883  1  0.32165600  0.39202400  0.09448540  1
  H  884  1  0.36480800  0.43823200  0.08957940  1
  H  885  1  0.39518700  0.46981900  0.12172900  1
  H  886  1  0.46520100  0.39562100  0.12672400  1
  H  887  1  0.43497200  0.36404100  0.09446040  1
  H  888  1  0.43961400  0.38903100  0.04276340  1
  H  889  1  0.47002300  0.35745300  0.01077840  1
  H  890  1  0.39268800  0.29102200  0.00458440  1
  H  891  1  0.36217600  0.32258000  0.03677340  1
  H  892  1  0.31702300  0.36697800  0.04276940  1
  H  893  1  0.39438400  0.43352600  0.03680040  1
  H  894  1  0.36378200  0.46512600  0.00469940  1
  H  899  1  0.28654900  0.39856800  0.01086440  1
  H  925  1  0.39595600  0.96986700  0.62196400  1
  H  926  1  0.36545300  0.93827500  0.58989800  1
  H  927  1  0.46588700  0.89557900  0.62688200  1
  H  928  1  0.43555200  0.86401800  0.59469500  1
  H  929  1  0.39231500  0.81789100  0.58993800  1
  H  930  1  0.36186800  0.78632800  0.62205600  1
  H  931  1  0.29182700  0.86052100  0.62688200  1
  H  932  1  0.32213400  0.89208100  0.59465500  1
  H  933  1  0.31761000  0.86707700  0.54295200  1
  H  934  1  0.28726200  0.89868100  0.51094300  1
  H  935  1  0.36459200  0.96513900  0.50492600  1
  H  936  1  0.39504600  0.93355500  0.53713100  1
  H  937  1  0.44010900  0.88906600  0.54297100  1
  H  938  1  0.36273400  0.82252100  0.53716100  1
  H  939  1  0.39327500  0.79087800  0.50505300  1
  H  944  1  0.47052500  0.85743800  0.51104700  1
  H  951  1  0.96712600  0.03117600  0.22106800  1
  H  952  1  0.06251900  0.01395900  0.19236900  1
  H  953  1  0.04229200  0.97550300  0.15973700  1
  H  954  1  0.94687500  0.99272000  0.18842000  1
  H  956  1  0.99758000  0.94332900  0.14178500  1
  H  958  1  0.01219300  0.06490300  0.23746400  1
  H  965  1  0.79042200  0.22458500  0.72089700  1
  H  966  1  0.69498400  0.24203300  0.69242000  1
  H  967  1  0.71519100  0.28051200  0.65979900  1
  H  968  1  0.81065500  0.26306600  0.68825700  1
  H  970  1  0.75991700  0.31271500  0.64187700  1
  H  972  1  0.74532700  0.19089000  0.73731900  1
  H  979  1  0.29017000  0.53115000  0.91078600  1
  H  980  1  0.19479000  0.51388500  0.93949300  1
  H  981  1  0.21503900  0.47543100  0.97211300  1
  H  982  1  0.31044300  0.49269400  0.94342500  1
  H  984  1  0.25977700  0.44320400  0.98999000  1
  H  986  1  0.24511700  0.56476500  0.89429700  1
  H  993  1  0.46673600  0.72463600  0.41116700  1
  H  994  1  0.56218400  0.74215000  0.43959000  1
  H  995  1  0.54198000  0.78063500  0.47220500  1
  H  996  1  0.44650500  0.76312100  0.44380300  1
  H  998  1  0.49724900  0.81278700  0.49017300  1
  H  1000  1  0.51182600  0.69099200  0.39469700  1
  H  1007  1  0.21682600  0.78121000  0.66081300  1
  H  1008  1  0.31211100  0.76408400  0.68981400  1
  H  1009  1  0.29177600  0.72563700  0.72240300  1
  H  1010  1  0.19646800  0.74276100  0.69342100  1
  H  1012  1  0.24701100  0.69337100  0.74016300  1
  H  1014  1  0.26192800  0.81491000  0.64448300  1
  H  1021  1  0.71596000  0.47458300  0.47152500  1
  H  1022  1  0.81111400  0.49264500  0.44261600  1
  H  1023  1  0.79049500  0.53142600  0.41040600  1
  H  1024  1  0.69534100  0.51336600  0.43931700  1
  H  1026  1  0.74518400  0.56507500  0.39446600  1
  H  1028  1  0.76123600  0.44108400  0.48763200  1
  H  1035  1  0.54122800  0.27976300  0.97219300  1
  H  1036  1  0.44583600  0.26441700  0.94269500  1
  H  1037  1  0.46581200  0.22636100  0.90962400  1
  H  1038  1  0.56120600  0.24170900  0.93911700  1
  H  1040  1  0.51025900  0.19378700  0.89158900  1
  H  1042  1  0.49676100  0.31248700  0.99007900  1
  H  1049  1  0.96558800  0.52967000  0.72215500  1
  H  1050  1  0.06099000  0.51437500  0.69265500  1
  H  1051  1  0.04103000  0.47631200  0.65957800  1
  H  1052  1  0.94562900  0.49160700  0.68907700  1
  H  1054  1  0.99657400  0.44354400  0.64171000  1
  H  1056  1  0.01004000  0.56237100  0.74009000  1
  H  1063  1  0.79139000  0.72646200  0.22245700  1
  H  1064  1  0.69600500  0.74168900  0.19289200  1
  H  1065  1  0.71598100  0.77968700  0.15977000  1
  H  1066  1  0.81136400  0.76446000  0.18933400  1
  H  1068  1  0.76043100  0.81232700  0.14178300  1
  H  1070  1  0.74694800  0.69387300  0.24049500  1
  H  1077  1  0.29166000  0.02986100  0.40987800  1
  H  1078  1  0.19619200  0.01438100  0.43914600  1
  H  1079  1  0.21611300  0.97633100  0.47224900  1
  H  1080  1  0.31158000  0.99181000  0.44298300  1
  H  1082  1  0.26055800  0.94367400  0.49025000  1
  H  1084  1  0.24722200  0.06242800  0.39179000  1
  H  1091  1  0.21623300  0.28131000  0.16031500  1
  H  1092  1  0.31140100  0.26352200  0.18932000  1
  H  1093  1  0.29083300  0.22477300  0.22158600  1
  H  1094  1  0.19566800  0.24256100  0.19258100  1
  H  1096  1  0.24558000  0.19108900  0.23758500  1
  H  1098  1  0.26146500  0.31492300  0.14424100  1
  H  1105  1  0.71719700  0.97490900  0.97125400  1
  H  1106  1  0.81251600  0.99180500  0.94223800  1
  H  1107  1  0.79225600  0.03021300  0.90958200  1
  H  1108  1  0.69691000  0.01331800  0.93857900  1
  H  1110  1  0.74755200  0.06244100  0.89168900  1
  H  1112  1  0.76224500  0.94112000  0.98759400  1
  H  1119  1  0.46663900  0.03145300  0.72164400  1
  H  1120  1  0.56178800  0.01321600  0.69281000  1
  H  1121  1  0.54113800  0.97443900  0.66061000  1
  H  1122  1  0.44598600  0.99267600  0.68944400  1
  H  1124  1  0.49582500  0.94100100  0.64449300  1
  H  1126  1  0.51199100  0.06504800  0.73758800  1
  H  1133  1  0.96633800  0.72507200  0.90999700  1
  H  1134  1  0.06139300  0.74198700  0.93965100  1
  H  1135  1  0.04084500  0.78068400  0.97197800  1
  H  1136  1  0.94578900  0.76376800  0.94232400  1
  H  1138  1  0.99568600  0.81470300  0.98774000  1
  H  1140  1  0.01148400  0.69114700  0.89413000  1
  H  1147  1  0.04021900  0.28101200  0.47122600  1
  H  1148  1  0.94497100  0.26431000  0.44195000  1
  H  1149  1  0.96528500  0.22592300  0.40930000  1
  H  1150  1  0.06055700  0.24262400  0.43855800  1
  H  1152  1  0.01000100  0.19360400  0.39152900  1
  H  1154  1  0.99517900  0.31478900  0.48754800  1
  H  1161  1  0.46498200  0.53042200  0.22229100  1
  H  1162  1  0.56038200  0.51329600  0.19352900  1
  H  1163  1  0.54011700  0.47490800  0.16082800  1
  H  1164  1  0.44474200  0.49203400  0.18961000  1
  H  1166  1  0.49506600  0.44125900  0.14434300  1
  H  1168  1  0.50969100  0.56253500  0.24030300  1
  H  1194  1  0.22064400  0.10736800  0.55871500  1
  H  1195  1  0.19025100  0.13898100  0.52675500  1
  H  1196  1  0.14298800  0.04137600  0.56539400  1
  H  1197  1  0.11248900  0.07296000  0.53321100  1
  H  1198  1  0.06723100  0.11729600  0.52662000  1
  H  1199  1  0.03669300  0.14890300  0.55846200  1
  H  1200  1  0.11422700  0.21502500  0.56526400  1
  H  1201  1  0.14489100  0.18341600  0.53320900  1
  H  1202  1  0.11549500  0.18859800  0.48042700  1
  H  1203  1  0.14596800  0.22021000  0.44836700  1
  H  1204  1  0.21552300  0.14562600  0.44286500  1
  H  1205  1  0.18522500  0.11403800  0.47507000  1
  H  1206  1  0.14214100  0.06771000  0.48049100  1
  H  1207  1  0.07238300  0.14222600  0.47492900  1
  H  1208  1  0.04220300  0.11058700  0.44266400  1
  H  1213  1  0.11180400  0.03606900  0.44835900  1
  H  1239  1  0.53679600  0.14878800  0.05858880  1
  H  1240  1  0.56720900  0.11714600  0.02667080  1
  H  1241  1  0.61460300  0.21456400  0.06553580  1
  H  1242  1  0.64512300  0.18294900  0.03338480  1
  H  1243  1  0.69044100  0.13862500  0.02654980  1
  H  1244  1  0.72096300  0.10703400  0.05841080  1
  H  1245  1  0.64325100  0.04116700  0.06551780  1
  H  1246  1  0.61260500  0.07275900  0.03343880  1
  H  1247  1  0.64193600  0.06725000  0.98067000  1
  H  1248  1  0.61144100  0.03564000  0.94862900  1
  H  1249  1  0.54217400  0.11045800  0.94279200  1
  H  1250  1  0.57249200  0.14204200  0.97498300  1
  H  1251  1  0.61554000  0.18840200  0.98066800  1
  H  1252  1  0.68505600  0.11368300  0.97487400  1
  H  1253  1  0.71523900  0.14528500  0.94258300  1
  H  1258  1  0.64588200  0.22000400  0.94851900  1
  H  1284  1  0.03680200  0.60748500  0.94838500  1
  H  1285  1  0.06717700  0.63909600  0.98037200  1
  H  1286  1  0.11409600  0.54099000  0.94237600  1
  H  1287  1  0.14457400  0.57257700  0.97456500  1
  H  1288  1  0.18966600  0.61700200  0.98047400  1
  H  1289  1  0.22016900  0.64861100  0.94859800  1
  H  1290  1  0.14300000  0.71525100  0.94252000  1
  H  1291  1  0.11237300  0.68363000  0.97458600  1
  H  1292  1  0.14187800  0.68822200  0.02740480  1
  H  1293  1  0.11142400  0.71980200  0.05950680  1
  H  1294  1  0.04136200  0.64563000  0.06431180  1
  H  1295  1  0.07165500  0.61407500  0.03208480  1
  H  1296  1  0.11485800  0.56789600  0.02733380  1
  H  1297  1  0.18510600  0.64201100  0.03218880  1
  H  1298  1  0.21530100  0.61041200  0.06445980  1
  H  1303  1  0.14520200  0.53628900  0.05949180  1
  H  1329  1  0.72037600  0.64883700  0.44899200  1
  H  1330  1  0.68995400  0.61719100  0.48090500  1
  H  1331  1  0.64262300  0.71468600  0.44212100  1
  H  1332  1  0.61209300  0.68307000  0.47426300  1
  H  1333  1  0.56679900  0.63872700  0.48099800  1
  H  1334  1  0.53628900  0.60712800  0.44913400  1
  H  1335  1  0.61395100  0.54117900  0.44215300  1
  H  1336  1  0.64458700  0.57277800  0.47423400  1
  H  1337  1  0.61521000  0.56738400  0.52698400  1
  H  1338  1  0.64569300  0.53576300  0.55902800  1
  H  1339  1  0.71504800  0.61050700  0.56479500  1
  H  1340  1  0.68474400  0.64210400  0.53259900  1
  H  1341  1  0.64167400  0.68844500  0.52699600  1
  H  1342  1  0.57208500  0.61378100  0.53267900  1
  H  1343  1  0.54188700  0.64538300  0.56496100  1
  H  1348  1  0.61131700  0.72004700  0.55913600  1
  H  1374  1  0.86122900  0.46973400  0.69775500  1
  H  1375  1  0.89173200  0.43809800  0.72979000  1
  H  1376  1  0.79107400  0.39563800  0.69305400  1
  H  1377  1  0.82141500  0.36402900  0.72520400  1
  H  1378  1  0.86470500  0.31792000  0.72968700  1
  H  1379  1  0.89513000  0.28638900  0.69752600  1
  H  1380  1  0.96534600  0.36043700  0.69295600  1
  H  1381  1  0.93506300  0.39196300  0.72522000  1
  H  1382  1  0.93942000  0.36690300  0.77690900  1
  H  1383  1  0.96978700  0.39850000  0.80891400  1
  H  1384  1  0.89258800  0.46512800  0.81476200  1
  H  1385  1  0.86211400  0.43355100  0.78256700  1
  H  1386  1  0.81709700  0.38905300  0.77694400  1
  H  1387  1  0.89433200  0.32230800  0.78246900  1
  H  1388  1  0.86380700  0.29065800  0.81458100  1
  H  1393  1  0.78670100  0.35741700  0.80887600  1
  H  1419  1  0.89602000  0.78580600  0.19841900  1
  H  1420  1  0.86561900  0.81746600  0.23049500  1
  H  1421  1  0.96561700  0.86033900  0.19279400  1
  H  1422  1  0.93538300  0.89197500  0.22501000  1
  H  1423  1  0.89232100  0.93829700  0.23037200  1
  H  1424  1  0.86195000  0.96987900  0.19822500  1
  H  1425  1  0.79227000  0.89541200  0.19279000  1
  H  1426  1  0.82249200  0.86383400  0.22506800  1
  H  1427  1  0.81747800  0.88880200  0.27674200  1
  H  1428  1  0.78705800  0.85725900  0.30873100  1
  H  1429  1  0.86466100  0.79121300  0.31547200  1
  H  1430  1  0.89518400  0.82272900  0.28326000  1
  H  1431  1  0.94044300  0.86707200  0.27673000  1
  H  1432  1  0.86280100  0.93323000  0.28315400  1
  H  1433  1  0.89340800  0.96485600  0.31523200  1
  H  1438  1  0.97092900  0.89869300  0.30859700  1
  H  1464  1  0.36130300  0.28614200  0.30938000  1
  H  1465  1  0.39175200  0.31777500  0.27731200  1
  H  1466  1  0.29137600  0.36041700  0.31445800  1
  H  1467  1  0.32165600  0.39202400  0.28226100  1
  H  1468  1  0.36480800  0.43823200  0.27735500  1
  H  1469  1  0.39518700  0.46981900  0.30950500  1
  H  1470  1  0.46520100  0.39562100  0.31450000  1
  H  1471  1  0.43497200  0.36404100  0.28223600  1
  H  1472  1  0.43961400  0.38903100  0.23053900  1
  H  1473  1  0.47002300  0.35745300  0.19855400  1
  H  1474  1  0.39268800  0.29102200  0.19236000  1
  H  1475  1  0.36217600  0.32258000  0.22454900  1
  H  1476  1  0.31702300  0.36697800  0.23054500  1
  H  1477  1  0.39438400  0.43352600  0.22457600  1
  H  1478  1  0.36378200  0.46512600  0.19247500  1
  H  1483  1  0.28654900  0.39856800  0.19864000  1
  H  1509  1  0.39595600  0.96986700  0.80974000  1
  H  1510  1  0.36545300  0.93827500  0.77767400  1
  H  1511  1  0.46588700  0.89557900  0.81465800  1
  H  1512  1  0.43555200  0.86401800  0.78247100  1
  H  1513  1  0.39231500  0.81789100  0.77771400  1
  H  1514  1  0.36186800  0.78632800  0.80983200  1
  H  1515  1  0.29182700  0.86052100  0.81465800  1
  H  1516  1  0.32213400  0.89208100  0.78243100  1
  H  1517  1  0.31761000  0.86707700  0.73072800  1
  H  1518  1  0.28726200  0.89868100  0.69871900  1
  H  1519  1  0.36459200  0.96513900  0.69270200  1
  H  1520  1  0.39504600  0.93355500  0.72490700  1
  H  1521  1  0.44010900  0.88906600  0.73074700  1
  H  1522  1  0.36273400  0.82252100  0.72493700  1
  H  1523  1  0.39327500  0.79087800  0.69282900  1
  H  1528  1  0.47052500  0.85743800  0.69882300  1
  H  1535  1  0.96712600  0.03117600  0.40884400  1
  H  1536  1  0.06251900  0.01395900  0.38014500  1
  H  1537  1  0.04229200  0.97550300  0.34751300  1
  H  1538  1  0.94687500  0.99272000  0.37619600  1
  H  1540  1  0.99758000  0.94332900  0.32956100  1
  H  1542  1  0.01219300  0.06490300  0.42524000  1
  H  1549  1  0.79042200  0.22458500  0.90867300  1
  H  1550  1  0.69498400  0.24203300  0.88019600  1
  H  1551  1  0.71519100  0.28051200  0.84757500  1
  H  1552  1  0.81065500  0.26306600  0.87603300  1
  H  1554  1  0.75991700  0.31271500  0.82965300  1
  H  1556  1  0.74532700  0.19089000  0.92509500  1
  H  1563  1  0.29017000  0.53115000  0.09856180  1
  H  1564  1  0.19479000  0.51388500  0.12726900  1
  H  1565  1  0.21503900  0.47543100  0.15988900  1
  H  1566  1  0.31044300  0.49269400  0.13120100  1
  H  1568  1  0.25977700  0.44320400  0.17776600  1
  H  1570  1  0.24511700  0.56476500  0.08207280  1
  H  1577  1  0.46673600  0.72463600  0.59894300  1
  H  1578  1  0.56218400  0.74215000  0.62736600  1
  H  1579  1  0.54198000  0.78063500  0.65998100  1
  H  1580  1  0.44650500  0.76312100  0.63157900  1
  H  1582  1  0.49724900  0.81278700  0.67794900  1
  H  1584  1  0.51182600  0.69099200  0.58247300  1
  H  1591  1  0.21682600  0.78121000  0.84858900  1
  H  1592  1  0.31211100  0.76408400  0.87759000  1
  H  1593  1  0.29177600  0.72563700  0.91017900  1
  H  1594  1  0.19646800  0.74276100  0.88119700  1
  H  1596  1  0.24701100  0.69337100  0.92793900  1
  H  1598  1  0.26192800  0.81491000  0.83225900  1
  H  1605  1  0.71596000  0.47458300  0.65930100  1
  H  1606  1  0.81111400  0.49264500  0.63039200  1
  H  1607  1  0.79049500  0.53142600  0.59818200  1
  H  1608  1  0.69534100  0.51336600  0.62709300  1
  H  1610  1  0.74518400  0.56507500  0.58224200  1
  H  1612  1  0.76123600  0.44108400  0.67540800  1
  H  1619  1  0.54122800  0.27976300  0.15996900  1
  H  1620  1  0.44583600  0.26441700  0.13047100  1
  H  1621  1  0.46581200  0.22636100  0.09739980  1
  H  1622  1  0.56120600  0.24170900  0.12689300  1
  H  1624  1  0.51025900  0.19378700  0.07936480  1
  H  1626  1  0.49676100  0.31248700  0.17785500  1
  H  1633  1  0.96558800  0.52967000  0.90993100  1
  H  1634  1  0.06099000  0.51437500  0.88043100  1
  H  1635  1  0.04103000  0.47631200  0.84735400  1
  H  1636  1  0.94562900  0.49160700  0.87685300  1
  H  1638  1  0.99657400  0.44354400  0.82948600  1
  H  1640  1  0.01004000  0.56237100  0.92786600  1
  H  1647  1  0.79139000  0.72646200  0.41023300  1
  H  1648  1  0.69600500  0.74168900  0.38066800  1
  H  1649  1  0.71598100  0.77968700  0.34754600  1
  H  1650  1  0.81136400  0.76446000  0.37711000  1
  H  1652  1  0.76043100  0.81232700  0.32955900  1
  H  1654  1  0.74694800  0.69387300  0.42827100  1
  H  1661  1  0.29166000  0.02986100  0.59765400  1
  H  1662  1  0.19619200  0.01438100  0.62692200  1
  H  1663  1  0.21611300  0.97633100  0.66002500  1
  H  1664  1  0.31158000  0.99181000  0.63075900  1
  H  1666  1  0.26055800  0.94367400  0.67802600  1
  H  1668  1  0.24722200  0.06242800  0.57956600  1
  H  1675  1  0.21623300  0.28131000  0.34809100  1
  H  1676  1  0.31140100  0.26352200  0.37709600  1
  H  1677  1  0.29083300  0.22477300  0.40936200  1
  H  1678  1  0.19566800  0.24256100  0.38035700  1
  H  1680  1  0.24558000  0.19108900  0.42536100  1
  H  1682  1  0.26146500  0.31492300  0.33201700  1
  H  1689  1  0.71719700  0.97490900  0.15903000  1
  H  1690  1  0.81251600  0.99180500  0.13001400  1
  H  1691  1  0.79225600  0.03021300  0.09735780  1
  H  1692  1  0.69691000  0.01331800  0.12635500  1
  H  1694  1  0.74755200  0.06244100  0.07946480  1
  H  1696  1  0.76224500  0.94112000  0.17537000  1
  H  1703  1  0.46663900  0.03145300  0.90942000  1
  H  1704  1  0.56178800  0.01321600  0.88058600  1
  H  1705  1  0.54113800  0.97443900  0.84838600  1
  H  1706  1  0.44598600  0.99267600  0.87722000  1
  H  1708  1  0.49582500  0.94100100  0.83226900  1
  H  1710  1  0.51199100  0.06504800  0.92536400  1
  H  1717  1  0.96633800  0.72507200  0.09777280  1
  H  1718  1  0.06139300  0.74198700  0.12742700  1
  H  1719  1  0.04084500  0.78068400  0.15975400  1
  H  1720  1  0.94578900  0.76376800  0.13010000  1
  H  1722  1  0.99568600  0.81470300  0.17551600  1
  H  1724  1  0.01148400  0.69114700  0.08190580  1
  H  1731  1  0.04021900  0.28101200  0.65900200  1
  H  1732  1  0.94497100  0.26431000  0.62972600  1
  H  1733  1  0.96528500  0.22592300  0.59707600  1
  H  1734  1  0.06055700  0.24262400  0.62633400  1
  H  1736  1  0.01000100  0.19360400  0.57930500  1
  H  1738  1  0.99517900  0.31478900  0.67532400  1
  H  1745  1  0.46498200  0.53042200  0.41006700  1
  H  1746  1  0.56038200  0.51329600  0.38130500  1
  H  1747  1  0.54011700  0.47490800  0.34860400  1
  H  1748  1  0.44474200  0.49203400  0.37738600  1
  H  1750  1  0.49506600  0.44125900  0.33211900  1
  H  1752  1  0.50969100  0.56253500  0.42807900  1
  H  1778  1  0.22064400  0.10736800  0.74649000  1
  H  1779  1  0.19025100  0.13898100  0.71453000  1
  H  1780  1  0.14298800  0.04137600  0.75316900  1
  H  1781  1  0.11248900  0.07296000  0.72098600  1
  H  1782  1  0.06723100  0.11729600  0.71439500  1
  H  1783  1  0.03669300  0.14890300  0.74623700  1
  H  1784  1  0.11422700  0.21502500  0.75303900  1
  H  1785  1  0.14489100  0.18341600  0.72098400  1
  H  1786  1  0.11549500  0.18859800  0.66820200  1
  H  1787  1  0.14596800  0.22021000  0.63614200  1
  H  1788  1  0.21552300  0.14562600  0.63064000  1
  H  1789  1  0.18522500  0.11403800  0.66284500  1
  H  1790  1  0.14214100  0.06771000  0.66826600  1
  H  1791  1  0.07238300  0.14222600  0.66270400  1
  H  1792  1  0.04220300  0.11058700  0.63043900  1
  H  1797  1  0.11180400  0.03606900  0.63613400  1
  H  1823  1  0.53679600  0.14878800  0.24636400  1
  H  1824  1  0.56720900  0.11714600  0.21444600  1
  H  1825  1  0.61460300  0.21456400  0.25331100  1
  H  1826  1  0.64512300  0.18294900  0.22116000  1
  H  1827  1  0.69044100  0.13862500  0.21432500  1
  H  1828  1  0.72096300  0.10703400  0.24618600  1
  H  1829  1  0.64325100  0.04116700  0.25329300  1
  H  1830  1  0.61260500  0.07275900  0.22121400  1
  H  1831  1  0.64193600  0.06725000  0.16844500  1
  H  1832  1  0.61144100  0.03564000  0.13640400  1
  H  1833  1  0.54217400  0.11045800  0.13056700  1
  H  1834  1  0.57249200  0.14204200  0.16275800  1
  H  1835  1  0.61554000  0.18840200  0.16844300  1
  H  1836  1  0.68505600  0.11368300  0.16264900  1
  H  1837  1  0.71523900  0.14528500  0.13035800  1
  H  1842  1  0.64588200  0.22000400  0.13629400  1
  H  1868  1  0.03680200  0.60748500  0.13616000  1
  H  1869  1  0.06717700  0.63909600  0.16814700  1
  H  1870  1  0.11409600  0.54099000  0.13015100  1
  H  1871  1  0.14457400  0.57257700  0.16234000  1
  H  1872  1  0.18966600  0.61700200  0.16824900  1
  H  1873  1  0.22016900  0.64861100  0.13637300  1
  H  1874  1  0.14300000  0.71525100  0.13029500  1
  H  1875  1  0.11237300  0.68363000  0.16236100  1
  H  1876  1  0.14187800  0.68822200  0.21518000  1
  H  1877  1  0.11142400  0.71980200  0.24728200  1
  H  1878  1  0.04136200  0.64563000  0.25208700  1
  H  1879  1  0.07165500  0.61407500  0.21986000  1
  H  1880  1  0.11485800  0.56789600  0.21510900  1
  H  1881  1  0.18510600  0.64201100  0.21996400  1
  H  1882  1  0.21530100  0.61041200  0.25223500  1
  H  1887  1  0.14520200  0.53628900  0.24726700  1
  H  1913  1  0.72037600  0.64883700  0.63676700  1
  H  1914  1  0.68995400  0.61719100  0.66868000  1
  H  1915  1  0.64262300  0.71468600  0.62989600  1
  H  1916  1  0.61209300  0.68307000  0.66203800  1
  H  1917  1  0.56679900  0.63872700  0.66877300  1
  H  1918  1  0.53628900  0.60712800  0.63690900  1
  H  1919  1  0.61395100  0.54117900  0.62992800  1
  H  1920  1  0.64458700  0.57277800  0.66200900  1
  H  1921  1  0.61521000  0.56738400  0.71475900  1
  H  1922  1  0.64569300  0.53576300  0.74680300  1
  H  1923  1  0.71504800  0.61050700  0.75257000  1
  H  1924  1  0.68474400  0.64210400  0.72037400  1
  H  1925  1  0.64167400  0.68844500  0.71477100  1
  H  1926  1  0.57208500  0.61378100  0.72045400  1
  H  1927  1  0.54188700  0.64538300  0.75273600  1
  H  1932  1  0.61131700  0.72004700  0.74691100  1
  H  1958  1  0.86122900  0.46973400  0.88553000  1
  H  1959  1  0.89173200  0.43809800  0.91756500  1
  H  1960  1  0.79107400  0.39563800  0.88082900  1
  H  1961  1  0.82141500  0.36402900  0.91297900  1
  H  1962  1  0.86470500  0.31792000  0.91746200  1
  H  1963  1  0.89513000  0.28638900  0.88530100  1
  H  1964  1  0.96534600  0.36043700  0.88073100  1
  H  1965  1  0.93506300  0.39196300  0.91299500  1
  H  1966  1  0.93942000  0.36690300  0.96468400  1
  H  1967  1  0.96978700  0.39850000  0.99668900  1
  H  1968  1  0.89258800  0.46512800  0.00253721  1
  H  1969  1  0.86211400  0.43355100  0.97034200  1
  H  1970  1  0.81709700  0.38905300  0.96471900  1
  H  1971  1  0.89433200  0.32230800  0.97024400  1
  H  1972  1  0.86380700  0.29065800  0.00235621  1
  H  1977  1  0.78670100  0.35741700  0.99665100  1
  H  2003  1  0.89602000  0.78580600  0.38619400  1
  H  2004  1  0.86561900  0.81746600  0.41827000  1
  H  2005  1  0.96561700  0.86033900  0.38056900  1
  H  2006  1  0.93538300  0.89197500  0.41278500  1
  H  2007  1  0.89232100  0.93829700  0.41814700  1
  H  2008  1  0.86195000  0.96987900  0.38600000  1
  H  2009  1  0.79227000  0.89541200  0.38056500  1
  H  2010  1  0.82249200  0.86383400  0.41284300  1
  H  2011  1  0.81747800  0.88880200  0.46451700  1
  H  2012  1  0.78705800  0.85725900  0.49650600  1
  H  2013  1  0.86466100  0.79121300  0.50324700  1
  H  2014  1  0.89518400  0.82272900  0.47103500  1
  H  2015  1  0.94044300  0.86707200  0.46450500  1
  H  2016  1  0.86280100  0.93323000  0.47092900  1
  H  2017  1  0.89340800  0.96485600  0.50300700  1
  H  2022  1  0.97092900  0.89869300  0.49637200  1
  H  2048  1  0.36130300  0.28614200  0.49715500  1
  H  2049  1  0.39175200  0.31777500  0.46508700  1
  H  2050  1  0.29137600  0.36041700  0.50223300  1
  H  2051  1  0.32165600  0.39202400  0.47003600  1
  H  2052  1  0.36480800  0.43823200  0.46513000  1
  H  2053  1  0.39518700  0.46981900  0.49728000  1
  H  2054  1  0.46520100  0.39562100  0.50227500  1
  H  2055  1  0.43497200  0.36404100  0.47001100  1
  H  2056  1  0.43961400  0.38903100  0.41831400  1
  H  2057  1  0.47002300  0.35745300  0.38632900  1
  H  2058  1  0.39268800  0.29102200  0.38013500  1
  H  2059  1  0.36217600  0.32258000  0.41232400  1
  H  2060  1  0.31702300  0.36697800  0.41832000  1
  H  2061  1  0.39438400  0.43352600  0.41235100  1
  H  2062  1  0.36378200  0.46512600  0.38025000  1
  H  2067  1  0.28654900  0.39856800  0.38641500  1
  H  2093  1  0.39595600  0.96986700  0.99751500  1
  H  2094  1  0.36545300  0.93827500  0.96544900  1
  H  2095  1  0.46588700  0.89557900  0.00243321  1
  H  2096  1  0.43555200  0.86401800  0.97024600  1
  H  2097  1  0.39231500  0.81789100  0.96548900  1
  H  2098  1  0.36186800  0.78632800  0.99760700  1
  H  2099  1  0.29182700  0.86052100  0.00243321  1
  H  2100  1  0.32213400  0.89208100  0.97020600  1
  H  2101  1  0.31761000  0.86707700  0.91850300  1
  H  2102  1  0.28726200  0.89868100  0.88649400  1
  H  2103  1  0.36459200  0.96513900  0.88047700  1
  H  2104  1  0.39504600  0.93355500  0.91268200  1
  H  2105  1  0.44010900  0.88906600  0.91852200  1
  H  2106  1  0.36273400  0.82252100  0.91271200  1
  H  2107  1  0.39327500  0.79087800  0.88060400  1
  H  2112  1  0.47052500  0.85743800  0.88659800  1
  H  2119  1  0.96712600  0.03117600  0.59661900  1
  H  2120  1  0.06251900  0.01395900  0.56792000  1
  H  2121  1  0.04229200  0.97550300  0.53528800  1
  H  2122  1  0.94687500  0.99272000  0.56397100  1
  H  2124  1  0.99758000  0.94332900  0.51733600  1
  H  2126  1  0.01219300  0.06490300  0.61301500  1
  H  2133  1  0.79042200  0.22458500  0.09644820  1
  H  2134  1  0.69498400  0.24203300  0.06797120  1
  H  2135  1  0.71519100  0.28051200  0.03535020  1
  H  2136  1  0.81065500  0.26306600  0.06380820  1
  H  2138  1  0.75991700  0.31271500  0.01742820  1
  H  2140  1  0.74532700  0.19089000  0.11287000  1
  H  2147  1  0.29017000  0.53115000  0.28633700  1
  H  2148  1  0.19479000  0.51388500  0.31504400  1
  H  2149  1  0.21503900  0.47543100  0.34766400  1
  H  2150  1  0.31044300  0.49269400  0.31897600  1
  H  2152  1  0.25977700  0.44320400  0.36554100  1
  H  2154  1  0.24511700  0.56476500  0.26984800  1
  H  2161  1  0.46673600  0.72463600  0.78671800  1
  H  2162  1  0.56218400  0.74215000  0.81514100  1
  H  2163  1  0.54198000  0.78063500  0.84775600  1
  H  2164  1  0.44650500  0.76312100  0.81935400  1
  H  2166  1  0.49724900  0.81278700  0.86572400  1
  H  2168  1  0.51182600  0.69099200  0.77024800  1
  H  2175  1  0.21682600  0.78121000  0.03636420  1
  H  2176  1  0.31211100  0.76408400  0.06536520  1
  H  2177  1  0.29177600  0.72563700  0.09795420  1
  H  2178  1  0.19646800  0.74276100  0.06897220  1
  H  2180  1  0.24701100  0.69337100  0.11571400  1
  H  2182  1  0.26192800  0.81491000  0.02003420  1
  H  2189  1  0.71596000  0.47458300  0.84707600  1
  H  2190  1  0.81111400  0.49264500  0.81816700  1
  H  2191  1  0.79049500  0.53142600  0.78595700  1
  H  2192  1  0.69534100  0.51336600  0.81486800  1
  H  2194  1  0.74518400  0.56507500  0.77001700  1
  H  2196  1  0.76123600  0.44108400  0.86318300  1
  H  2203  1  0.54122800  0.27976300  0.34774400  1
  H  2204  1  0.44583600  0.26441700  0.31824600  1
  H  2205  1  0.46581200  0.22636100  0.28517500  1
  H  2206  1  0.56120600  0.24170900  0.31466800  1
  H  2208  1  0.51025900  0.19378700  0.26714000  1
  H  2210  1  0.49676100  0.31248700  0.36563000  1
  H  2217  1  0.96558800  0.52967000  0.09770620  1
  H  2218  1  0.06099000  0.51437500  0.06820620  1
  H  2219  1  0.04103000  0.47631200  0.03512920  1
  H  2220  1  0.94562900  0.49160700  0.06462820  1
  H  2222  1  0.99657400  0.44354400  0.01726120  1
  H  2224  1  0.01004000  0.56237100  0.11564100  1
  H  2231  1  0.79139000  0.72646200  0.59800800  1
  H  2232  1  0.69600500  0.74168900  0.56844300  1
  H  2233  1  0.71598100  0.77968700  0.53532100  1
  H  2234  1  0.81136400  0.76446000  0.56488500  1
  H  2236  1  0.76043100  0.81232700  0.51733400  1
  H  2238  1  0.74694800  0.69387300  0.61604600  1
  H  2245  1  0.29166000  0.02986100  0.78542900  1
  H  2246  1  0.19619200  0.01438100  0.81469700  1
  H  2247  1  0.21611300  0.97633100  0.84780000  1
  H  2248  1  0.31158000  0.99181000  0.81853400  1
  H  2250  1  0.26055800  0.94367400  0.86580100  1
  H  2252  1  0.24722200  0.06242800  0.76734100  1
  H  2259  1  0.21623300  0.28131000  0.53586600  1
  H  2260  1  0.31140100  0.26352200  0.56487100  1
  H  2261  1  0.29083300  0.22477300  0.59713700  1
  H  2262  1  0.19566800  0.24256100  0.56813200  1
  H  2264  1  0.24558000  0.19108900  0.61313600  1
  H  2266  1  0.26146500  0.31492300  0.51979200  1
  H  2273  1  0.71719700  0.97490900  0.34680500  1
  H  2274  1  0.81251600  0.99180500  0.31778900  1
  H  2275  1  0.79225600  0.03021300  0.28513300  1
  H  2276  1  0.69691000  0.01331800  0.31413000  1
  H  2278  1  0.74755200  0.06244100  0.26724000  1
  H  2280  1  0.76224500  0.94112000  0.36314500  1
  H  2287  1  0.46663900  0.03145300  0.09719520  1
  H  2288  1  0.56178800  0.01321600  0.06836120  1
  H  2289  1  0.54113800  0.97443900  0.03616120  1
  H  2290  1  0.44598600  0.99267600  0.06499520  1
  H  2292  1  0.49582500  0.94100100  0.02004420  1
  H  2294  1  0.51199100  0.06504800  0.11313900  1
  H  2301  1  0.96633800  0.72507200  0.28554800  1
  H  2302  1  0.06139300  0.74198700  0.31520200  1
  H  2303  1  0.04084500  0.78068400  0.34752900  1
  H  2304  1  0.94578900  0.76376800  0.31787500  1
  H  2306  1  0.99568600  0.81470300  0.36329100  1
  H  2308  1  0.01148400  0.69114700  0.26968100  1
  H  2315  1  0.04021900  0.28101200  0.84677700  1
  H  2316  1  0.94497100  0.26431000  0.81750100  1
  H  2317  1  0.96528500  0.22592300  0.78485100  1
  H  2318  1  0.06055700  0.24262400  0.81410900  1
  H  2320  1  0.01000100  0.19360400  0.76708000  1
  H  2322  1  0.99517900  0.31478900  0.86309900  1
  H  2329  1  0.46498200  0.53042200  0.59784200  1
  H  2330  1  0.56038200  0.51329600  0.56908000  1
  H  2331  1  0.54011700  0.47490800  0.53637900  1
  H  2332  1  0.44474200  0.49203400  0.56516100  1
  H  2334  1  0.49506600  0.44125900  0.51989400  1
  H  2336  1  0.50969100  0.56253500  0.61585400  1
  H  2362  1  0.22064400  0.10736800  0.93426600  1
  H  2363  1  0.19025100  0.13898100  0.90230600  1
  H  2364  1  0.14298800  0.04137600  0.94094500  1
  H  2365  1  0.11248900  0.07296000  0.90876200  1
  H  2366  1  0.06723100  0.11729600  0.90217100  1
  H  2367  1  0.03669300  0.14890300  0.93401300  1
  H  2368  1  0.11422700  0.21502500  0.94081500  1
  H  2369  1  0.14489100  0.18341600  0.90876000  1
  H  2370  1  0.11549500  0.18859800  0.85597800  1
  H  2371  1  0.14596800  0.22021000  0.82391800  1
  H  2372  1  0.21552300  0.14562600  0.81841600  1
  H  2373  1  0.18522500  0.11403800  0.85062100  1
  H  2374  1  0.14214100  0.06771000  0.85604200  1
  H  2375  1  0.07238300  0.14222600  0.85048000  1
  H  2376  1  0.04220300  0.11058700  0.81821500  1
  H  2381  1  0.11180400  0.03606900  0.82391000  1
  H  2407  1  0.53679600  0.14878800  0.43414000  1
  H  2408  1  0.56720900  0.11714600  0.40222200  1
  H  2409  1  0.61460300  0.21456400  0.44108700  1
  H  2410  1  0.64512300  0.18294900  0.40893600  1
  H  2411  1  0.69044100  0.13862500  0.40210100  1
  H  2412  1  0.72096300  0.10703400  0.43396200  1
  H  2413  1  0.64325100  0.04116700  0.44106900  1
  H  2414  1  0.61260500  0.07275900  0.40899000  1
  H  2415  1  0.64193600  0.06725000  0.35622100  1
  H  2416  1  0.61144100  0.03564000  0.32418000  1
  H  2417  1  0.54217400  0.11045800  0.31834300  1
  H  2418  1  0.57249200  0.14204200  0.35053400  1
  H  2419  1  0.61554000  0.18840200  0.35621900  1
  H  2420  1  0.68505600  0.11368300  0.35042500  1
  H  2421  1  0.71523900  0.14528500  0.31813400  1
  H  2426  1  0.64588200  0.22000400  0.32407000  1
  H  2452  1  0.03680200  0.60748500  0.32393600  1
  H  2453  1  0.06717700  0.63909600  0.35592300  1
  H  2454  1  0.11409600  0.54099000  0.31792700  1
  H  2455  1  0.14457400  0.57257700  0.35011600  1
  H  2456  1  0.18966600  0.61700200  0.35602500  1
  H  2457  1  0.22016900  0.64861100  0.32414900  1
  H  2458  1  0.14300000  0.71525100  0.31807100  1
  H  2459  1  0.11237300  0.68363000  0.35013700  1
  H  2460  1  0.14187800  0.68822200  0.40295600  1
  H  2461  1  0.11142400  0.71980200  0.43505800  1
  H  2462  1  0.04136200  0.64563000  0.43986300  1
  H  2463  1  0.07165500  0.61407500  0.40763600  1
  H  2464  1  0.11485800  0.56789600  0.40288500  1
  H  2465  1  0.18510600  0.64201100  0.40774000  1
  H  2466  1  0.21530100  0.61041200  0.44001100  1
  H  2471  1  0.14520200  0.53628900  0.43504300  1
  H  2497  1  0.72037600  0.64883700  0.82454300  1
  H  2498  1  0.68995400  0.61719100  0.85645600  1
  H  2499  1  0.64262300  0.71468600  0.81767200  1
  H  2500  1  0.61209300  0.68307000  0.84981400  1
  H  2501  1  0.56679900  0.63872700  0.85654900  1
  H  2502  1  0.53628900  0.60712800  0.82468500  1
  H  2503  1  0.61395100  0.54117900  0.81770400  1
  H  2504  1  0.64458700  0.57277800  0.84978500  1
  H  2505  1  0.61521000  0.56738400  0.90253500  1
  H  2506  1  0.64569300  0.53576300  0.93457900  1
  H  2507  1  0.71504800  0.61050700  0.94034600  1
  H  2508  1  0.68474400  0.64210400  0.90815000  1
  H  2509  1  0.64167400  0.68844500  0.90254700  1
  H  2510  1  0.57208500  0.61378100  0.90823000  1
  H  2511  1  0.54188700  0.64538300  0.94051200  1
  H  2516  1  0.61131700  0.72004700  0.93468700  1
  H  2542  1  0.86122900  0.46973400  0.07330560  1
  H  2543  1  0.89173200  0.43809800  0.10534100  1
  H  2544  1  0.79107400  0.39563800  0.06860460  1
  H  2545  1  0.82141500  0.36402900  0.10075500  1
  H  2546  1  0.86470500  0.31792000  0.10523800  1
  H  2547  1  0.89513000  0.28638900  0.07307660  1
  H  2548  1  0.96534600  0.36043700  0.06850660  1
  H  2549  1  0.93506300  0.39196300  0.10077100  1
  H  2550  1  0.93942000  0.36690300  0.15246000  1
  H  2551  1  0.96978700  0.39850000  0.18446500  1
  H  2552  1  0.89258800  0.46512800  0.19031300  1
  H  2553  1  0.86211400  0.43355100  0.15811800  1
  H  2554  1  0.81709700  0.38905300  0.15249500  1
  H  2555  1  0.89433200  0.32230800  0.15802000  1
  H  2556  1  0.86380700  0.29065800  0.19013200  1
  H  2561  1  0.78670100  0.35741700  0.18442700  1
  H  2587  1  0.89602000  0.78580600  0.57397000  1
  H  2588  1  0.86561900  0.81746600  0.60604600  1
  H  2589  1  0.96561700  0.86033900  0.56834500  1
  H  2590  1  0.93538300  0.89197500  0.60056100  1
  H  2591  1  0.89232100  0.93829700  0.60592300  1
  H  2592  1  0.86195000  0.96987900  0.57377600  1
  H  2593  1  0.79227000  0.89541200  0.56834100  1
  H  2594  1  0.82249200  0.86383400  0.60061900  1
  H  2595  1  0.81747800  0.88880200  0.65229300  1
  H  2596  1  0.78705800  0.85725900  0.68428200  1
  H  2597  1  0.86466100  0.79121300  0.69102300  1
  H  2598  1  0.89518400  0.82272900  0.65881100  1
  H  2599  1  0.94044300  0.86707200  0.65228100  1
  H  2600  1  0.86280100  0.93323000  0.65870500  1
  H  2601  1  0.89340800  0.96485600  0.69078300  1
  H  2606  1  0.97092900  0.89869300  0.68414800  1
  H  2632  1  0.36130300  0.28614200  0.68493100  1
  H  2633  1  0.39175200  0.31777500  0.65286300  1
  H  2634  1  0.29137600  0.36041700  0.69000900  1
  H  2635  1  0.32165600  0.39202400  0.65781200  1
  H  2636  1  0.36480800  0.43823200  0.65290600  1
  H  2637  1  0.39518700  0.46981900  0.68505600  1
  H  2638  1  0.46520100  0.39562100  0.69005100  1
  H  2639  1  0.43497200  0.36404100  0.65778700  1
  H  2640  1  0.43961400  0.38903100  0.60609000  1
  H  2641  1  0.47002300  0.35745300  0.57410500  1
  H  2642  1  0.39268800  0.29102200  0.56791100  1
  H  2643  1  0.36217600  0.32258000  0.60010000  1
  H  2644  1  0.31702300  0.36697800  0.60609600  1
  H  2645  1  0.39438400  0.43352600  0.60012700  1
  H  2646  1  0.36378200  0.46512600  0.56802600  1
  H  2651  1  0.28654900  0.39856800  0.57419100  1
  H  2677  1  0.39595600  0.96986700  0.18529100  1
  H  2678  1  0.36545300  0.93827500  0.15322500  1
  H  2679  1  0.46588700  0.89557900  0.19020900  1
  H  2680  1  0.43555200  0.86401800  0.15802200  1
  H  2681  1  0.39231500  0.81789100  0.15326500  1
  H  2682  1  0.36186800  0.78632800  0.18538300  1
  H  2683  1  0.29182700  0.86052100  0.19020900  1
  H  2684  1  0.32213400  0.89208100  0.15798200  1
  H  2685  1  0.31761000  0.86707700  0.10627900  1
  H  2686  1  0.28726200  0.89868100  0.07426960  1
  H  2687  1  0.36459200  0.96513900  0.06825260  1
  H  2688  1  0.39504600  0.93355500  0.10045800  1
  H  2689  1  0.44010900  0.88906600  0.10629800  1
  H  2690  1  0.36273400  0.82252100  0.10048800  1
  H  2691  1  0.39327500  0.79087800  0.06837960  1
  H  2696  1  0.47052500  0.85743800  0.07437360  1
  H  2703  1  0.96712600  0.03117600  0.78439500  1
  H  2704  1  0.06251900  0.01395900  0.75569600  1
  H  2705  1  0.04229200  0.97550300  0.72306400  1
  H  2706  1  0.94687500  0.99272000  0.75174700  1
  H  2708  1  0.99758000  0.94332900  0.70511200  1
  H  2710  1  0.01219300  0.06490300  0.80079100  1
  H  2717  1  0.79042200  0.22458500  0.28422400  1
  H  2718  1  0.69498400  0.24203300  0.25574700  1
  H  2719  1  0.71519100  0.28051200  0.22312600  1
  H  2720  1  0.81065500  0.26306600  0.25158400  1
  H  2722  1  0.75991700  0.31271500  0.20520400  1
  H  2724  1  0.74532700  0.19089000  0.30064600  1
  H  2731  1  0.29017000  0.53115000  0.47411300  1
  H  2732  1  0.19479000  0.51388500  0.50282000  1
  H  2733  1  0.21503900  0.47543100  0.53544000  1
  H  2734  1  0.31044300  0.49269400  0.50675200  1
  H  2736  1  0.25977700  0.44320400  0.55331700  1
  H  2738  1  0.24511700  0.56476500  0.45762400  1
  H  2745  1  0.46673600  0.72463600  0.97449400  1
  H  2746  1  0.56218400  0.74215000  0.00291662  1
  H  2747  1  0.54198000  0.78063500  0.03553160  1
  H  2748  1  0.44650500  0.76312100  0.00712962  1
  H  2750  1  0.49724900  0.81278700  0.05349960  1
  H  2752  1  0.51182600  0.69099200  0.95802400  1
  H  2759  1  0.21682600  0.78121000  0.22414000  1
  H  2760  1  0.31211100  0.76408400  0.25314100  1
  H  2761  1  0.29177600  0.72563700  0.28573000  1
  H  2762  1  0.19646800  0.74276100  0.25674800  1
  H  2764  1  0.24701100  0.69337100  0.30349000  1
  H  2766  1  0.26192800  0.81491000  0.20781000  1
  H  2773  1  0.71596000  0.47458300  0.03485160  1
  H  2774  1  0.81111400  0.49264500  0.00594262  1
  H  2775  1  0.79049500  0.53142600  0.97373300  1
  H  2776  1  0.69534100  0.51336600  0.00264362  1
  H  2778  1  0.74518400  0.56507500  0.95779300  1
  H  2780  1  0.76123600  0.44108400  0.05095860  1
  H  2787  1  0.54122800  0.27976300  0.53552000  1
  H  2788  1  0.44583600  0.26441700  0.50602200  1
  H  2789  1  0.46581200  0.22636100  0.47295100  1
  H  2790  1  0.56120600  0.24170900  0.50244400  1
  H  2792  1  0.51025900  0.19378700  0.45491600  1
  H  2794  1  0.49676100  0.31248700  0.55340600  1
  H  2801  1  0.96558800  0.52967000  0.28548200  1
  H  2802  1  0.06099000  0.51437500  0.25598200  1
  H  2803  1  0.04103000  0.47631200  0.22290500  1
  H  2804  1  0.94562900  0.49160700  0.25240400  1
  H  2806  1  0.99657400  0.44354400  0.20503700  1
  H  2808  1  0.01004000  0.56237100  0.30341700  1
  H  2815  1  0.79139000  0.72646200  0.78578400  1
  H  2816  1  0.69600500  0.74168900  0.75621900  1
  H  2817  1  0.71598100  0.77968700  0.72309700  1
  H  2818  1  0.81136400  0.76446000  0.75266100  1
  H  2820  1  0.76043100  0.81232700  0.70511000  1
  H  2822  1  0.74694800  0.69387300  0.80382200  1
  H  2829  1  0.29166000  0.02986100  0.97320500  1
  H  2830  1  0.19619200  0.01438100  0.00247262  1
  H  2831  1  0.21611300  0.97633100  0.03557560  1
  H  2832  1  0.31158000  0.99181000  0.00630962  1
  H  2834  1  0.26055800  0.94367400  0.05357660  1
  H  2836  1  0.24722200  0.06242800  0.95511700  1
  H  2843  1  0.21623300  0.28131000  0.72364200  1
  H  2844  1  0.31140100  0.26352200  0.75264700  1
  H  2845  1  0.29083300  0.22477300  0.78491300  1
  H  2846  1  0.19566800  0.24256100  0.75590800  1
  H  2848  1  0.24558000  0.19108900  0.80091200  1
  H  2850  1  0.26146500  0.31492300  0.70756800  1
  H  2857  1  0.71719700  0.97490900  0.53458100  1
  H  2858  1  0.81251600  0.99180500  0.50556500  1
  H  2859  1  0.79225600  0.03021300  0.47290900  1
  H  2860  1  0.69691000  0.01331800  0.50190600  1
  H  2862  1  0.74755200  0.06244100  0.45501600  1
  H  2864  1  0.76224500  0.94112000  0.55092100  1
  H  2871  1  0.46663900  0.03145300  0.28497100  1
  H  2872  1  0.56178800  0.01321600  0.25613700  1
  H  2873  1  0.54113800  0.97443900  0.22393700  1
  H  2874  1  0.44598600  0.99267600  0.25277100  1
  H  2876  1  0.49582500  0.94100100  0.20782000  1
  H  2878  1  0.51199100  0.06504800  0.30091500  1
  H  2885  1  0.96633800  0.72507200  0.47332400  1
  H  2886  1  0.06139300  0.74198700  0.50297800  1
  H  2887  1  0.04084500  0.78068400  0.53530500  1
  H  2888  1  0.94578900  0.76376800  0.50565100  1
  H  2890  1  0.99568600  0.81470300  0.55106700  1
  H  2892  1  0.01148400  0.69114700  0.45745700  1
  H  2899  1  0.04021900  0.28101200  0.03455260  1
  H  2900  1  0.94497100  0.26431000  0.00527662  1
  H  2901  1  0.96528500  0.22592300  0.97262700  1
  H  2902  1  0.06055700  0.24262400  0.00188462  1
  H  2904  1  0.01000100  0.19360400  0.95485600  1
  H  2906  1  0.99517900  0.31478900  0.05087460  1
  H  2913  1  0.46498200  0.53042200  0.78561800  1
  H  2914  1  0.56038200  0.51329600  0.75685600  1
  H  2915  1  0.54011700  0.47490800  0.72415500  1
  H  2916  1  0.44474200  0.49203400  0.75293700  1
  H  2918  1  0.49506600  0.44125900  0.70767000  1
  H  2920  1  0.50969100  0.56253500  0.80363000  1
  C  1  1  0.07326300  0.06951600  0.06782800  1
  C  2  1  0.06274900  0.10085300  0.07561000  1
  C  3  1  0.08070900  0.11950700  0.09476000  1
  C  4  1  0.10918300  0.10740000  0.10786100  1
  C  5  1  0.12057000  0.07689400  0.09804200  1
  C  6  1  0.10288000  0.05819100  0.07875800  1
  C  7  1  0.12876400  0.12815600  0.12832400  1
  C  8  1  0.14841700  0.14889100  0.10789600  1
  C  9  1  0.17691900  0.13675400  0.09486300  1
  C  10  1  0.19494300  0.15537500  0.07573400  1
  C  11  1  0.18449100  0.18672500  0.06792200  1
  C  12  1  0.15484800  0.19807600  0.07878300  1
  C  13  1  0.13708000  0.17939500  0.09803200  1
  C  14  1  0.10850700  0.14824900  0.14878700  1
  C  15  1  0.14894700  0.10807400  0.14884800  1
  C  16  1  0.18014000  0.11789500  0.15822800  1
  C  17  1  0.19819100  0.09932300  0.17737400  1
  C  18  1  0.18532700  0.07043600  0.18875000  1
  C  19  1  0.15344500  0.06164300  0.18138200  1
  C  20  1  0.13556500  0.08031700  0.16221100  1
  C  21  1  0.07729500  0.13840200  0.15809900  1
  C  22  1  0.05915200  0.15698100  0.17717300  1
  C  23  1  0.07193600  0.18589900  0.18856100  1
  C  24  1  0.10383100  0.19472400  0.18125700  1
  C  25  1  0.12180700  0.17603900  0.16215700  1
  C  46  1  0.68429700  0.18644100  0.56785200  1
  C  47  1  0.69473900  0.15506000  0.57557400  1
  C  48  1  0.67677600  0.13642900  0.59473700  1
  C  49  1  0.64837600  0.14860000  0.60791700  1
  C  50  1  0.63706300  0.17916400  0.59816900  1
  C  51  1  0.65475500  0.19784300  0.57886800  1
  C  52  1  0.62880000  0.12785100  0.62838900  1
  C  53  1  0.60915300  0.10708500  0.60798000  1
  C  54  1  0.58074100  0.11928800  0.59483500  1
  C  55  1  0.56269300  0.10066000  0.57573000  1
  C  56  1  0.57306500  0.06925500  0.56800400  1
  C  57  1  0.60262400  0.05782600  0.57897000  1
  C  58  1  0.62040300  0.07650800  0.59821100  1
  C  59  1  0.64907400  0.10778100  0.64885200  1
  C  60  1  0.60861000  0.14794200  0.64890000  1
  C  61  1  0.57735300  0.13819600  0.65818700  1
  C  62  1  0.55928500  0.15679200  0.67730200  1
  C  63  1  0.57219100  0.18561800  0.68875600  1
  C  64  1  0.60412000  0.19433900  0.68147500  1
  C  65  1  0.62201600  0.17564300  0.66232800  1
  C  66  1  0.68033400  0.11757100  0.65809500  1
  C  67  1  0.69846700  0.09900300  0.67718300  1
  C  68  1  0.68562900  0.07015700  0.68866300  1
  C  69  1  0.65368800  0.06140600  0.68144200  1
  C  70  1  0.63572200  0.08008300  0.66232800  1
  C  91  1  0.18397100  0.56954000  0.68857700  1
  C  92  1  0.19463800  0.60074700  0.68056700  1
  C  93  1  0.17666300  0.61937900  0.66141200  1
  C  94  1  0.14803900  0.60735400  0.64849700  1
  C  95  1  0.13651900  0.57700100  0.65855000  1
  C  96  1  0.15422000  0.55831800  0.67784000  1
  C  97  1  0.12840800  0.62806700  0.62804400  1
  C  98  1  0.10871900  0.64875700  0.64847400  1
  C  99  1  0.08007200  0.63670900  0.66133300  1
  C  100  1  0.06205300  0.65530800  0.68048000  1
  C  101  1  0.07265600  0.68653400  0.68850400  1
  C  102  1  0.10243900  0.69776800  0.67783800  1
  C  103  1  0.12020400  0.67910400  0.65857300  1
  C  104  1  0.14861500  0.64820800  0.60758500  1
  C  105  1  0.10825800  0.60793800  0.60753500  1
  C  106  1  0.07720400  0.61790900  0.59793200  1
  C  107  1  0.05915600  0.59932500  0.57879100  1
  C  108  1  0.07191400  0.57029000  0.56761200  1
  C  109  1  0.10370000  0.56135900  0.57516100  1
  C  110  1  0.12156400  0.58003500  0.59434100  1
  C  111  1  0.17968000  0.63820800  0.59803000  1
  C  112  1  0.19780200  0.65679000  0.57894300  1
  C  113  1  0.18512500  0.68586900  0.56777300  1
  C  114  1  0.15333600  0.69483800  0.57528200  1
  C  115  1  0.13538500  0.67614800  0.59439700  1
  C  136  1  0.57286100  0.68651700  0.18863700  1
  C  137  1  0.56240700  0.65514800  0.18089400  1
  C  138  1  0.58037000  0.63652200  0.16172600  1
  C  139  1  0.60879900  0.64867900  0.14858500  1
  C  140  1  0.62013100  0.67922100  0.15836500  1
  C  141  1  0.60243000  0.69790200  0.17766000  1
  C  142  1  0.62839200  0.62793100  0.12812200  1
  C  143  1  0.64803600  0.60718400  0.14854700  1
  C  144  1  0.67647800  0.61935700  0.16165400  1
  C  145  1  0.69450600  0.60073000  0.18077400  1
  C  146  1  0.68411100  0.56933900  0.18851200  1
  C  147  1  0.65452900  0.55793400  0.17756900  1
  C  148  1  0.63675500  0.57662300  0.15832900  1
  C  149  1  0.60814400  0.60785600  0.10764000  1
  C  150  1  0.64858700  0.64802900  0.10761800  1
  C  151  1  0.67982500  0.63825900  0.09830600  1
  C  152  1  0.69789900  0.65685300  0.07919300  1
  C  153  1  0.68501800  0.68571400  0.06777900  1
  C  154  1  0.65309600  0.69444800  0.07506900  1
  C  155  1  0.63519600  0.67575200  0.09421000  1
  C  156  1  0.57689900  0.61765700  0.09837600  1
  C  157  1  0.55877600  0.59908800  0.07928100  1
  C  158  1  0.57159500  0.57021000  0.06784700  1
  C  159  1  0.60352100  0.56143700  0.07510300  1
  C  160  1  0.62148900  0.58012800  0.09420600  1
  C  181  1  0.82172300  0.32010300  0.43842500  1
  C  182  1  0.85346300  0.31110200  0.43078600  1
  C  183  1  0.87135100  0.32981500  0.41164600  1
  C  184  1  0.85809500  0.35780300  0.39854900  1
  C  185  1  0.82708800  0.36782200  0.40822600  1
  C  186  1  0.80903500  0.34922400  0.42734800  1
  C  187  1  0.87824400  0.37797800  0.37807100  1
  C  188  1  0.89839200  0.39812200  0.39857200  1
  C  189  1  0.88510100  0.42605600  0.41172900  1
  C  190  1  0.90296400  0.44473000  0.43091100  1
  C  191  1  0.93472100  0.43575500  0.43851200  1
  C  192  1  0.94745000  0.40668400  0.42737700  1
  C  193  1  0.92941200  0.38810900  0.40822400  1
  C  194  1  0.89792400  0.35732000  0.35761200  1
  C  195  1  0.85854900  0.39866000  0.35763900  1
  C  196  1  0.87003900  0.42900300  0.34754100  1
  C  197  1  0.85224300  0.44769800  0.32832300  1
  C  198  1  0.82242100  0.43650200  0.31770400  1
  C  199  1  0.81180000  0.40528600  0.32574000  1
  C  200  1  0.82985500  0.38664700  0.34483500  1
  C  201  1  0.88639800  0.32702100  0.34744700  1
  C  202  1  0.90415300  0.30838300  0.32815900  1
  C  203  1  0.93396000  0.31960600  0.31753700  1
  C  204  1  0.94463400  0.35077100  0.32565900  1
  C  205  1  0.92661800  0.36935300  0.34482100  1
  C  226  1  0.93568900  0.93570900  0.93861900  1
  C  227  1  0.90381300  0.94454000  0.93125800  1
  C  228  1  0.88587000  0.92583900  0.91214900  1
  C  229  1  0.89918800  0.89804300  0.89880200  1
  C  230  1  0.93037000  0.88818600  0.90818300  1
  C  231  1  0.94848100  0.90677200  0.92727300  1
  C  232  1  0.87895900  0.87792600  0.87833700  1
  C  233  1  0.85875300  0.85785300  0.89884600  1
  C  234  1  0.87210700  0.83010500  0.91224300  1
  C  235  1  0.85421500  0.81146800  0.93143100  1
  C  236  1  0.82234100  0.82029900  0.93879600  1
  C  237  1  0.80949600  0.84917200  0.92738000  1
  C  238  1  0.82756800  0.86771200  0.90822600  1
  C  239  1  0.85933000  0.89865400  0.85789200  1
  C  240  1  0.89856900  0.85715200  0.85791300  1
  C  241  1  0.88719600  0.82665100  0.84806500  1
  C  242  1  0.90492400  0.80793900  0.82881000  1
  C  243  1  0.93455200  0.81926800  0.81790200  1
  C  244  1  0.94504200  0.85061000  0.82569300  1
  C  245  1  0.92705400  0.86926000  0.84482500  1
  C  246  1  0.87072700  0.92911400  0.84797800  1
  C  247  1  0.85301600  0.94778300  0.82868500  1
  C  248  1  0.82336200  0.93645800  0.81782700  1
  C  249  1  0.81284300  0.90514700  0.82568000  1
  C  250  1  0.83082800  0.88653200  0.84484200  1
  C  271  1  0.32163600  0.43577500  0.81775400  1
  C  272  1  0.35343000  0.44473700  0.82526100  1
  C  273  1  0.37136600  0.42605800  0.84439500  1
  C  274  1  0.35811800  0.39813600  0.85759600  1
  C  275  1  0.32702800  0.38816300  0.84807600  1
  C  276  1  0.30892400  0.40673700  0.82897300  1
  C  277  1  0.37830800  0.37801900  0.87808800  1
  C  278  1  0.39850000  0.35790700  0.85759800  1
  C  279  1  0.38519900  0.33003100  0.84436000  1
  C  280  1  0.40308200  0.31137200  0.82517700  1
  C  281  1  0.43487700  0.32031000  0.81766200  1
  C  282  1  0.44764300  0.34930900  0.82890600  1
  C  283  1  0.42958300  0.36786600  0.84805700  1
  C  284  1  0.39794900  0.39874200  0.89852900  1
  C  285  1  0.35865900  0.35731300  0.89853500  1
  C  286  1  0.37011000  0.32690900  0.90853500  1
  C  287  1  0.35234500  0.30821400  0.92777800  1
  C  288  1  0.32260200  0.31946300  0.93851300  1
  C  289  1  0.31203600  0.35073200  0.93058000  1
  C  290  1  0.33005300  0.36936700  0.91145400  1
  C  291  1  0.38646500  0.42911400  0.90856600  1
  C  292  1  0.40418500  0.44778100  0.92785500  1
  C  293  1  0.43392400  0.43653400  0.93859400  1
  C  294  1  0.44455000  0.40530600  0.93060300  1
  C  295  1  0.42656300  0.38669000  0.91144400  1
  C  316  1  0.43542800  0.82022100  0.31802500  1
  C  317  1  0.40364400  0.81127900  0.32557800  1
  C  318  1  0.38574200  0.82998900  0.34471200  1
  C  319  1  0.39902600  0.85790900  0.35789000  1
  C  320  1  0.43008700  0.86787700  0.34830500  1
  C  321  1  0.44815400  0.84928400  0.32918900  1
  C  322  1  0.37886100  0.87806200  0.37837200  1
  C  323  1  0.35871000  0.89821100  0.35787700  1
  C  324  1  0.37203500  0.92609900  0.34467700  1
  C  325  1  0.35418100  0.94478000  0.32549200  1
  C  326  1  0.32240300  0.93584900  0.31792500  1
  C  327  1  0.30962300  0.90683100  0.32911800  1
  C  328  1  0.32764900  0.88825400  0.34828000  1
  C  329  1  0.35918300  0.85738000  0.39881400  1
  C  330  1  0.39854400  0.89874900  0.39881000  1
  C  331  1  0.38710700  0.92913300  0.40886700  1
  C  332  1  0.40490300  0.94780400  0.42810300  1
  C  333  1  0.43466400  0.93653800  0.43879400  1
  C  334  1  0.44522000  0.90528300  0.43080500  1
  C  335  1  0.42715900  0.88666800  0.41169800  1
  C  336  1  0.37065100  0.82702000  0.40889400  1
  C  337  1  0.35288600  0.80836300  0.42816200  1
  C  338  1  0.32312300  0.81962000  0.43884400  1
  C  339  1  0.31250700  0.85083600  0.43081100  1
  C  340  1  0.33053800  0.86943900  0.41167100  1
  C  361  1  0.02607000  0.98694700  0.98480800  1
  C  362  1  0.03807500  0.00965800  0.00416600  1
  C  363  1  0.01692500  0.02644200  0.02242500  1
  C  364  1  0.98333300  0.01965400  0.02048500  1
  C  365  1  0.97133200  0.99692000  0.00113100  1
  C  366  1  0.99247000  0.98015300  0.98283600  1
  C  371  1  0.98140700  0.95744300  0.96347000  1
  C  373  1  0.02804200  0.04936900  0.04154500  1
  C  375  1  0.73142900  0.26900600  0.48481300  1
  C  376  1  0.71943500  0.24628600  0.50416900  1
  C  377  1  0.74060500  0.22943200  0.52236200  1
  C  378  1  0.77420300  0.23615800  0.52036100  1
  C  379  1  0.78619200  0.25890400  0.50101400  1
  C  380  1  0.76503200  0.27574100  0.48278500  1
  C  385  1  0.77608200  0.29847800  0.46343400  1
  C  387  1  0.72949400  0.20649200  0.54147400  1
  C  389  1  0.23125400  0.48688700  0.77149500  1
  C  390  1  0.21923600  0.50959700  0.75214300  1
  C  391  1  0.24037500  0.52639600  0.73388300  1
  C  392  1  0.27397100  0.51961900  0.73581900  1
  C  393  1  0.28598400  0.49688700  0.75516400  1
  C  394  1  0.26485600  0.48010800  0.77346000  1
  C  399  1  0.27593300  0.45739600  0.79281700  1
  C  401  1  0.22924600  0.54932600  0.71476800  1
  C  403  1  0.52573800  0.76912100  0.27164900  1
  C  404  1  0.53773000  0.74639500  0.25229900  1
  C  405  1  0.51655800  0.72951600  0.23412300  1
  C  406  1  0.48295800  0.73622400  0.23614000  1
  C  407  1  0.47096900  0.75897600  0.25548300  1
  C  408  1  0.49213300  0.77583800  0.27369300  1
  C  413  1  0.48108300  0.79856200  0.29305300  1
  C  415  1  0.52766900  0.70656300  0.21502400  1
  C  417  1  0.27559800  0.73706400  0.52172800  1
  C  418  1  0.28766700  0.75976900  0.50239600  1
  C  419  1  0.26658300  0.77652400  0.48406000  1
  C  420  1  0.23298800  0.76971300  0.48590500  1
  C  421  1  0.22092300  0.74698600  0.50523300  1
  C  422  1  0.24199900  0.73024600  0.52360000  1
  C  427  1  0.23087200  0.70753300  0.54293600  1
  C  429  1  0.27776400  0.79943500  0.46495300  1
  C  431  1  0.77441900  0.51968900  0.23541600  1
  C  432  1  0.78664300  0.49679300  0.25451700  1
  C  433  1  0.76567700  0.47969100  0.27272100  1
  C  434  1  0.73203600  0.48630700  0.27095600  1
  C  435  1  0.71981100  0.50920200  0.25185500  1
  C  436  1  0.74077700  0.52630400  0.23365300  1
  C  441  1  0.72945300  0.54935500  0.21474000  1
  C  443  1  0.77700200  0.45667300  0.29167200  1
  C  445  1  0.48208500  0.23736000  0.73493000  1
  C  446  1  0.47023100  0.25985900  0.75454500  1
  C  447  1  0.49144500  0.27598600  0.77319300  1
  C  448  1  0.52495700  0.26875600  0.77133800  1
  C  449  1  0.53680800  0.24625200  0.75172600  1
  C  450  1  0.51559800  0.23012700  0.73307400  1
  C  455  1  0.52652200  0.20757700  0.71351400  1
  C  457  1  0.48051500  0.29855300  0.79273600  1
  C  459  1  0.02475400  0.48730400  0.48488900  1
  C  460  1  0.03659500  0.50980800  0.50450300  1
  C  461  1  0.01537500  0.52592300  0.52315300  1
  C  462  1  0.98186500  0.51867800  0.52129600  1
  C  463  1  0.97002400  0.49617400  0.50168200  1
  C  464  1  0.99124500  0.48005900  0.48303200  1
  C  469  1  0.98032800  0.45750000  0.46347800  1
  C  471  1  0.02629400  0.54848700  0.54270300  1
  C  473  1  0.73225200  0.76872100  0.98510200  1
  C  474  1  0.72040100  0.74625400  0.00474200  1
  C  475  1  0.74160900  0.73017500  0.02342600  1
  C  476  1  0.77512000  0.73742800  0.02157600  1
  C  477  1  0.78697000  0.75989200  0.00193300  1
  C  478  1  0.76576000  0.77596800  0.98324900  1
  C  483  1  0.77668600  0.79849400  0.96367000  1
  C  485  1  0.73068500  0.70765700  0.04301500  1
  C  487  1  0.23241200  0.98736600  0.27143800  1
  C  488  1  0.22059500  0.00986200  0.25180700  1
  C  489  1  0.24184600  0.02602600  0.23321100  1
  C  490  1  0.27536000  0.01883200  0.23514300  1
  C  491  1  0.28718000  0.99633800  0.25477600  1
  C  492  1  0.26592800  0.98017500  0.27337000  1
  C  497  1  0.27681800  0.95760800  0.29292800  1
  C  499  1  0.23095200  0.04857500  0.21363600  1
  C  501  1  0.27474700  0.23643600  0.02098700  1
  C  502  1  0.28693700  0.25931300  0.00185300  1
  C  503  1  0.26595200  0.27632800  0.98360800  1
  C  504  1  0.23232200  0.26964600  0.98536000  1
  C  505  1  0.22013000  0.24676600  0.00449200  1
  C  506  1  0.24111700  0.22975600  0.02273900  1
  C  511  1  0.22982200  0.20674200  0.04170300  1
  C  513  1  0.27724500  0.29933900  0.96464000  1
  C  515  1  0.77605600  0.01885000  0.73472600  1
  C  516  1  0.78808100  0.99616900  0.75410000  1
  C  517  1  0.76696300  0.97948900  0.77245600  1
  C  518  1  0.73337900  0.98635300  0.77059900  1
  C  519  1  0.72135900  0.00906000  0.75123400  1
  C  520  1  0.74246800  0.02572100  0.73283800  1
  C  525  1  0.73138300  0.04838500  0.71344100  1
  C  527  1  0.77810300  0.95658000  0.79158200  1
  C  529  1  0.52506900  0.98620000  0.48561000  1
  C  530  1  0.53731300  0.00909400  0.50470500  1
  C  531  1  0.51635400  0.02624700  0.52287800  1
  C  532  1  0.48270600  0.01968400  0.52109800  1
  C  533  1  0.47046200  0.99679000  0.50200500  1
  C  534  1  0.49141800  0.97963600  0.48382700  1
  C  539  1  0.48007400  0.95661400  0.46488800  1
  C  541  1  0.52770100  0.04928600  0.54179700  1
  C  543  1  0.02477800  0.76921100  0.77123400  1
  C  544  1  0.03695900  0.74636800  0.75206600  1
  C  545  1  0.01599800  0.72962500  0.73361400  1
  C  546  1  0.98240400  0.73653500  0.73520000  1
  C  547  1  0.97022100  0.75937600  0.75436900  1
  C  548  1  0.99118400  0.77612100  0.77281500  1
  C  553  1  0.97990300  0.79911700  0.79179900  1
  C  555  1  0.02727900  0.70666500  0.71459600  1
  C  557  1  0.98145800  0.23724400  0.23449400  1
  C  558  1  0.96940100  0.25991500  0.25386400  1
  C  559  1  0.99048100  0.27652700  0.27229700  1
  C  560  1  0.02406100  0.26961500  0.27051600  1
  C  561  1  0.03611400  0.24692200  0.25115200  1
  C  562  1  0.01504300  0.23032500  0.23268500  1
  C  567  1  0.02615800  0.20765400  0.21330700  1
  C  569  1  0.97931400  0.29941400  0.29143400  1
  C  571  1  0.52391700  0.48639500  0.98589000  1
  C  572  1  0.53592500  0.50909000  0.00527300  1
  C  573  1  0.51479700  0.52581100  0.02360700  1
  C  574  1  0.48119900  0.51901300  0.02164300  1
  C  575  1  0.46918600  0.49633700  0.00225600  1
  C  576  1  0.49032600  0.47959800  0.98395600  1
  C  581  1  0.47920100  0.45671200  0.96480300  1
  C  583  1  0.52586700  0.54847700  0.04301000  1
  C  585  1  0.07326300  0.06951600  0.25560300  1
  C  586  1  0.06274900  0.10085300  0.26338500  1
  C  587  1  0.08070900  0.11950700  0.28253500  1
  C  588  1  0.10918300  0.10740000  0.29563600  1
  C  589  1  0.12057000  0.07689400  0.28581700  1
  C  590  1  0.10288000  0.05819100  0.26653300  1
  C  591  1  0.12876400  0.12815600  0.31609900  1
  C  592  1  0.14841700  0.14889100  0.29567100  1
  C  593  1  0.17691900  0.13675400  0.28263800  1
  C  594  1  0.19494300  0.15537500  0.26350900  1
  C  595  1  0.18449100  0.18672500  0.25569700  1
  C  596  1  0.15484800  0.19807600  0.26655800  1
  C  597  1  0.13708000  0.17939500  0.28580700  1
  C  598  1  0.10850700  0.14824900  0.33656200  1
  C  599  1  0.14894700  0.10807400  0.33662300  1
  C  600  1  0.18014000  0.11789500  0.34600300  1
  C  601  1  0.19819100  0.09932300  0.36514900  1
  C  602  1  0.18532700  0.07043600  0.37652500  1
  C  603  1  0.15344500  0.06164300  0.36915700  1
  C  604  1  0.13556500  0.08031700  0.34998600  1
  C  605  1  0.07729500  0.13840200  0.34587400  1
  C  606  1  0.05915200  0.15698100  0.36494800  1
  C  607  1  0.07193600  0.18589900  0.37633600  1
  C  608  1  0.10383100  0.19472400  0.36903200  1
  C  609  1  0.12180700  0.17603900  0.34993200  1
  C  630  1  0.68429700  0.18644100  0.75562700  1
  C  631  1  0.69473900  0.15506000  0.76334900  1
  C  632  1  0.67677600  0.13642900  0.78251200  1
  C  633  1  0.64837600  0.14860000  0.79569200  1
  C  634  1  0.63706300  0.17916400  0.78594400  1
  C  635  1  0.65475500  0.19784300  0.76664300  1
  C  636  1  0.62880000  0.12785100  0.81616400  1
  C  637  1  0.60915300  0.10708500  0.79575500  1
  C  638  1  0.58074100  0.11928800  0.78261000  1
  C  639  1  0.56269300  0.10066000  0.76350500  1
  C  640  1  0.57306500  0.06925500  0.75577900  1
  C  641  1  0.60262400  0.05782600  0.76674500  1
  C  642  1  0.62040300  0.07650800  0.78598600  1
  C  643  1  0.64907400  0.10778100  0.83662700  1
  C  644  1  0.60861000  0.14794200  0.83667500  1
  C  645  1  0.57735300  0.13819600  0.84596200  1
  C  646  1  0.55928500  0.15679200  0.86507700  1
  C  647  1  0.57219100  0.18561800  0.87653100  1
  C  648  1  0.60412000  0.19433900  0.86925000  1
  C  649  1  0.62201600  0.17564300  0.85010300  1
  C  650  1  0.68033400  0.11757100  0.84587000  1
  C  651  1  0.69846700  0.09900300  0.86495800  1
  C  652  1  0.68562900  0.07015700  0.87643800  1
  C  653  1  0.65368800  0.06140600  0.86921700  1
  C  654  1  0.63572200  0.08008300  0.85010300  1
  C  675  1  0.18397100  0.56954000  0.87635200  1
  C  676  1  0.19463800  0.60074700  0.86834200  1
  C  677  1  0.17666300  0.61937900  0.84918700  1
  C  678  1  0.14803900  0.60735400  0.83627200  1
  C  679  1  0.13651900  0.57700100  0.84632500  1
  C  680  1  0.15422000  0.55831800  0.86561500  1
  C  681  1  0.12840800  0.62806700  0.81581900  1
  C  682  1  0.10871900  0.64875700  0.83624900  1
  C  683  1  0.08007200  0.63670900  0.84910800  1
  C  684  1  0.06205300  0.65530800  0.86825500  1
  C  685  1  0.07265600  0.68653400  0.87627900  1
  C  686  1  0.10243900  0.69776800  0.86561300  1
  C  687  1  0.12020400  0.67910400  0.84634800  1
  C  688  1  0.14861500  0.64820800  0.79536000  1
  C  689  1  0.10825800  0.60793800  0.79531000  1
  C  690  1  0.07720400  0.61790900  0.78570700  1
  C  691  1  0.05915600  0.59932500  0.76656600  1
  C  692  1  0.07191400  0.57029000  0.75538700  1
  C  693  1  0.10370000  0.56135900  0.76293600  1
  C  694  1  0.12156400  0.58003500  0.78211600  1
  C  695  1  0.17968000  0.63820800  0.78580500  1
  C  696  1  0.19780200  0.65679000  0.76671800  1
  C  697  1  0.18512500  0.68586900  0.75554800  1
  C  698  1  0.15333600  0.69483800  0.76305700  1
  C  699  1  0.13538500  0.67614800  0.78217200  1
  C  720  1  0.57286100  0.68651700  0.37641200  1
  C  721  1  0.56240700  0.65514800  0.36866900  1
  C  722  1  0.58037000  0.63652200  0.34950100  1
  C  723  1  0.60879900  0.64867900  0.33636000  1
  C  724  1  0.62013100  0.67922100  0.34614000  1
  C  725  1  0.60243000  0.69790200  0.36543500  1
  C  726  1  0.62839200  0.62793100  0.31589700  1
  C  727  1  0.64803600  0.60718400  0.33632200  1
  C  728  1  0.67647800  0.61935700  0.34942900  1
  C  729  1  0.69450600  0.60073000  0.36854900  1
  C  730  1  0.68411100  0.56933900  0.37628700  1
  C  731  1  0.65452900  0.55793400  0.36534400  1
  C  732  1  0.63675500  0.57662300  0.34610400  1
  C  733  1  0.60814400  0.60785600  0.29541500  1
  C  734  1  0.64858700  0.64802900  0.29539300  1
  C  735  1  0.67982500  0.63825900  0.28608100  1
  C  736  1  0.69789900  0.65685300  0.26696800  1
  C  737  1  0.68501800  0.68571400  0.25555400  1
  C  738  1  0.65309600  0.69444800  0.26284400  1
  C  739  1  0.63519600  0.67575200  0.28198500  1
  C  740  1  0.57689900  0.61765700  0.28615100  1
  C  741  1  0.55877600  0.59908800  0.26705600  1
  C  742  1  0.57159500  0.57021000  0.25562200  1
  C  743  1  0.60352100  0.56143700  0.26287800  1
  C  744  1  0.62148900  0.58012800  0.28198100  1
  C  765  1  0.82172300  0.32010300  0.62620000  1
  C  766  1  0.85346300  0.31110200  0.61856100  1
  C  767  1  0.87135100  0.32981500  0.59942100  1
  C  768  1  0.85809500  0.35780300  0.58632400  1
  C  769  1  0.82708800  0.36782200  0.59600100  1
  C  770  1  0.80903500  0.34922400  0.61512300  1
  C  771  1  0.87824400  0.37797800  0.56584600  1
  C  772  1  0.89839200  0.39812200  0.58634700  1
  C  773  1  0.88510100  0.42605600  0.59950400  1
  C  774  1  0.90296400  0.44473000  0.61868600  1
  C  775  1  0.93472100  0.43575500  0.62628700  1
  C  776  1  0.94745000  0.40668400  0.61515200  1
  C  777  1  0.92941200  0.38810900  0.59599900  1
  C  778  1  0.89792400  0.35732000  0.54538700  1
  C  779  1  0.85854900  0.39866000  0.54541400  1
  C  780  1  0.87003900  0.42900300  0.53531600  1
  C  781  1  0.85224300  0.44769800  0.51609800  1
  C  782  1  0.82242100  0.43650200  0.50547900  1
  C  783  1  0.81180000  0.40528600  0.51351500  1
  C  784  1  0.82985500  0.38664700  0.53261000  1
  C  785  1  0.88639800  0.32702100  0.53522200  1
  C  786  1  0.90415300  0.30838300  0.51593400  1
  C  787  1  0.93396000  0.31960600  0.50531200  1
  C  788  1  0.94463400  0.35077100  0.51343400  1
  C  789  1  0.92661800  0.36935300  0.53259600  1
  C  810  1  0.93568900  0.93570900  0.12639400  1
  C  811  1  0.90381300  0.94454000  0.11903300  1
  C  812  1  0.88587000  0.92583900  0.09992440  1
  C  813  1  0.89918800  0.89804300  0.08657740  1
  C  814  1  0.93037000  0.88818600  0.09595840  1
  C  815  1  0.94848100  0.90677200  0.11504800  1
  C  816  1  0.87895900  0.87792600  0.06611240  1
  C  817  1  0.85875300  0.85785300  0.08662140  1
  C  818  1  0.87210700  0.83010500  0.10001800  1
  C  819  1  0.85421500  0.81146800  0.11920600  1
  C  820  1  0.82234100  0.82029900  0.12657100  1
  C  821  1  0.80949600  0.84917200  0.11515500  1
  C  822  1  0.82756800  0.86771200  0.09600140  1
  C  823  1  0.85933000  0.89865400  0.04566740  1
  C  824  1  0.89856900  0.85715200  0.04568840  1
  C  825  1  0.88719600  0.82665100  0.03584040  1
  C  826  1  0.90492400  0.80793900  0.01658540  1
  C  827  1  0.93455200  0.81926800  0.00567740  1
  C  828  1  0.94504200  0.85061000  0.01346840  1
  C  829  1  0.92705400  0.86926000  0.03260040  1
  C  830  1  0.87072700  0.92911400  0.03575340  1
  C  831  1  0.85301600  0.94778300  0.01646040  1
  C  832  1  0.82336200  0.93645800  0.00560240  1
  C  833  1  0.81284300  0.90514700  0.01345540  1
  C  834  1  0.83082800  0.88653200  0.03261740  1
  C  855  1  0.32163600  0.43577500  0.00552940  1
  C  856  1  0.35343000  0.44473700  0.01303640  1
  C  857  1  0.37136600  0.42605800  0.03217040  1
  C  858  1  0.35811800  0.39813600  0.04537140  1
  C  859  1  0.32702800  0.38816300  0.03585140  1
  C  860  1  0.30892400  0.40673700  0.01674840  1
  C  861  1  0.37830800  0.37801900  0.06586340  1
  C  862  1  0.39850000  0.35790700  0.04537340  1
  C  863  1  0.38519900  0.33003100  0.03213540  1
  C  864  1  0.40308200  0.31137200  0.01295240  1
  C  865  1  0.43487700  0.32031000  0.00543740  1
  C  866  1  0.44764300  0.34930900  0.01668140  1
  C  867  1  0.42958300  0.36786600  0.03583240  1
  C  868  1  0.39794900  0.39874200  0.08630440  1
  C  869  1  0.35865900  0.35731300  0.08631040  1
  C  870  1  0.37011000  0.32690900  0.09631040  1
  C  871  1  0.35234500  0.30821400  0.11555300  1
  C  872  1  0.32260200  0.31946300  0.12628800  1
  C  873  1  0.31203600  0.35073200  0.11835500  1
  C  874  1  0.33005300  0.36936700  0.09922940  1
  C  875  1  0.38646500  0.42911400  0.09634140  1
  C  876  1  0.40418500  0.44778100  0.11563000  1
  C  877  1  0.43392400  0.43653400  0.12636900  1
  C  878  1  0.44455000  0.40530600  0.11837800  1
  C  879  1  0.42656300  0.38669000  0.09921940  1
  C  900  1  0.43542800  0.82022100  0.50580000  1
  C  901  1  0.40364400  0.81127900  0.51335300  1
  C  902  1  0.38574200  0.82998900  0.53248700  1
  C  903  1  0.39902600  0.85790900  0.54566500  1
  C  904  1  0.43008700  0.86787700  0.53608000  1
  C  905  1  0.44815400  0.84928400  0.51696400  1
  C  906  1  0.37886100  0.87806200  0.56614700  1
  C  907  1  0.35871000  0.89821100  0.54565200  1
  C  908  1  0.37203500  0.92609900  0.53245200  1
  C  909  1  0.35418100  0.94478000  0.51326700  1
  C  910  1  0.32240300  0.93584900  0.50570000  1
  C  911  1  0.30962300  0.90683100  0.51689300  1
  C  912  1  0.32764900  0.88825400  0.53605500  1
  C  913  1  0.35918300  0.85738000  0.58658900  1
  C  914  1  0.39854400  0.89874900  0.58658500  1
  C  915  1  0.38710700  0.92913300  0.59664200  1
  C  916  1  0.40490300  0.94780400  0.61587800  1
  C  917  1  0.43466400  0.93653800  0.62656900  1
  C  918  1  0.44522000  0.90528300  0.61858000  1
  C  919  1  0.42715900  0.88666800  0.59947300  1
  C  920  1  0.37065100  0.82702000  0.59666900  1
  C  921  1  0.35288600  0.80836300  0.61593700  1
  C  922  1  0.32312300  0.81962000  0.62661900  1
  C  923  1  0.31250700  0.85083600  0.61858600  1
  C  924  1  0.33053800  0.86943900  0.59944600  1
  C  945  1  0.02607000  0.98694700  0.17258300  1
  C  946  1  0.03807500  0.00965800  0.19194100  1
  C  947  1  0.01692500  0.02644200  0.21020000  1
  C  948  1  0.98333300  0.01965400  0.20826000  1
  C  949  1  0.97133200  0.99692000  0.18890600  1
  C  950  1  0.99247000  0.98015300  0.17061100  1
  C  955  1  0.98140700  0.95744300  0.15124500  1
  C  957  1  0.02804200  0.04936900  0.22932000  1
  C  959  1  0.73142900  0.26900600  0.67258800  1
  C  960  1  0.71943500  0.24628600  0.69194400  1
  C  961  1  0.74060500  0.22943200  0.71013700  1
  C  962  1  0.77420300  0.23615800  0.70813600  1
  C  963  1  0.78619200  0.25890400  0.68878900  1
  C  964  1  0.76503200  0.27574100  0.67056000  1
  C  969  1  0.77608200  0.29847800  0.65120900  1
  C  971  1  0.72949400  0.20649200  0.72924900  1
  C  973  1  0.23125400  0.48688700  0.95927000  1
  C  974  1  0.21923600  0.50959700  0.93991800  1
  C  975  1  0.24037500  0.52639600  0.92165800  1
  C  976  1  0.27397100  0.51961900  0.92359400  1
  C  977  1  0.28598400  0.49688700  0.94293900  1
  C  978  1  0.26485600  0.48010800  0.96123500  1
  C  983  1  0.27593300  0.45739600  0.98059200  1
  C  985  1  0.22924600  0.54932600  0.90254300  1
  C  987  1  0.52573800  0.76912100  0.45942400  1
  C  988  1  0.53773000  0.74639500  0.44007400  1
  C  989  1  0.51655800  0.72951600  0.42189800  1
  C  990  1  0.48295800  0.73622400  0.42391500  1
  C  991  1  0.47096900  0.75897600  0.44325800  1
  C  992  1  0.49213300  0.77583800  0.46146800  1
  C  997  1  0.48108300  0.79856200  0.48082800  1
  C  999  1  0.52766900  0.70656300  0.40279900  1
  C  1001  1  0.27559800  0.73706400  0.70950300  1
  C  1002  1  0.28766700  0.75976900  0.69017100  1
  C  1003  1  0.26658300  0.77652400  0.67183500  1
  C  1004  1  0.23298800  0.76971300  0.67368000  1
  C  1005  1  0.22092300  0.74698600  0.69300800  1
  C  1006  1  0.24199900  0.73024600  0.71137500  1
  C  1011  1  0.23087200  0.70753300  0.73071100  1
  C  1013  1  0.27776400  0.79943500  0.65272800  1
  C  1015  1  0.77441900  0.51968900  0.42319100  1
  C  1016  1  0.78664300  0.49679300  0.44229200  1
  C  1017  1  0.76567700  0.47969100  0.46049600  1
  C  1018  1  0.73203600  0.48630700  0.45873100  1
  C  1019  1  0.71981100  0.50920200  0.43963000  1
  C  1020  1  0.74077700  0.52630400  0.42142800  1
  C  1025  1  0.72945300  0.54935500  0.40251500  1
  C  1027  1  0.77700200  0.45667300  0.47944700  1
  C  1029  1  0.48208500  0.23736000  0.92270500  1
  C  1030  1  0.47023100  0.25985900  0.94232000  1
  C  1031  1  0.49144500  0.27598600  0.96096800  1
  C  1032  1  0.52495700  0.26875600  0.95911300  1
  C  1033  1  0.53680800  0.24625200  0.93950100  1
  C  1034  1  0.51559800  0.23012700  0.92084900  1
  C  1039  1  0.52652200  0.20757700  0.90128900  1
  C  1041  1  0.48051500  0.29855300  0.98051100  1
  C  1043  1  0.02475400  0.48730400  0.67266400  1
  C  1044  1  0.03659500  0.50980800  0.69227800  1
  C  1045  1  0.01537500  0.52592300  0.71092800  1
  C  1046  1  0.98186500  0.51867800  0.70907100  1
  C  1047  1  0.97002400  0.49617400  0.68945700  1
  C  1048  1  0.99124500  0.48005900  0.67080700  1
  C  1053  1  0.98032800  0.45750000  0.65125300  1
  C  1055  1  0.02629400  0.54848700  0.73047800  1
  C  1057  1  0.73225200  0.76872100  0.17287700  1
  C  1058  1  0.72040100  0.74625400  0.19251700  1
  C  1059  1  0.74160900  0.73017500  0.21120100  1
  C  1060  1  0.77512000  0.73742800  0.20935100  1
  C  1061  1  0.78697000  0.75989200  0.18970800  1
  C  1062  1  0.76576000  0.77596800  0.17102400  1
  C  1067  1  0.77668600  0.79849400  0.15144500  1
  C  1069  1  0.73068500  0.70765700  0.23079000  1
  C  1071  1  0.23241200  0.98736600  0.45921300  1
  C  1072  1  0.22059500  0.00986200  0.43958200  1
  C  1073  1  0.24184600  0.02602600  0.42098600  1
  C  1074  1  0.27536000  0.01883200  0.42291800  1
  C  1075  1  0.28718000  0.99633800  0.44255100  1
  C  1076  1  0.26592800  0.98017500  0.46114500  1
  C  1081  1  0.27681800  0.95760800  0.48070300  1
  C  1083  1  0.23095200  0.04857500  0.40141100  1
  C  1085  1  0.27474700  0.23643600  0.20876200  1
  C  1086  1  0.28693700  0.25931300  0.18962800  1
  C  1087  1  0.26595200  0.27632800  0.17138300  1
  C  1088  1  0.23232200  0.26964600  0.17313500  1
  C  1089  1  0.22013000  0.24676600  0.19226700  1
  C  1090  1  0.24111700  0.22975600  0.21051400  1
  C  1095  1  0.22982200  0.20674200  0.22947800  1
  C  1097  1  0.27724500  0.29933900  0.15241500  1
  C  1099  1  0.77605600  0.01885000  0.92250100  1
  C  1100  1  0.78808100  0.99616900  0.94187500  1
  C  1101  1  0.76696300  0.97948900  0.96023100  1
  C  1102  1  0.73337900  0.98635300  0.95837400  1
  C  1103  1  0.72135900  0.00906000  0.93900900  1
  C  1104  1  0.74246800  0.02572100  0.92061300  1
  C  1109  1  0.73138300  0.04838500  0.90121600  1
  C  1111  1  0.77810300  0.95658000  0.97935700  1
  C  1113  1  0.52506900  0.98620000  0.67338500  1
  C  1114  1  0.53731300  0.00909400  0.69248000  1
  C  1115  1  0.51635400  0.02624700  0.71065300  1
  C  1116  1  0.48270600  0.01968400  0.70887300  1
  C  1117  1  0.47046200  0.99679000  0.68978000  1
  C  1118  1  0.49141800  0.97963600  0.67160200  1
  C  1123  1  0.48007400  0.95661400  0.65266300  1
  C  1125  1  0.52770100  0.04928600  0.72957200  1
  C  1127  1  0.02477800  0.76921100  0.95900900  1
  C  1128  1  0.03695900  0.74636800  0.93984100  1
  C  1129  1  0.01599800  0.72962500  0.92138900  1
  C  1130  1  0.98240400  0.73653500  0.92297500  1
  C  1131  1  0.97022100  0.75937600  0.94214400  1
  C  1132  1  0.99118400  0.77612100  0.96059000  1
  C  1137  1  0.97990300  0.79911700  0.97957400  1
  C  1139  1  0.02727900  0.70666500  0.90237100  1
  C  1141  1  0.98145800  0.23724400  0.42226900  1
  C  1142  1  0.96940100  0.25991500  0.44163900  1
  C  1143  1  0.99048100  0.27652700  0.46007200  1
  C  1144  1  0.02406100  0.26961500  0.45829100  1
  C  1145  1  0.03611400  0.24692200  0.43892700  1
  C  1146  1  0.01504300  0.23032500  0.42046000  1
  C  1151  1  0.02615800  0.20765400  0.40108200  1
  C  1153  1  0.97931400  0.29941400  0.47920900  1
  C  1155  1  0.52391700  0.48639500  0.17366500  1
  C  1156  1  0.53592500  0.50909000  0.19304800  1
  C  1157  1  0.51479700  0.52581100  0.21138200  1
  C  1158  1  0.48119900  0.51901300  0.20941800  1
  C  1159  1  0.46918600  0.49633700  0.19003100  1
  C  1160  1  0.49032600  0.47959800  0.17173100  1
  C  1165  1  0.47920100  0.45671200  0.15257800  1
  C  1167  1  0.52586700  0.54847700  0.23078500  1
  C  1169  1  0.07326300  0.06951600  0.44337900  1
  C  1170  1  0.06274900  0.10085300  0.45116100  1
  C  1171  1  0.08070900  0.11950700  0.47031100  1
  C  1172  1  0.10918300  0.10740000  0.48341200  1
  C  1173  1  0.12057000  0.07689400  0.47359300  1
  C  1174  1  0.10288000  0.05819100  0.45430900  1
  C  1175  1  0.12876400  0.12815600  0.50387500  1
  C  1176  1  0.14841700  0.14889100  0.48344700  1
  C  1177  1  0.17691900  0.13675400  0.47041400  1
  C  1178  1  0.19494300  0.15537500  0.45128500  1
  C  1179  1  0.18449100  0.18672500  0.44347300  1
  C  1180  1  0.15484800  0.19807600  0.45433400  1
  C  1181  1  0.13708000  0.17939500  0.47358300  1
  C  1182  1  0.10850700  0.14824900  0.52433800  1
  C  1183  1  0.14894700  0.10807400  0.52439900  1
  C  1184  1  0.18014000  0.11789500  0.53377900  1
  C  1185  1  0.19819100  0.09932300  0.55292500  1
  C  1186  1  0.18532700  0.07043600  0.56430100  1
  C  1187  1  0.15344500  0.06164300  0.55693300  1
  C  1188  1  0.13556500  0.08031700  0.53776200  1
  C  1189  1  0.07729500  0.13840200  0.53365000  1
  C  1190  1  0.05915200  0.15698100  0.55272400  1
  C  1191  1  0.07193600  0.18589900  0.56411200  1
  C  1192  1  0.10383100  0.19472400  0.55680800  1
  C  1193  1  0.12180700  0.17603900  0.53770800  1
  C  1214  1  0.68429700  0.18644100  0.94340300  1
  C  1215  1  0.69473900  0.15506000  0.95112500  1
  C  1216  1  0.67677600  0.13642900  0.97028800  1
  C  1217  1  0.64837600  0.14860000  0.98346800  1
  C  1218  1  0.63706300  0.17916400  0.97372000  1
  C  1219  1  0.65475500  0.19784300  0.95441900  1
  C  1220  1  0.62880000  0.12785100  0.00393981  1
  C  1221  1  0.60915300  0.10708500  0.98353100  1
  C  1222  1  0.58074100  0.11928800  0.97038600  1
  C  1223  1  0.56269300  0.10066000  0.95128100  1
  C  1224  1  0.57306500  0.06925500  0.94355500  1
  C  1225  1  0.60262400  0.05782600  0.95452100  1
  C  1226  1  0.62040300  0.07650800  0.97376200  1
  C  1227  1  0.64907400  0.10778100  0.02440280  1
  C  1228  1  0.60861000  0.14794200  0.02445080  1
  C  1229  1  0.57735300  0.13819600  0.03373780  1
  C  1230  1  0.55928500  0.15679200  0.05285280  1
  C  1231  1  0.57219100  0.18561800  0.06430680  1
  C  1232  1  0.60412000  0.19433900  0.05702580  1
  C  1233  1  0.62201600  0.17564300  0.03787880  1
  C  1234  1  0.68033400  0.11757100  0.03364580  1
  C  1235  1  0.69846700  0.09900300  0.05273380  1
  C  1236  1  0.68562900  0.07015700  0.06421380  1
  C  1237  1  0.65368800  0.06140600  0.05699280  1
  C  1238  1  0.63572200  0.08008300  0.03787880  1
  C  1259  1  0.18397100  0.56954000  0.06412780  1
  C  1260  1  0.19463800  0.60074700  0.05611780  1
  C  1261  1  0.17666300  0.61937900  0.03696280  1
  C  1262  1  0.14803900  0.60735400  0.02404780  1
  C  1263  1  0.13651900  0.57700100  0.03410080  1
  C  1264  1  0.15422000  0.55831800  0.05339080  1
  C  1265  1  0.12840800  0.62806700  0.00359481  1
  C  1266  1  0.10871900  0.64875700  0.02402480  1
  C  1267  1  0.08007200  0.63670900  0.03688380  1
  C  1268  1  0.06205300  0.65530800  0.05603080  1
  C  1269  1  0.07265600  0.68653400  0.06405480  1
  C  1270  1  0.10243900  0.69776800  0.05338880  1
  C  1271  1  0.12020400  0.67910400  0.03412380  1
  C  1272  1  0.14861500  0.64820800  0.98313600  1
  C  1273  1  0.10825800  0.60793800  0.98308600  1
  C  1274  1  0.07720400  0.61790900  0.97348300  1
  C  1275  1  0.05915600  0.59932500  0.95434200  1
  C  1276  1  0.07191400  0.57029000  0.94316300  1
  C  1277  1  0.10370000  0.56135900  0.95071200  1
  C  1278  1  0.12156400  0.58003500  0.96989200  1
  C  1279  1  0.17968000  0.63820800  0.97358100  1
  C  1280  1  0.19780200  0.65679000  0.95449400  1
  C  1281  1  0.18512500  0.68586900  0.94332400  1
  C  1282  1  0.15333600  0.69483800  0.95083300  1
  C  1283  1  0.13538500  0.67614800  0.96994800  1
  C  1304  1  0.57286100  0.68651700  0.56418800  1
  C  1305  1  0.56240700  0.65514800  0.55644500  1
  C  1306  1  0.58037000  0.63652200  0.53727700  1
  C  1307  1  0.60879900  0.64867900  0.52413600  1
  C  1308  1  0.62013100  0.67922100  0.53391600  1
  C  1309  1  0.60243000  0.69790200  0.55321100  1
  C  1310  1  0.62839200  0.62793100  0.50367300  1
  C  1311  1  0.64803600  0.60718400  0.52409800  1
  C  1312  1  0.67647800  0.61935700  0.53720500  1
  C  1313  1  0.69450600  0.60073000  0.55632500  1
  C  1314  1  0.68411100  0.56933900  0.56406300  1
  C  1315  1  0.65452900  0.55793400  0.55312000  1
  C  1316  1  0.63675500  0.57662300  0.53388000  1
  C  1317  1  0.60814400  0.60785600  0.48319100  1
  C  1318  1  0.64858700  0.64802900  0.48316900  1
  C  1319  1  0.67982500  0.63825900  0.47385700  1
  C  1320  1  0.69789900  0.65685300  0.45474400  1
  C  1321  1  0.68501800  0.68571400  0.44333000  1
  C  1322  1  0.65309600  0.69444800  0.45062000  1
  C  1323  1  0.63519600  0.67575200  0.46976100  1
  C  1324  1  0.57689900  0.61765700  0.47392700  1
  C  1325  1  0.55877600  0.59908800  0.45483200  1
  C  1326  1  0.57159500  0.57021000  0.44339800  1
  C  1327  1  0.60352100  0.56143700  0.45065400  1
  C  1328  1  0.62148900  0.58012800  0.46975700  1
  C  1349  1  0.82172300  0.32010300  0.81397600  1
  C  1350  1  0.85346300  0.31110200  0.80633700  1
  C  1351  1  0.87135100  0.32981500  0.78719700  1
  C  1352  1  0.85809500  0.35780300  0.77410000  1
  C  1353  1  0.82708800  0.36782200  0.78377700  1
  C  1354  1  0.80903500  0.34922400  0.80289900  1
  C  1355  1  0.87824400  0.37797800  0.75362200  1
  C  1356  1  0.89839200  0.39812200  0.77412300  1
  C  1357  1  0.88510100  0.42605600  0.78728000  1
  C  1358  1  0.90296400  0.44473000  0.80646200  1
  C  1359  1  0.93472100  0.43575500  0.81406300  1
  C  1360  1  0.94745000  0.40668400  0.80292800  1
  C  1361  1  0.92941200  0.38810900  0.78377500  1
  C  1362  1  0.89792400  0.35732000  0.73316300  1
  C  1363  1  0.85854900  0.39866000  0.73319000  1
  C  1364  1  0.87003900  0.42900300  0.72309200  1
  C  1365  1  0.85224300  0.44769800  0.70387400  1
  C  1366  1  0.82242100  0.43650200  0.69325500  1
  C  1367  1  0.81180000  0.40528600  0.70129100  1
  C  1368  1  0.82985500  0.38664700  0.72038600  1
  C  1369  1  0.88639800  0.32702100  0.72299800  1
  C  1370  1  0.90415300  0.30838300  0.70371000  1
  C  1371  1  0.93396000  0.31960600  0.69308800  1
  C  1372  1  0.94463400  0.35077100  0.70121000  1
  C  1373  1  0.92661800  0.36935300  0.72037200  1
  C  1394  1  0.93568900  0.93570900  0.31417000  1
  C  1395  1  0.90381300  0.94454000  0.30680900  1
  C  1396  1  0.88587000  0.92583900  0.28770000  1
  C  1397  1  0.89918800  0.89804300  0.27435300  1
  C  1398  1  0.93037000  0.88818600  0.28373400  1
  C  1399  1  0.94848100  0.90677200  0.30282400  1
  C  1400  1  0.87895900  0.87792600  0.25388800  1
  C  1401  1  0.85875300  0.85785300  0.27439700  1
  C  1402  1  0.87210700  0.83010500  0.28779400  1
  C  1403  1  0.85421500  0.81146800  0.30698200  1
  C  1404  1  0.82234100  0.82029900  0.31434700  1
  C  1405  1  0.80949600  0.84917200  0.30293100  1
  C  1406  1  0.82756800  0.86771200  0.28377700  1
  C  1407  1  0.85933000  0.89865400  0.23344300  1
  C  1408  1  0.89856900  0.85715200  0.23346400  1
  C  1409  1  0.88719600  0.82665100  0.22361600  1
  C  1410  1  0.90492400  0.80793900  0.20436100  1
  C  1411  1  0.93455200  0.81926800  0.19345300  1
  C  1412  1  0.94504200  0.85061000  0.20124400  1
  C  1413  1  0.92705400  0.86926000  0.22037600  1
  C  1414  1  0.87072700  0.92911400  0.22352900  1
  C  1415  1  0.85301600  0.94778300  0.20423600  1
  C  1416  1  0.82336200  0.93645800  0.19337800  1
  C  1417  1  0.81284300  0.90514700  0.20123100  1
  C  1418  1  0.83082800  0.88653200  0.22039300  1
  C  1439  1  0.32163600  0.43577500  0.19330500  1
  C  1440  1  0.35343000  0.44473700  0.20081200  1
  C  1441  1  0.37136600  0.42605800  0.21994600  1
  C  1442  1  0.35811800  0.39813600  0.23314700  1
  C  1443  1  0.32702800  0.38816300  0.22362700  1
  C  1444  1  0.30892400  0.40673700  0.20452400  1
  C  1445  1  0.37830800  0.37801900  0.25363900  1
  C  1446  1  0.39850000  0.35790700  0.23314900  1
  C  1447  1  0.38519900  0.33003100  0.21991100  1
  C  1448  1  0.40308200  0.31137200  0.20072800  1
  C  1449  1  0.43487700  0.32031000  0.19321300  1
  C  1450  1  0.44764300  0.34930900  0.20445700  1
  C  1451  1  0.42958300  0.36786600  0.22360800  1
  C  1452  1  0.39794900  0.39874200  0.27408000  1
  C  1453  1  0.35865900  0.35731300  0.27408600  1
  C  1454  1  0.37011000  0.32690900  0.28408600  1
  C  1455  1  0.35234500  0.30821400  0.30332900  1
  C  1456  1  0.32260200  0.31946300  0.31406400  1
  C  1457  1  0.31203600  0.35073200  0.30613100  1
  C  1458  1  0.33005300  0.36936700  0.28700500  1
  C  1459  1  0.38646500  0.42911400  0.28411700  1
  C  1460  1  0.40418500  0.44778100  0.30340600  1
  C  1461  1  0.43392400  0.43653400  0.31414500  1
  C  1462  1  0.44455000  0.40530600  0.30615400  1
  C  1463  1  0.42656300  0.38669000  0.28699500  1
  C  1484  1  0.43542800  0.82022100  0.69357600  1
  C  1485  1  0.40364400  0.81127900  0.70112900  1
  C  1486  1  0.38574200  0.82998900  0.72026300  1
  C  1487  1  0.39902600  0.85790900  0.73344100  1
  C  1488  1  0.43008700  0.86787700  0.72385600  1
  C  1489  1  0.44815400  0.84928400  0.70474000  1
  C  1490  1  0.37886100  0.87806200  0.75392300  1
  C  1491  1  0.35871000  0.89821100  0.73342800  1
  C  1492  1  0.37203500  0.92609900  0.72022800  1
  C  1493  1  0.35418100  0.94478000  0.70104300  1
  C  1494  1  0.32240300  0.93584900  0.69347600  1
  C  1495  1  0.30962300  0.90683100  0.70466900  1
  C  1496  1  0.32764900  0.88825400  0.72383100  1
  C  1497  1  0.35918300  0.85738000  0.77436500  1
  C  1498  1  0.39854400  0.89874900  0.77436100  1
  C  1499  1  0.38710700  0.92913300  0.78441800  1
  C  1500  1  0.40490300  0.94780400  0.80365400  1
  C  1501  1  0.43466400  0.93653800  0.81434500  1
  C  1502  1  0.44522000  0.90528300  0.80635600  1
  C  1503  1  0.42715900  0.88666800  0.78724900  1
  C  1504  1  0.37065100  0.82702000  0.78444500  1
  C  1505  1  0.35288600  0.80836300  0.80371300  1
  C  1506  1  0.32312300  0.81962000  0.81439500  1
  C  1507  1  0.31250700  0.85083600  0.80636200  1
  C  1508  1  0.33053800  0.86943900  0.78722200  1
  C  1529  1  0.02607000  0.98694700  0.36035900  1
  C  1530  1  0.03807500  0.00965800  0.37971700  1
  C  1531  1  0.01692500  0.02644200  0.39797600  1
  C  1532  1  0.98333300  0.01965400  0.39603600  1
  C  1533  1  0.97133200  0.99692000  0.37668200  1
  C  1534  1  0.99247000  0.98015300  0.35838700  1
  C  1539  1  0.98140700  0.95744300  0.33902100  1
  C  1541  1  0.02804200  0.04936900  0.41709600  1
  C  1543  1  0.73142900  0.26900600  0.86036400  1
  C  1544  1  0.71943500  0.24628600  0.87972000  1
  C  1545  1  0.74060500  0.22943200  0.89791300  1
  C  1546  1  0.77420300  0.23615800  0.89591200  1
  C  1547  1  0.78619200  0.25890400  0.87656500  1
  C  1548  1  0.76503200  0.27574100  0.85833600  1
  C  1553  1  0.77608200  0.29847800  0.83898500  1
  C  1555  1  0.72949400  0.20649200  0.91702500  1
  C  1557  1  0.23125400  0.48688700  0.14704600  1
  C  1558  1  0.21923600  0.50959700  0.12769400  1
  C  1559  1  0.24037500  0.52639600  0.10943400  1
  C  1560  1  0.27397100  0.51961900  0.11137000  1
  C  1561  1  0.28598400  0.49688700  0.13071500  1
  C  1562  1  0.26485600  0.48010800  0.14901100  1
  C  1567  1  0.27593300  0.45739600  0.16836800  1
  C  1569  1  0.22924600  0.54932600  0.09031880  1
  C  1571  1  0.52573800  0.76912100  0.64720000  1
  C  1572  1  0.53773000  0.74639500  0.62785000  1
  C  1573  1  0.51655800  0.72951600  0.60967400  1
  C  1574  1  0.48295800  0.73622400  0.61169100  1
  C  1575  1  0.47096900  0.75897600  0.63103400  1
  C  1576  1  0.49213300  0.77583800  0.64924400  1
  C  1581  1  0.48108300  0.79856200  0.66860400  1
  C  1583  1  0.52766900  0.70656300  0.59057500  1
  C  1585  1  0.27559800  0.73706400  0.89727900  1
  C  1586  1  0.28766700  0.75976900  0.87794700  1
  C  1587  1  0.26658300  0.77652400  0.85961100  1
  C  1588  1  0.23298800  0.76971300  0.86145600  1
  C  1589  1  0.22092300  0.74698600  0.88078400  1
  C  1590  1  0.24199900  0.73024600  0.89915100  1
  C  1595  1  0.23087200  0.70753300  0.91848700  1
  C  1597  1  0.27776400  0.79943500  0.84050400  1
  C  1599  1  0.77441900  0.51968900  0.61096700  1
  C  1600  1  0.78664300  0.49679300  0.63006800  1
  C  1601  1  0.76567700  0.47969100  0.64827200  1
  C  1602  1  0.73203600  0.48630700  0.64650700  1
  C  1603  1  0.71981100  0.50920200  0.62740600  1
  C  1604  1  0.74077700  0.52630400  0.60920400  1
  C  1609  1  0.72945300  0.54935500  0.59029100  1
  C  1611  1  0.77700200  0.45667300  0.66722300  1
  C  1613  1  0.48208500  0.23736000  0.11048100  1
  C  1614  1  0.47023100  0.25985900  0.13009600  1
  C  1615  1  0.49144500  0.27598600  0.14874400  1
  C  1616  1  0.52495700  0.26875600  0.14688900  1
  C  1617  1  0.53680800  0.24625200  0.12727700  1
  C  1618  1  0.51559800  0.23012700  0.10862500  1
  C  1623  1  0.52652200  0.20757700  0.08906480  1
  C  1625  1  0.48051500  0.29855300  0.16828700  1
  C  1627  1  0.02475400  0.48730400  0.86044000  1
  C  1628  1  0.03659500  0.50980800  0.88005400  1
  C  1629  1  0.01537500  0.52592300  0.89870400  1
  C  1630  1  0.98186500  0.51867800  0.89684700  1
  C  1631  1  0.97002400  0.49617400  0.87723300  1
  C  1632  1  0.99124500  0.48005900  0.85858300  1
  C  1637  1  0.98032800  0.45750000  0.83902900  1
  C  1639  1  0.02629400  0.54848700  0.91825400  1
  C  1641  1  0.73225200  0.76872100  0.36065300  1
  C  1642  1  0.72040100  0.74625400  0.38029300  1
  C  1643  1  0.74160900  0.73017500  0.39897700  1
  C  1644  1  0.77512000  0.73742800  0.39712700  1
  C  1645  1  0.78697000  0.75989200  0.37748400  1
  C  1646  1  0.76576000  0.77596800  0.35880000  1
  C  1651  1  0.77668600  0.79849400  0.33922100  1
  C  1653  1  0.73068500  0.70765700  0.41856600  1
  C  1655  1  0.23241200  0.98736600  0.64698900  1
  C  1656  1  0.22059500  0.00986200  0.62735800  1
  C  1657  1  0.24184600  0.02602600  0.60876200  1
  C  1658  1  0.27536000  0.01883200  0.61069400  1
  C  1659  1  0.28718000  0.99633800  0.63032700  1
  C  1660  1  0.26592800  0.98017500  0.64892100  1
  C  1665  1  0.27681800  0.95760800  0.66847900  1
  C  1667  1  0.23095200  0.04857500  0.58918700  1
  C  1669  1  0.27474700  0.23643600  0.39653800  1
  C  1670  1  0.28693700  0.25931300  0.37740400  1
  C  1671  1  0.26595200  0.27632800  0.35915900  1
  C  1672  1  0.23232200  0.26964600  0.36091100  1
  C  1673  1  0.22013000  0.24676600  0.38004300  1
  C  1674  1  0.24111700  0.22975600  0.39829000  1
  C  1679  1  0.22982200  0.20674200  0.41725400  1
  C  1681  1  0.27724500  0.29933900  0.34019100  1
  C  1683  1  0.77605600  0.01885000  0.11027700  1
  C  1684  1  0.78808100  0.99616900  0.12965100  1
  C  1685  1  0.76696300  0.97948900  0.14800700  1
  C  1686  1  0.73337900  0.98635300  0.14615000  1
  C  1687  1  0.72135900  0.00906000  0.12678500  1
  C  1688  1  0.74246800  0.02572100  0.10838900  1
  C  1693  1  0.73138300  0.04838500  0.08899180  1
  C  1695  1  0.77810300  0.95658000  0.16713300  1
  C  1697  1  0.52506900  0.98620000  0.86116100  1
  C  1698  1  0.53731300  0.00909400  0.88025600  1
  C  1699  1  0.51635400  0.02624700  0.89842900  1
  C  1700  1  0.48270600  0.01968400  0.89664900  1
  C  1701  1  0.47046200  0.99679000  0.87755600  1
  C  1702  1  0.49141800  0.97963600  0.85937800  1
  C  1707  1  0.48007400  0.95661400  0.84043900  1
  C  1709  1  0.52770100  0.04928600  0.91734800  1
  C  1711  1  0.02477800  0.76921100  0.14678500  1
  C  1712  1  0.03695900  0.74636800  0.12761700  1
  C  1713  1  0.01599800  0.72962500  0.10916500  1
  C  1714  1  0.98240400  0.73653500  0.11075100  1
  C  1715  1  0.97022100  0.75937600  0.12992000  1
  C  1716  1  0.99118400  0.77612100  0.14836600  1
  C  1721  1  0.97990300  0.79911700  0.16735000  1
  C  1723  1  0.02727900  0.70666500  0.09014680  1
  C  1725  1  0.98145800  0.23724400  0.61004500  1
  C  1726  1  0.96940100  0.25991500  0.62941500  1
  C  1727  1  0.99048100  0.27652700  0.64784800  1
  C  1728  1  0.02406100  0.26961500  0.64606700  1
  C  1729  1  0.03611400  0.24692200  0.62670300  1
  C  1730  1  0.01504300  0.23032500  0.60823600  1
  C  1735  1  0.02615800  0.20765400  0.58885800  1
  C  1737  1  0.97931400  0.29941400  0.66698500  1
  C  1739  1  0.52391700  0.48639500  0.36144100  1
  C  1740  1  0.53592500  0.50909000  0.38082400  1
  C  1741  1  0.51479700  0.52581100  0.39915800  1
  C  1742  1  0.48119900  0.51901300  0.39719400  1
  C  1743  1  0.46918600  0.49633700  0.37780700  1
  C  1744  1  0.49032600  0.47959800  0.35950700  1
  C  1749  1  0.47920100  0.45671200  0.34035400  1
  C  1751  1  0.52586700  0.54847700  0.41856100  1
  C  1753  1  0.07326300  0.06951600  0.63115400  1
  C  1754  1  0.06274900  0.10085300  0.63893600  1
  C  1755  1  0.08070900  0.11950700  0.65808600  1
  C  1756  1  0.10918300  0.10740000  0.67118700  1
  C  1757  1  0.12057000  0.07689400  0.66136800  1
  C  1758  1  0.10288000  0.05819100  0.64208400  1
  C  1759  1  0.12876400  0.12815600  0.69165000  1
  C  1760  1  0.14841700  0.14889100  0.67122200  1
  C  1761  1  0.17691900  0.13675400  0.65818900  1
  C  1762  1  0.19494300  0.15537500  0.63906000  1
  C  1763  1  0.18449100  0.18672500  0.63124800  1
  C  1764  1  0.15484800  0.19807600  0.64210900  1
  C  1765  1  0.13708000  0.17939500  0.66135800  1
  C  1766  1  0.10850700  0.14824900  0.71211300  1
  C  1767  1  0.14894700  0.10807400  0.71217400  1
  C  1768  1  0.18014000  0.11789500  0.72155400  1
  C  1769  1  0.19819100  0.09932300  0.74070000  1
  C  1770  1  0.18532700  0.07043600  0.75207600  1
  C  1771  1  0.15344500  0.06164300  0.74470800  1
  C  1772  1  0.13556500  0.08031700  0.72553700  1
  C  1773  1  0.07729500  0.13840200  0.72142500  1
  C  1774  1  0.05915200  0.15698100  0.74049900  1
  C  1775  1  0.07193600  0.18589900  0.75188700  1
  C  1776  1  0.10383100  0.19472400  0.74458300  1
  C  1777  1  0.12180700  0.17603900  0.72548300  1
  C  1798  1  0.68429700  0.18644100  0.13117800  1
  C  1799  1  0.69473900  0.15506000  0.13890000  1
  C  1800  1  0.67677600  0.13642900  0.15806300  1
  C  1801  1  0.64837600  0.14860000  0.17124300  1
  C  1802  1  0.63706300  0.17916400  0.16149500  1
  C  1803  1  0.65475500  0.19784300  0.14219400  1
  C  1804  1  0.62880000  0.12785100  0.19171500  1
  C  1805  1  0.60915300  0.10708500  0.17130600  1
  C  1806  1  0.58074100  0.11928800  0.15816100  1
  C  1807  1  0.56269300  0.10066000  0.13905600  1
  C  1808  1  0.57306500  0.06925500  0.13133000  1
  C  1809  1  0.60262400  0.05782600  0.14229600  1
  C  1810  1  0.62040300  0.07650800  0.16153700  1
  C  1811  1  0.64907400  0.10778100  0.21217800  1
  C  1812  1  0.60861000  0.14794200  0.21222600  1
  C  1813  1  0.57735300  0.13819600  0.22151300  1
  C  1814  1  0.55928500  0.15679200  0.24062800  1
  C  1815  1  0.57219100  0.18561800  0.25208200  1
  C  1816  1  0.60412000  0.19433900  0.24480100  1
  C  1817  1  0.62201600  0.17564300  0.22565400  1
  C  1818  1  0.68033400  0.11757100  0.22142100  1
  C  1819  1  0.69846700  0.09900300  0.24050900  1
  C  1820  1  0.68562900  0.07015700  0.25198900  1
  C  1821  1  0.65368800  0.06140600  0.24476800  1
  C  1822  1  0.63572200  0.08008300  0.22565400  1
  C  1843  1  0.18397100  0.56954000  0.25190300  1
  C  1844  1  0.19463800  0.60074700  0.24389300  1
  C  1845  1  0.17666300  0.61937900  0.22473800  1
  C  1846  1  0.14803900  0.60735400  0.21182300  1
  C  1847  1  0.13651900  0.57700100  0.22187600  1
  C  1848  1  0.15422000  0.55831800  0.24116600  1
  C  1849  1  0.12840800  0.62806700  0.19137000  1
  C  1850  1  0.10871900  0.64875700  0.21180000  1
  C  1851  1  0.08007200  0.63670900  0.22465900  1
  C  1852  1  0.06205300  0.65530800  0.24380600  1
  C  1853  1  0.07265600  0.68653400  0.25183000  1
  C  1854  1  0.10243900  0.69776800  0.24116400  1
  C  1855  1  0.12020400  0.67910400  0.22189900  1
  C  1856  1  0.14861500  0.64820800  0.17091100  1
  C  1857  1  0.10825800  0.60793800  0.17086100  1
  C  1858  1  0.07720400  0.61790900  0.16125800  1
  C  1859  1  0.05915600  0.59932500  0.14211700  1
  C  1860  1  0.07191400  0.57029000  0.13093800  1
  C  1861  1  0.10370000  0.56135900  0.13848700  1
  C  1862  1  0.12156400  0.58003500  0.15766700  1
  C  1863  1  0.17968000  0.63820800  0.16135600  1
  C  1864  1  0.19780200  0.65679000  0.14226900  1
  C  1865  1  0.18512500  0.68586900  0.13109900  1
  C  1866  1  0.15333600  0.69483800  0.13860800  1
  C  1867  1  0.13538500  0.67614800  0.15772300  1
  C  1888  1  0.57286100  0.68651700  0.75196300  1
  C  1889  1  0.56240700  0.65514800  0.74422000  1
  C  1890  1  0.58037000  0.63652200  0.72505200  1
  C  1891  1  0.60879900  0.64867900  0.71191100  1
  C  1892  1  0.62013100  0.67922100  0.72169100  1
  C  1893  1  0.60243000  0.69790200  0.74098600  1
  C  1894  1  0.62839200  0.62793100  0.69144800  1
  C  1895  1  0.64803600  0.60718400  0.71187300  1
  C  1896  1  0.67647800  0.61935700  0.72498000  1
  C  1897  1  0.69450600  0.60073000  0.74410000  1
  C  1898  1  0.68411100  0.56933900  0.75183800  1
  C  1899  1  0.65452900  0.55793400  0.74089500  1
  C  1900  1  0.63675500  0.57662300  0.72165500  1
  C  1901  1  0.60814400  0.60785600  0.67096600  1
  C  1902  1  0.64858700  0.64802900  0.67094400  1
  C  1903  1  0.67982500  0.63825900  0.66163200  1
  C  1904  1  0.69789900  0.65685300  0.64251900  1
  C  1905  1  0.68501800  0.68571400  0.63110500  1
  C  1906  1  0.65309600  0.69444800  0.63839500  1
  C  1907  1  0.63519600  0.67575200  0.65753600  1
  C  1908  1  0.57689900  0.61765700  0.66170200  1
  C  1909  1  0.55877600  0.59908800  0.64260700  1
  C  1910  1  0.57159500  0.57021000  0.63117300  1
  C  1911  1  0.60352100  0.56143700  0.63842900  1
  C  1912  1  0.62148900  0.58012800  0.65753200  1
  C  1933  1  0.82172300  0.32010300  0.00175121  1
  C  1934  1  0.85346300  0.31110200  0.99411200  1
  C  1935  1  0.87135100  0.32981500  0.97497200  1
  C  1936  1  0.85809500  0.35780300  0.96187500  1
  C  1937  1  0.82708800  0.36782200  0.97155200  1
  C  1938  1  0.80903500  0.34922400  0.99067400  1
  C  1939  1  0.87824400  0.37797800  0.94139700  1
  C  1940  1  0.89839200  0.39812200  0.96189800  1
  C  1941  1  0.88510100  0.42605600  0.97505500  1
  C  1942  1  0.90296400  0.44473000  0.99423700  1
  C  1943  1  0.93472100  0.43575500  0.00183821  1
  C  1944  1  0.94745000  0.40668400  0.99070300  1
  C  1945  1  0.92941200  0.38810900  0.97155000  1
  C  1946  1  0.89792400  0.35732000  0.92093800  1
  C  1947  1  0.85854900  0.39866000  0.92096500  1
  C  1948  1  0.87003900  0.42900300  0.91086700  1
  C  1949  1  0.85224300  0.44769800  0.89164900  1
  C  1950  1  0.82242100  0.43650200  0.88103000  1
  C  1951  1  0.81180000  0.40528600  0.88906600  1
  C  1952  1  0.82985500  0.38664700  0.90816100  1
  C  1953  1  0.88639800  0.32702100  0.91077300  1
  C  1954  1  0.90415300  0.30838300  0.89148500  1
  C  1955  1  0.93396000  0.31960600  0.88086300  1
  C  1956  1  0.94463400  0.35077100  0.88898500  1
  C  1957  1  0.92661800  0.36935300  0.90814700  1
  C  1978  1  0.93568900  0.93570900  0.50194500  1
  C  1979  1  0.90381300  0.94454000  0.49458400  1
  C  1980  1  0.88587000  0.92583900  0.47547500  1
  C  1981  1  0.89918800  0.89804300  0.46212800  1
  C  1982  1  0.93037000  0.88818600  0.47150900  1
  C  1983  1  0.94848100  0.90677200  0.49059900  1
  C  1984  1  0.87895900  0.87792600  0.44166300  1
  C  1985  1  0.85875300  0.85785300  0.46217200  1
  C  1986  1  0.87210700  0.83010500  0.47556900  1
  C  1987  1  0.85421500  0.81146800  0.49475700  1
  C  1988  1  0.82234100  0.82029900  0.50212200  1
  C  1989  1  0.80949600  0.84917200  0.49070600  1
  C  1990  1  0.82756800  0.86771200  0.47155200  1
  C  1991  1  0.85933000  0.89865400  0.42121800  1
  C  1992  1  0.89856900  0.85715200  0.42123900  1
  C  1993  1  0.88719600  0.82665100  0.41139100  1
  C  1994  1  0.90492400  0.80793900  0.39213600  1
  C  1995  1  0.93455200  0.81926800  0.38122800  1
  C  1996  1  0.94504200  0.85061000  0.38901900  1
  C  1997  1  0.92705400  0.86926000  0.40815100  1
  C  1998  1  0.87072700  0.92911400  0.41130400  1
  C  1999  1  0.85301600  0.94778300  0.39201100  1
  C  2000  1  0.82336200  0.93645800  0.38115300  1
  C  2001  1  0.81284300  0.90514700  0.38900600  1
  C  2002  1  0.83082800  0.88653200  0.40816800  1
  C  2023  1  0.32163600  0.43577500  0.38108000  1
  C  2024  1  0.35343000  0.44473700  0.38858700  1
  C  2025  1  0.37136600  0.42605800  0.40772100  1
  C  2026  1  0.35811800  0.39813600  0.42092200  1
  C  2027  1  0.32702800  0.38816300  0.41140200  1
  C  2028  1  0.30892400  0.40673700  0.39229900  1
  C  2029  1  0.37830800  0.37801900  0.44141400  1
  C  2030  1  0.39850000  0.35790700  0.42092400  1
  C  2031  1  0.38519900  0.33003100  0.40768600  1
  C  2032  1  0.40308200  0.31137200  0.38850300  1
  C  2033  1  0.43487700  0.32031000  0.38098800  1
  C  2034  1  0.44764300  0.34930900  0.39223200  1
  C  2035  1  0.42958300  0.36786600  0.41138300  1
  C  2036  1  0.39794900  0.39874200  0.46185500  1
  C  2037  1  0.35865900  0.35731300  0.46186100  1
  C  2038  1  0.37011000  0.32690900  0.47186100  1
  C  2039  1  0.35234500  0.30821400  0.49110400  1
  C  2040  1  0.32260200  0.31946300  0.50183900  1
  C  2041  1  0.31203600  0.35073200  0.49390600  1
  C  2042  1  0.33005300  0.36936700  0.47478000  1
  C  2043  1  0.38646500  0.42911400  0.47189200  1
  C  2044  1  0.40418500  0.44778100  0.49118100  1
  C  2045  1  0.43392400  0.43653400  0.50192000  1
  C  2046  1  0.44455000  0.40530600  0.49392900  1
  C  2047  1  0.42656300  0.38669000  0.47477000  1
  C  2068  1  0.43542800  0.82022100  0.88135100  1
  C  2069  1  0.40364400  0.81127900  0.88890400  1
  C  2070  1  0.38574200  0.82998900  0.90803800  1
  C  2071  1  0.39902600  0.85790900  0.92121600  1
  C  2072  1  0.43008700  0.86787700  0.91163100  1
  C  2073  1  0.44815400  0.84928400  0.89251500  1
  C  2074  1  0.37886100  0.87806200  0.94169800  1
  C  2075  1  0.35871000  0.89821100  0.92120300  1
  C  2076  1  0.37203500  0.92609900  0.90800300  1
  C  2077  1  0.35418100  0.94478000  0.88881800  1
  C  2078  1  0.32240300  0.93584900  0.88125100  1
  C  2079  1  0.30962300  0.90683100  0.89244400  1
  C  2080  1  0.32764900  0.88825400  0.91160600  1
  C  2081  1  0.35918300  0.85738000  0.96214000  1
  C  2082  1  0.39854400  0.89874900  0.96213600  1
  C  2083  1  0.38710700  0.92913300  0.97219300  1
  C  2084  1  0.40490300  0.94780400  0.99142900  1
  C  2085  1  0.43466400  0.93653800  0.00212021  1
  C  2086  1  0.44522000  0.90528300  0.99413100  1
  C  2087  1  0.42715900  0.88666800  0.97502400  1
  C  2088  1  0.37065100  0.82702000  0.97222000  1
  C  2089  1  0.35288600  0.80836300  0.99148800  1
  C  2090  1  0.32312300  0.81962000  0.00217021  1
  C  2091  1  0.31250700  0.85083600  0.99413700  1
  C  2092  1  0.33053800  0.86943900  0.97499700  1
  C  2113  1  0.02607000  0.98694700  0.54813400  1
  C  2114  1  0.03807500  0.00965800  0.56749200  1
  C  2115  1  0.01692500  0.02644200  0.58575100  1
  C  2116  1  0.98333300  0.01965400  0.58381100  1
  C  2117  1  0.97133200  0.99692000  0.56445700  1
  C  2118  1  0.99247000  0.98015300  0.54616200  1
  C  2123  1  0.98140700  0.95744300  0.52679600  1
  C  2125  1  0.02804200  0.04936900  0.60487100  1
  C  2127  1  0.73142900  0.26900600  0.04813920  1
  C  2128  1  0.71943500  0.24628600  0.06749520  1
  C  2129  1  0.74060500  0.22943200  0.08568820  1
  C  2130  1  0.77420300  0.23615800  0.08368720  1
  C  2131  1  0.78619200  0.25890400  0.06434020  1
  C  2132  1  0.76503200  0.27574100  0.04611120  1
  C  2137  1  0.77608200  0.29847800  0.02676020  1
  C  2139  1  0.72949400  0.20649200  0.10480000  1
  C  2141  1  0.23125400  0.48688700  0.33482100  1
  C  2142  1  0.21923600  0.50959700  0.31546900  1
  C  2143  1  0.24037500  0.52639600  0.29720900  1
  C  2144  1  0.27397100  0.51961900  0.29914500  1
  C  2145  1  0.28598400  0.49688700  0.31849000  1
  C  2146  1  0.26485600  0.48010800  0.33678600  1
  C  2151  1  0.27593300  0.45739600  0.35614300  1
  C  2153  1  0.22924600  0.54932600  0.27809400  1
  C  2155  1  0.52573800  0.76912100  0.83497500  1
  C  2156  1  0.53773000  0.74639500  0.81562500  1
  C  2157  1  0.51655800  0.72951600  0.79744900  1
  C  2158  1  0.48295800  0.73622400  0.79946600  1
  C  2159  1  0.47096900  0.75897600  0.81880900  1
  C  2160  1  0.49213300  0.77583800  0.83701900  1
  C  2165  1  0.48108300  0.79856200  0.85637900  1
  C  2167  1  0.52766900  0.70656300  0.77835000  1
  C  2169  1  0.27559800  0.73706400  0.08505420  1
  C  2170  1  0.28766700  0.75976900  0.06572220  1
  C  2171  1  0.26658300  0.77652400  0.04738620  1
  C  2172  1  0.23298800  0.76971300  0.04923120  1
  C  2173  1  0.22092300  0.74698600  0.06855920  1
  C  2174  1  0.24199900  0.73024600  0.08692620  1
  C  2179  1  0.23087200  0.70753300  0.10626200  1
  C  2181  1  0.27776400  0.79943500  0.02827920  1
  C  2183  1  0.77441900  0.51968900  0.79874200  1
  C  2184  1  0.78664300  0.49679300  0.81784300  1
  C  2185  1  0.76567700  0.47969100  0.83604700  1
  C  2186  1  0.73203600  0.48630700  0.83428200  1
  C  2187  1  0.71981100  0.50920200  0.81518100  1
  C  2188  1  0.74077700  0.52630400  0.79697900  1
  C  2193  1  0.72945300  0.54935500  0.77806600  1
  C  2195  1  0.77700200  0.45667300  0.85499800  1
  C  2197  1  0.48208500  0.23736000  0.29825600  1
  C  2198  1  0.47023100  0.25985900  0.31787100  1
  C  2199  1  0.49144500  0.27598600  0.33651900  1
  C  2200  1  0.52495700  0.26875600  0.33466400  1
  C  2201  1  0.53680800  0.24625200  0.31505200  1
  C  2202  1  0.51559800  0.23012700  0.29640000  1
  C  2207  1  0.52652200  0.20757700  0.27684000  1
  C  2209  1  0.48051500  0.29855300  0.35606200  1
  C  2211  1  0.02475400  0.48730400  0.04821520  1
  C  2212  1  0.03659500  0.50980800  0.06782920  1
  C  2213  1  0.01537500  0.52592300  0.08647920  1
  C  2214  1  0.98186500  0.51867800  0.08462220  1
  C  2215  1  0.97002400  0.49617400  0.06500820  1
  C  2216  1  0.99124500  0.48005900  0.04635820  1
  C  2221  1  0.98032800  0.45750000  0.02680420  1
  C  2223  1  0.02629400  0.54848700  0.10602900  1
  C  2225  1  0.73225200  0.76872100  0.54842800  1
  C  2226  1  0.72040100  0.74625400  0.56806800  1
  C  2227  1  0.74160900  0.73017500  0.58675200  1
  C  2228  1  0.77512000  0.73742800  0.58490200  1
  C  2229  1  0.78697000  0.75989200  0.56525900  1
  C  2230  1  0.76576000  0.77596800  0.54657500  1
  C  2235  1  0.77668600  0.79849400  0.52699600  1
  C  2237  1  0.73068500  0.70765700  0.60634100  1
  C  2239  1  0.23241200  0.98736600  0.83476400  1
  C  2240  1  0.22059500  0.00986200  0.81513300  1
  C  2241  1  0.24184600  0.02602600  0.79653700  1
  C  2242  1  0.27536000  0.01883200  0.79846900  1
  C  2243  1  0.28718000  0.99633800  0.81810200  1
  C  2244  1  0.26592800  0.98017500  0.83669600  1
  C  2249  1  0.27681800  0.95760800  0.85625400  1
  C  2251  1  0.23095200  0.04857500  0.77696200  1
  C  2253  1  0.27474700  0.23643600  0.58431300  1
  C  2254  1  0.28693700  0.25931300  0.56517900  1
  C  2255  1  0.26595200  0.27632800  0.54693400  1
  C  2256  1  0.23232200  0.26964600  0.54868600  1
  C  2257  1  0.22013000  0.24676600  0.56781800  1
  C  2258  1  0.24111700  0.22975600  0.58606500  1
  C  2263  1  0.22982200  0.20674200  0.60502900  1
  C  2265  1  0.27724500  0.29933900  0.52796600  1
  C  2267  1  0.77605600  0.01885000  0.29805200  1
  C  2268  1  0.78808100  0.99616900  0.31742600  1
  C  2269  1  0.76696300  0.97948900  0.33578200  1
  C  2270  1  0.73337900  0.98635300  0.33392500  1
  C  2271  1  0.72135900  0.00906000  0.31456000  1
  C  2272  1  0.74246800  0.02572100  0.29616400  1
  C  2277  1  0.73138300  0.04838500  0.27676700  1
  C  2279  1  0.77810300  0.95658000  0.35490800  1
  C  2281  1  0.52506900  0.98620000  0.04893620  1
  C  2282  1  0.53731300  0.00909400  0.06803120  1
  C  2283  1  0.51635400  0.02624700  0.08620420  1
  C  2284  1  0.48270600  0.01968400  0.08442420  1
  C  2285  1  0.47046200  0.99679000  0.06533120  1
  C  2286  1  0.49141800  0.97963600  0.04715320  1
  C  2291  1  0.48007400  0.95661400  0.02821420  1
  C  2293  1  0.52770100  0.04928600  0.10512300  1
  C  2295  1  0.02477800  0.76921100  0.33456000  1
  C  2296  1  0.03695900  0.74636800  0.31539200  1
  C  2297  1  0.01599800  0.72962500  0.29694000  1
  C  2298  1  0.98240400  0.73653500  0.29852600  1
  C  2299  1  0.97022100  0.75937600  0.31769500  1
  C  2300  1  0.99118400  0.77612100  0.33614100  1
  C  2305  1  0.97990300  0.79911700  0.35512500  1
  C  2307  1  0.02727900  0.70666500  0.27792200  1
  C  2309  1  0.98145800  0.23724400  0.79782000  1
  C  2310  1  0.96940100  0.25991500  0.81719000  1
  C  2311  1  0.99048100  0.27652700  0.83562300  1
  C  2312  1  0.02406100  0.26961500  0.83384200  1
  C  2313  1  0.03611400  0.24692200  0.81447800  1
  C  2314  1  0.01504300  0.23032500  0.79601100  1
  C  2319  1  0.02615800  0.20765400  0.77663300  1
  C  2321  1  0.97931400  0.29941400  0.85476000  1
  C  2323  1  0.52391700  0.48639500  0.54921600  1
  C  2324  1  0.53592500  0.50909000  0.56859900  1
  C  2325  1  0.51479700  0.52581100  0.58693300  1
  C  2326  1  0.48119900  0.51901300  0.58496900  1
  C  2327  1  0.46918600  0.49633700  0.56558200  1
  C  2328  1  0.49032600  0.47959800  0.54728200  1
  C  2333  1  0.47920100  0.45671200  0.52812900  1
  C  2335  1  0.52586700  0.54847700  0.60633600  1
  C  2337  1  0.07326300  0.06951600  0.81893000  1
  C  2338  1  0.06274900  0.10085300  0.82671200  1
  C  2339  1  0.08070900  0.11950700  0.84586200  1
  C  2340  1  0.10918300  0.10740000  0.85896300  1
  C  2341  1  0.12057000  0.07689400  0.84914400  1
  C  2342  1  0.10288000  0.05819100  0.82986000  1
  C  2343  1  0.12876400  0.12815600  0.87942600  1
  C  2344  1  0.14841700  0.14889100  0.85899800  1
  C  2345  1  0.17691900  0.13675400  0.84596500  1
  C  2346  1  0.19494300  0.15537500  0.82683600  1
  C  2347  1  0.18449100  0.18672500  0.81902400  1
  C  2348  1  0.15484800  0.19807600  0.82988500  1
  C  2349  1  0.13708000  0.17939500  0.84913400  1
  C  2350  1  0.10850700  0.14824900  0.89988900  1
  C  2351  1  0.14894700  0.10807400  0.89995000  1
  C  2352  1  0.18014000  0.11789500  0.90933000  1
  C  2353  1  0.19819100  0.09932300  0.92847600  1
  C  2354  1  0.18532700  0.07043600  0.93985200  1
  C  2355  1  0.15344500  0.06164300  0.93248400  1
  C  2356  1  0.13556500  0.08031700  0.91331300  1
  C  2357  1  0.07729500  0.13840200  0.90920100  1
  C  2358  1  0.05915200  0.15698100  0.92827500  1
  C  2359  1  0.07193600  0.18589900  0.93966300  1
  C  2360  1  0.10383100  0.19472400  0.93235900  1
  C  2361  1  0.12180700  0.17603900  0.91325900  1
  C  2382  1  0.68429700  0.18644100  0.31895400  1
  C  2383  1  0.69473900  0.15506000  0.32667600  1
  C  2384  1  0.67677600  0.13642900  0.34583900  1
  C  2385  1  0.64837600  0.14860000  0.35901900  1
  C  2386  1  0.63706300  0.17916400  0.34927100  1
  C  2387  1  0.65475500  0.19784300  0.32997000  1
  C  2388  1  0.62880000  0.12785100  0.37949100  1
  C  2389  1  0.60915300  0.10708500  0.35908200  1
  C  2390  1  0.58074100  0.11928800  0.34593700  1
  C  2391  1  0.56269300  0.10066000  0.32683200  1
  C  2392  1  0.57306500  0.06925500  0.31910600  1
  C  2393  1  0.60262400  0.05782600  0.33007200  1
  C  2394  1  0.62040300  0.07650800  0.34931300  1
  C  2395  1  0.64907400  0.10778100  0.39995400  1
  C  2396  1  0.60861000  0.14794200  0.40000200  1
  C  2397  1  0.57735300  0.13819600  0.40928900  1
  C  2398  1  0.55928500  0.15679200  0.42840400  1
  C  2399  1  0.57219100  0.18561800  0.43985800  1
  C  2400  1  0.60412000  0.19433900  0.43257700  1
  C  2401  1  0.62201600  0.17564300  0.41343000  1
  C  2402  1  0.68033400  0.11757100  0.40919700  1
  C  2403  1  0.69846700  0.09900300  0.42828500  1
  C  2404  1  0.68562900  0.07015700  0.43976500  1
  C  2405  1  0.65368800  0.06140600  0.43254400  1
  C  2406  1  0.63572200  0.08008300  0.41343000  1
  C  2427  1  0.18397100  0.56954000  0.43967900  1
  C  2428  1  0.19463800  0.60074700  0.43166900  1
  C  2429  1  0.17666300  0.61937900  0.41251400  1
  C  2430  1  0.14803900  0.60735400  0.39959900  1
  C  2431  1  0.13651900  0.57700100  0.40965200  1
  C  2432  1  0.15422000  0.55831800  0.42894200  1
  C  2433  1  0.12840800  0.62806700  0.37914600  1
  C  2434  1  0.10871900  0.64875700  0.39957600  1
  C  2435  1  0.08007200  0.63670900  0.41243500  1
  C  2436  1  0.06205300  0.65530800  0.43158200  1
  C  2437  1  0.07265600  0.68653400  0.43960600  1
  C  2438  1  0.10243900  0.69776800  0.42894000  1
  C  2439  1  0.12020400  0.67910400  0.40967500  1
  C  2440  1  0.14861500  0.64820800  0.35868700  1
  C  2441  1  0.10825800  0.60793800  0.35863700  1
  C  2442  1  0.07720400  0.61790900  0.34903400  1
  C  2443  1  0.05915600  0.59932500  0.32989300  1
  C  2444  1  0.07191400  0.57029000  0.31871400  1
  C  2445  1  0.10370000  0.56135900  0.32626300  1
  C  2446  1  0.12156400  0.58003500  0.34544300  1
  C  2447  1  0.17968000  0.63820800  0.34913200  1
  C  2448  1  0.19780200  0.65679000  0.33004500  1
  C  2449  1  0.18512500  0.68586900  0.31887500  1
  C  2450  1  0.15333600  0.69483800  0.32638400  1
  C  2451  1  0.13538500  0.67614800  0.34549900  1
  C  2472  1  0.57286100  0.68651700  0.93973900  1
  C  2473  1  0.56240700  0.65514800  0.93199600  1
  C  2474  1  0.58037000  0.63652200  0.91282800  1
  C  2475  1  0.60879900  0.64867900  0.89968700  1
  C  2476  1  0.62013100  0.67922100  0.90946700  1
  C  2477  1  0.60243000  0.69790200  0.92876200  1
  C  2478  1  0.62839200  0.62793100  0.87922400  1
  C  2479  1  0.64803600  0.60718400  0.89964900  1
  C  2480  1  0.67647800  0.61935700  0.91275600  1
  C  2481  1  0.69450600  0.60073000  0.93187600  1
  C  2482  1  0.68411100  0.56933900  0.93961400  1
  C  2483  1  0.65452900  0.55793400  0.92867100  1
  C  2484  1  0.63675500  0.57662300  0.90943100  1
  C  2485  1  0.60814400  0.60785600  0.85874200  1
  C  2486  1  0.64858700  0.64802900  0.85872000  1
  C  2487  1  0.67982500  0.63825900  0.84940800  1
  C  2488  1  0.69789900  0.65685300  0.83029500  1
  C  2489  1  0.68501800  0.68571400  0.81888100  1
  C  2490  1  0.65309600  0.69444800  0.82617100  1
  C  2491  1  0.63519600  0.67575200  0.84531200  1
  C  2492  1  0.57689900  0.61765700  0.84947800  1
  C  2493  1  0.55877600  0.59908800  0.83038300  1
  C  2494  1  0.57159500  0.57021000  0.81894900  1
  C  2495  1  0.60352100  0.56143700  0.82620500  1
  C  2496  1  0.62148900  0.58012800  0.84530800  1
  C  2517  1  0.82172300  0.32010300  0.18952700  1
  C  2518  1  0.85346300  0.31110200  0.18188800  1
  C  2519  1  0.87135100  0.32981500  0.16274800  1
  C  2520  1  0.85809500  0.35780300  0.14965100  1
  C  2521  1  0.82708800  0.36782200  0.15932800  1
  C  2522  1  0.80903500  0.34922400  0.17845000  1
  C  2523  1  0.87824400  0.37797800  0.12917300  1
  C  2524  1  0.89839200  0.39812200  0.14967400  1
  C  2525  1  0.88510100  0.42605600  0.16283100  1
  C  2526  1  0.90296400  0.44473000  0.18201300  1
  C  2527  1  0.93472100  0.43575500  0.18961400  1
  C  2528  1  0.94745000  0.40668400  0.17847900  1
  C  2529  1  0.92941200  0.38810900  0.15932600  1
  C  2530  1  0.89792400  0.35732000  0.10871400  1
  C  2531  1  0.85854900  0.39866000  0.10874100  1
  C  2532  1  0.87003900  0.42900300  0.09864260  1
  C  2533  1  0.85224300  0.44769800  0.07942460  1
  C  2534  1  0.82242100  0.43650200  0.06880560  1
  C  2535  1  0.81180000  0.40528600  0.07684160  1
  C  2536  1  0.82985500  0.38664700  0.09593660  1
  C  2537  1  0.88639800  0.32702100  0.09854860  1
  C  2538  1  0.90415300  0.30838300  0.07926060  1
  C  2539  1  0.93396000  0.31960600  0.06863860  1
  C  2540  1  0.94463400  0.35077100  0.07676060  1
  C  2541  1  0.92661800  0.36935300  0.09592260  1
  C  2562  1  0.93568900  0.93570900  0.68972100  1
  C  2563  1  0.90381300  0.94454000  0.68236000  1
  C  2564  1  0.88587000  0.92583900  0.66325100  1
  C  2565  1  0.89918800  0.89804300  0.64990400  1
  C  2566  1  0.93037000  0.88818600  0.65928500  1
  C  2567  1  0.94848100  0.90677200  0.67837500  1
  C  2568  1  0.87895900  0.87792600  0.62943900  1
  C  2569  1  0.85875300  0.85785300  0.64994800  1
  C  2570  1  0.87210700  0.83010500  0.66334500  1
  C  2571  1  0.85421500  0.81146800  0.68253300  1
  C  2572  1  0.82234100  0.82029900  0.68989800  1
  C  2573  1  0.80949600  0.84917200  0.67848200  1
  C  2574  1  0.82756800  0.86771200  0.65932800  1
  C  2575  1  0.85933000  0.89865400  0.60899400  1
  C  2576  1  0.89856900  0.85715200  0.60901500  1
  C  2577  1  0.88719600  0.82665100  0.59916700  1
  C  2578  1  0.90492400  0.80793900  0.57991200  1
  C  2579  1  0.93455200  0.81926800  0.56900400  1
  C  2580  1  0.94504200  0.85061000  0.57679500  1
  C  2581  1  0.92705400  0.86926000  0.59592700  1
  C  2582  1  0.87072700  0.92911400  0.59908000  1
  C  2583  1  0.85301600  0.94778300  0.57978700  1
  C  2584  1  0.82336200  0.93645800  0.56892900  1
  C  2585  1  0.81284300  0.90514700  0.57678200  1
  C  2586  1  0.83082800  0.88653200  0.59594400  1
  C  2607  1  0.32163600  0.43577500  0.56885600  1
  C  2608  1  0.35343000  0.44473700  0.57636300  1
  C  2609  1  0.37136600  0.42605800  0.59549700  1
  C  2610  1  0.35811800  0.39813600  0.60869800  1
  C  2611  1  0.32702800  0.38816300  0.59917800  1
  C  2612  1  0.30892400  0.40673700  0.58007500  1
  C  2613  1  0.37830800  0.37801900  0.62919000  1
  C  2614  1  0.39850000  0.35790700  0.60870000  1
  C  2615  1  0.38519900  0.33003100  0.59546200  1
  C  2616  1  0.40308200  0.31137200  0.57627900  1
  C  2617  1  0.43487700  0.32031000  0.56876400  1
  C  2618  1  0.44764300  0.34930900  0.58000800  1
  C  2619  1  0.42958300  0.36786600  0.59915900  1
  C  2620  1  0.39794900  0.39874200  0.64963100  1
  C  2621  1  0.35865900  0.35731300  0.64963700  1
  C  2622  1  0.37011000  0.32690900  0.65963700  1
  C  2623  1  0.35234500  0.30821400  0.67888000  1
  C  2624  1  0.32260200  0.31946300  0.68961500  1
  C  2625  1  0.31203600  0.35073200  0.68168200  1
  C  2626  1  0.33005300  0.36936700  0.66255600  1
  C  2627  1  0.38646500  0.42911400  0.65966800  1
  C  2628  1  0.40418500  0.44778100  0.67895700  1
  C  2629  1  0.43392400  0.43653400  0.68969600  1
  C  2630  1  0.44455000  0.40530600  0.68170500  1
  C  2631  1  0.42656300  0.38669000  0.66254600  1
  C  2652  1  0.43542800  0.82022100  0.06912660  1
  C  2653  1  0.40364400  0.81127900  0.07667960  1
  C  2654  1  0.38574200  0.82998900  0.09581360  1
  C  2655  1  0.39902600  0.85790900  0.10899200  1
  C  2656  1  0.43008700  0.86787700  0.09940660  1
  C  2657  1  0.44815400  0.84928400  0.08029060  1
  C  2658  1  0.37886100  0.87806200  0.12947400  1
  C  2659  1  0.35871000  0.89821100  0.10897900  1
  C  2660  1  0.37203500  0.92609900  0.09577860  1
  C  2661  1  0.35418100  0.94478000  0.07659360  1
  C  2662  1  0.32240300  0.93584900  0.06902660  1
  C  2663  1  0.30962300  0.90683100  0.08021960  1
  C  2664  1  0.32764900  0.88825400  0.09938160  1
  C  2665  1  0.35918300  0.85738000  0.14991600  1
  C  2666  1  0.39854400  0.89874900  0.14991200  1
  C  2667  1  0.38710700  0.92913300  0.15996900  1
  C  2668  1  0.40490300  0.94780400  0.17920500  1
  C  2669  1  0.43466400  0.93653800  0.18989600  1
  C  2670  1  0.44522000  0.90528300  0.18190700  1
  C  2671  1  0.42715900  0.88666800  0.16280000  1
  C  2672  1  0.37065100  0.82702000  0.15999600  1
  C  2673  1  0.35288600  0.80836300  0.17926400  1
  C  2674  1  0.32312300  0.81962000  0.18994600  1
  C  2675  1  0.31250700  0.85083600  0.18191300  1
  C  2676  1  0.33053800  0.86943900  0.16277300  1
  C  2697  1  0.02607000  0.98694700  0.73591000  1
  C  2698  1  0.03807500  0.00965800  0.75526800  1
  C  2699  1  0.01692500  0.02644200  0.77352700  1
  C  2700  1  0.98333300  0.01965400  0.77158700  1
  C  2701  1  0.97133200  0.99692000  0.75223300  1
  C  2702  1  0.99247000  0.98015300  0.73393800  1
  C  2707  1  0.98140700  0.95744300  0.71457200  1
  C  2709  1  0.02804200  0.04936900  0.79264700  1
  C  2711  1  0.73142900  0.26900600  0.23591500  1
  C  2712  1  0.71943500  0.24628600  0.25527100  1
  C  2713  1  0.74060500  0.22943200  0.27346400  1
  C  2714  1  0.77420300  0.23615800  0.27146300  1
  C  2715  1  0.78619200  0.25890400  0.25211600  1
  C  2716  1  0.76503200  0.27574100  0.23388700  1
  C  2721  1  0.77608200  0.29847800  0.21453600  1
  C  2723  1  0.72949400  0.20649200  0.29257600  1
  C  2725  1  0.23125400  0.48688700  0.52259700  1
  C  2726  1  0.21923600  0.50959700  0.50324500  1
  C  2727  1  0.24037500  0.52639600  0.48498500  1
  C  2728  1  0.27397100  0.51961900  0.48692100  1
  C  2729  1  0.28598400  0.49688700  0.50626600  1
  C  2730  1  0.26485600  0.48010800  0.52456200  1
  C  2735  1  0.27593300  0.45739600  0.54391900  1
  C  2737  1  0.22924600  0.54932600  0.46587000  1
  C  2739  1  0.52573800  0.76912100  0.02275060  1
  C  2740  1  0.53773000  0.74639500  0.00340062  1
  C  2741  1  0.51655800  0.72951600  0.98522500  1
  C  2742  1  0.48295800  0.73622400  0.98724200  1
  C  2743  1  0.47096900  0.75897600  0.00658462  1
  C  2744  1  0.49213300  0.77583800  0.02479460  1
  C  2749  1  0.48108300  0.79856200  0.04415460  1
  C  2751  1  0.52766900  0.70656300  0.96612600  1
  C  2753  1  0.27559800  0.73706400  0.27283000  1
  C  2754  1  0.28766700  0.75976900  0.25349800  1
  C  2755  1  0.26658300  0.77652400  0.23516200  1
  C  2756  1  0.23298800  0.76971300  0.23700700  1
  C  2757  1  0.22092300  0.74698600  0.25633500  1
  C  2758  1  0.24199900  0.73024600  0.27470200  1
  C  2763  1  0.23087200  0.70753300  0.29403800  1
  C  2765  1  0.27776400  0.79943500  0.21605500  1
  C  2767  1  0.77441900  0.51968900  0.98651800  1
  C  2768  1  0.78664300  0.49679300  0.00561862  1
  C  2769  1  0.76567700  0.47969100  0.02382260  1
  C  2770  1  0.73203600  0.48630700  0.02205760  1
  C  2771  1  0.71981100  0.50920200  0.00295662  1
  C  2772  1  0.74077700  0.52630400  0.98475500  1
  C  2777  1  0.72945300  0.54935500  0.96584200  1
  C  2779  1  0.77700200  0.45667300  0.04277360  1
  C  2781  1  0.48208500  0.23736000  0.48603200  1
  C  2782  1  0.47023100  0.25985900  0.50564700  1
  C  2783  1  0.49144500  0.27598600  0.52429500  1
  C  2784  1  0.52495700  0.26875600  0.52244000  1
  C  2785  1  0.53680800  0.24625200  0.50282800  1
  C  2786  1  0.51559800  0.23012700  0.48417600  1
  C  2791  1  0.52652200  0.20757700  0.46461600  1
  C  2793  1  0.48051500  0.29855300  0.54383800  1
  C  2795  1  0.02475400  0.48730400  0.23599100  1
  C  2796  1  0.03659500  0.50980800  0.25560500  1
  C  2797  1  0.01537500  0.52592300  0.27425500  1
  C  2798  1  0.98186500  0.51867800  0.27239800  1
  C  2799  1  0.97002400  0.49617400  0.25278400  1
  C  2800  1  0.99124500  0.48005900  0.23413400  1
  C  2805  1  0.98032800  0.45750000  0.21458000  1
  C  2807  1  0.02629400  0.54848700  0.29380500  1
  C  2809  1  0.73225200  0.76872100  0.73620400  1
  C  2810  1  0.72040100  0.74625400  0.75584400  1
  C  2811  1  0.74160900  0.73017500  0.77452800  1
  C  2812  1  0.77512000  0.73742800  0.77267800  1
  C  2813  1  0.78697000  0.75989200  0.75303500  1
  C  2814  1  0.76576000  0.77596800  0.73435100  1
  C  2819  1  0.77668600  0.79849400  0.71477200  1
  C  2821  1  0.73068500  0.70765700  0.79411700  1
  C  2823  1  0.23241200  0.98736600  0.02253960  1
  C  2824  1  0.22059500  0.00986200  0.00290862  1
  C  2825  1  0.24184600  0.02602600  0.98431300  1
  C  2826  1  0.27536000  0.01883200  0.98624500  1
  C  2827  1  0.28718000  0.99633800  0.00587762  1
  C  2828  1  0.26592800  0.98017500  0.02447160  1
  C  2833  1  0.27681800  0.95760800  0.04402960  1
  C  2835  1  0.23095200  0.04857500  0.96473800  1
  C  2837  1  0.27474700  0.23643600  0.77208900  1
  C  2838  1  0.28693700  0.25931300  0.75295500  1
  C  2839  1  0.26595200  0.27632800  0.73471000  1
  C  2840  1  0.23232200  0.26964600  0.73646200  1
  C  2841  1  0.22013000  0.24676600  0.75559400  1
  C  2842  1  0.24111700  0.22975600  0.77384100  1
  C  2847  1  0.22982200  0.20674200  0.79280500  1
  C  2849  1  0.27724500  0.29933900  0.71574200  1
  C  2851  1  0.77605600  0.01885000  0.48582800  1
  C  2852  1  0.78808100  0.99616900  0.50520200  1
  C  2853  1  0.76696300  0.97948900  0.52355800  1
  C  2854  1  0.73337900  0.98635300  0.52170100  1
  C  2855  1  0.72135900  0.00906000  0.50233600  1
  C  2856  1  0.74246800  0.02572100  0.48394000  1
  C  2861  1  0.73138300  0.04838500  0.46454300  1
  C  2863  1  0.77810300  0.95658000  0.54268400  1
  C  2865  1  0.52506900  0.98620000  0.23671200  1
  C  2866  1  0.53731300  0.00909400  0.25580700  1
  C  2867  1  0.51635400  0.02624700  0.27398000  1
  C  2868  1  0.48270600  0.01968400  0.27220000  1
  C  2869  1  0.47046200  0.99679000  0.25310700  1
  C  2870  1  0.49141800  0.97963600  0.23492900  1
  C  2875  1  0.48007400  0.95661400  0.21599000  1
  C  2877  1  0.52770100  0.04928600  0.29289900  1
  C  2879  1  0.02477800  0.76921100  0.52233600  1
  C  2880  1  0.03695900  0.74636800  0.50316800  1
  C  2881  1  0.01599800  0.72962500  0.48471600  1
  C  2882  1  0.98240400  0.73653500  0.48630200  1
  C  2883  1  0.97022100  0.75937600  0.50547100  1
  C  2884  1  0.99118400  0.77612100  0.52391700  1
  C  2889  1  0.97990300  0.79911700  0.54290100  1
  C  2891  1  0.02727900  0.70666500  0.46569800  1
  C  2893  1  0.98145800  0.23724400  0.98559600  1
  C  2894  1  0.96940100  0.25991500  0.00496562  1
  C  2895  1  0.99048100  0.27652700  0.02339860  1
  C  2896  1  0.02406100  0.26961500  0.02161760  1
  C  2897  1  0.03611400  0.24692200  0.00225362  1
  C  2898  1  0.01504300  0.23032500  0.98378700  1
  C  2903  1  0.02615800  0.20765400  0.96440900  1
  C  2905  1  0.97931400  0.29941400  0.04253560  1
  C  2907  1  0.52391700  0.48639500  0.73699200  1
  C  2908  1  0.53592500  0.50909000  0.75637500  1
  C  2909  1  0.51479700  0.52581100  0.77470900  1
  C  2910  1  0.48119900  0.51901300  0.77274500  1
  C  2911  1  0.46918600  0.49633700  0.75335800  1
  C  2912  1  0.49032600  0.47959800  0.73505800  1
  C  2917  1  0.47920100  0.45671200  0.71590500  1
  C  2919  1  0.52586700  0.54847700  0.79411200  1
  N  41  1  0.20088400  0.05135800  0.20679000  1
  N  42  1  0.05625100  0.20503100  0.20648600  1
  N  43  1  0.05772300  0.05037900  0.04984100  1
  N  44  1  0.20013600  0.20587100  0.05000100  1
  N  86  1  0.55661500  0.20471600  0.70676600  1
  N  87  1  0.70129800  0.05102800  0.70659900  1
  N  88  1  0.69984200  0.20556300  0.54985700  1
  N  89  1  0.55737600  0.05008600  0.55013000  1
  N  131  1  0.05636100  0.55121300  0.54957100  1
  N  132  1  0.20080000  0.70501600  0.54985300  1
  N  133  1  0.19953500  0.55041000  0.70655800  1
  N  134  1  0.05701300  0.70566600  0.70643700  1
  N  176  1  0.70059200  0.70479700  0.04975500  1
  N  177  1  0.55594300  0.55109200  0.04989000  1
  N  178  1  0.55732100  0.70562900  0.20664200  1
  N  179  1  0.69977900  0.55017300  0.20640400  1
  N  221  1  0.80673600  0.45568100  0.29983400  1
  N  222  1  0.94957000  0.30051800  0.29955400  1
  N  223  1  0.80611200  0.30094200  0.45637600  1
  N  224  1  0.95027100  0.45482900  0.45655500  1
  N  266  1  0.95018400  0.80008500  0.80000100  1
  N  267  1  0.80780300  0.95555900  0.79982400  1
  N  268  1  0.95134100  0.95485800  0.95654900  1
  N  269  1  0.80676200  0.80125400  0.95684600  1
  N  311  1  0.30695700  0.30029900  0.95642000  1
  N  312  1  0.44949100  0.45564000  0.95658900  1
  N  313  1  0.30598500  0.45490700  0.79980900  1
  N  314  1  0.45045400  0.30123800  0.79963200  1
  N  356  1  0.45035400  0.95569200  0.45668100  1
  N  357  1  0.30749300  0.80050200  0.45679300  1
  N  358  1  0.45104600  0.80106000  0.30008200  1
  N  359  1  0.30686500  0.95492300  0.29986900  1
  N  625  1  0.20088400  0.05135800  0.39456500  1
  N  626  1  0.05625100  0.20503100  0.39426100  1
  N  627  1  0.05772300  0.05037900  0.23761600  1
  N  628  1  0.20013600  0.20587100  0.23777600  1
  N  670  1  0.55661500  0.20471600  0.89454100  1
  N  671  1  0.70129800  0.05102800  0.89437400  1
  N  672  1  0.69984200  0.20556300  0.73763200  1
  N  673  1  0.55737600  0.05008600  0.73790500  1
  N  715  1  0.05636100  0.55121300  0.73734600  1
  N  716  1  0.20080000  0.70501600  0.73762800  1
  N  717  1  0.19953500  0.55041000  0.89433300  1
  N  718  1  0.05701300  0.70566600  0.89421200  1
  N  760  1  0.70059200  0.70479700  0.23753000  1
  N  761  1  0.55594300  0.55109200  0.23766500  1
  N  762  1  0.55732100  0.70562900  0.39441700  1
  N  763  1  0.69977900  0.55017300  0.39417900  1
  N  805  1  0.80673600  0.45568100  0.48760900  1
  N  806  1  0.94957000  0.30051800  0.48732900  1
  N  807  1  0.80611200  0.30094200  0.64415100  1
  N  808  1  0.95027100  0.45482900  0.64433000  1
  N  850  1  0.95018400  0.80008500  0.98777600  1
  N  851  1  0.80780300  0.95555900  0.98759900  1
  N  852  1  0.95134100  0.95485800  0.14432400  1
  N  853  1  0.80676200  0.80125400  0.14462100  1
  N  895  1  0.30695700  0.30029900  0.14419500  1
  N  896  1  0.44949100  0.45564000  0.14436400  1
  N  897  1  0.30598500  0.45490700  0.98758400  1
  N  898  1  0.45045400  0.30123800  0.98740700  1
  N  940  1  0.45035400  0.95569200  0.64445600  1
  N  941  1  0.30749300  0.80050200  0.64456800  1
  N  942  1  0.45104600  0.80106000  0.48785700  1
  N  943  1  0.30686500  0.95492300  0.48764400  1
  N  1209  1  0.20088400  0.05135800  0.58234100  1
  N  1210  1  0.05625100  0.20503100  0.58203700  1
  N  1211  1  0.05772300  0.05037900  0.42539200  1
  N  1212  1  0.20013600  0.20587100  0.42555200  1
  N  1254  1  0.55661500  0.20471600  0.08231680  1
  N  1255  1  0.70129800  0.05102800  0.08214980  1
  N  1256  1  0.69984200  0.20556300  0.92540800  1
  N  1257  1  0.55737600  0.05008600  0.92568100  1
  N  1299  1  0.05636100  0.55121300  0.92512200  1
  N  1300  1  0.20080000  0.70501600  0.92540400  1
  N  1301  1  0.19953500  0.55041000  0.08210880  1
  N  1302  1  0.05701300  0.70566600  0.08198780  1
  N  1344  1  0.70059200  0.70479700  0.42530600  1
  N  1345  1  0.55594300  0.55109200  0.42544100  1
  N  1346  1  0.55732100  0.70562900  0.58219300  1
  N  1347  1  0.69977900  0.55017300  0.58195500  1
  N  1389  1  0.80673600  0.45568100  0.67538500  1
  N  1390  1  0.94957000  0.30051800  0.67510500  1
  N  1391  1  0.80611200  0.30094200  0.83192700  1
  N  1392  1  0.95027100  0.45482900  0.83210600  1
  N  1434  1  0.95018400  0.80008500  0.17555200  1
  N  1435  1  0.80780300  0.95555900  0.17537500  1
  N  1436  1  0.95134100  0.95485800  0.33210000  1
  N  1437  1  0.80676200  0.80125400  0.33239700  1
  N  1479  1  0.30695700  0.30029900  0.33197100  1
  N  1480  1  0.44949100  0.45564000  0.33214000  1
  N  1481  1  0.30598500  0.45490700  0.17536000  1
  N  1482  1  0.45045400  0.30123800  0.17518300  1
  N  1524  1  0.45035400  0.95569200  0.83223200  1
  N  1525  1  0.30749300  0.80050200  0.83234400  1
  N  1526  1  0.45104600  0.80106000  0.67563300  1
  N  1527  1  0.30686500  0.95492300  0.67542000  1
  N  1793  1  0.20088400  0.05135800  0.77011600  1
  N  1794  1  0.05625100  0.20503100  0.76981200  1
  N  1795  1  0.05772300  0.05037900  0.61316700  1
  N  1796  1  0.20013600  0.20587100  0.61332700  1
  N  1838  1  0.55661500  0.20471600  0.27009200  1
  N  1839  1  0.70129800  0.05102800  0.26992500  1
  N  1840  1  0.69984200  0.20556300  0.11318300  1
  N  1841  1  0.55737600  0.05008600  0.11345600  1
  N  1883  1  0.05636100  0.55121300  0.11289700  1
  N  1884  1  0.20080000  0.70501600  0.11317900  1
  N  1885  1  0.19953500  0.55041000  0.26988400  1
  N  1886  1  0.05701300  0.70566600  0.26976300  1
  N  1928  1  0.70059200  0.70479700  0.61308100  1
  N  1929  1  0.55594300  0.55109200  0.61321600  1
  N  1930  1  0.55732100  0.70562900  0.76996800  1
  N  1931  1  0.69977900  0.55017300  0.76973000  1
  N  1973  1  0.80673600  0.45568100  0.86316000  1
  N  1974  1  0.94957000  0.30051800  0.86288000  1
  N  1975  1  0.80611200  0.30094200  0.01970220  1
  N  1976  1  0.95027100  0.45482900  0.01988120  1
  N  2018  1  0.95018400  0.80008500  0.36332700  1
  N  2019  1  0.80780300  0.95555900  0.36315000  1
  N  2020  1  0.95134100  0.95485800  0.51987500  1
  N  2021  1  0.80676200  0.80125400  0.52017200  1
  N  2063  1  0.30695700  0.30029900  0.51974600  1
  N  2064  1  0.44949100  0.45564000  0.51991500  1
  N  2065  1  0.30598500  0.45490700  0.36313500  1
  N  2066  1  0.45045400  0.30123800  0.36295800  1
  N  2108  1  0.45035400  0.95569200  0.02000720  1
  N  2109  1  0.30749300  0.80050200  0.02011920  1
  N  2110  1  0.45104600  0.80106000  0.86340800  1
  N  2111  1  0.30686500  0.95492300  0.86319500  1
  N  2377  1  0.20088400  0.05135800  0.95789200  1
  N  2378  1  0.05625100  0.20503100  0.95758800  1
  N  2379  1  0.05772300  0.05037900  0.80094300  1
  N  2380  1  0.20013600  0.20587100  0.80110300  1
  N  2422  1  0.55661500  0.20471600  0.45786800  1
  N  2423  1  0.70129800  0.05102800  0.45770100  1
  N  2424  1  0.69984200  0.20556300  0.30095900  1
  N  2425  1  0.55737600  0.05008600  0.30123200  1
  N  2467  1  0.05636100  0.55121300  0.30067300  1
  N  2468  1  0.20080000  0.70501600  0.30095500  1
  N  2469  1  0.19953500  0.55041000  0.45766000  1
  N  2470  1  0.05701300  0.70566600  0.45753900  1
  N  2512  1  0.70059200  0.70479700  0.80085700  1
  N  2513  1  0.55594300  0.55109200  0.80099200  1
  N  2514  1  0.55732100  0.70562900  0.95774400  1
  N  2515  1  0.69977900  0.55017300  0.95750600  1
  N  2557  1  0.80673600  0.45568100  0.05093560  1
  N  2558  1  0.94957000  0.30051800  0.05065560  1
  N  2559  1  0.80611200  0.30094200  0.20747800  1
  N  2560  1  0.95027100  0.45482900  0.20765700  1
  N  2602  1  0.95018400  0.80008500  0.55110300  1
  N  2603  1  0.80780300  0.95555900  0.55092600  1
  N  2604  1  0.95134100  0.95485800  0.70765100  1
  N  2605  1  0.80676200  0.80125400  0.70794800  1
  N  2647  1  0.30695700  0.30029900  0.70752200  1
  N  2648  1  0.44949100  0.45564000  0.70769100  1
  N  2649  1  0.30598500  0.45490700  0.55091100  1
  N  2650  1  0.45045400  0.30123800  0.55073400  1
  N  2692  1  0.45035400  0.95569200  0.20778300  1
  N  2693  1  0.30749300  0.80050200  0.20789500  1
  N  2694  1  0.45104600  0.80106000  0.05118360  1
  N  2695  1  0.30686500  0.95492300  0.05097060  1
