# generated using pymatgen
data_H16C16N5O
_symmetry_space_group_name_H-M   'P 1'
_cell_length_a   56.05530000
_cell_length_b   56.05530000
_cell_length_c   59.32120000
_cell_angle_alpha   90.00000000
_cell_angle_beta   90.00000000
_cell_angle_gamma   90.00000000
_symmetry_Int_Tables_number   1
_chemical_formula_structural   H16C16N5O
_chemical_formula_sum   'H1024 C1024 N320 O64'
_cell_volume   186398.87639389
_cell_formula_units_Z   64
loop_
 _symmetry_equiv_pos_site_id
 _symmetry_equiv_pos_as_xyz
  1  'x, y, z'
loop_
 _atom_site_type_symbol
 _atom_site_label
 _atom_site_symmetry_multiplicity
 _atom_site_fract_x
 _atom_site_fract_y
 _atom_site_fract_z
 _atom_site_occupancy
  H  7  1  0.17108800  0.22914300  0.13588400  1
  H  8  1  0.17010000  0.19219000  0.07460700  1
  H  15  1  0.09324200  0.26319700  0.19234800  1
  H  16  1  0.10004600  0.24535400  0.12430000  1
  H  19  1  0.09227600  0.20017000  0.12665900  1
  H  20  1  0.09176000  0.18830000  0.10133200  1
  H  21  1  0.15627900  0.20770500  0.18919100  1
  H  22  1  0.15616200  0.19786500  0.16319000  1
  H  27  1  0.06978200  0.27656800  0.13971900  1
  H  28  1  0.12213900  0.16857800  0.07085600  1
  H  29  1  0.20809400  0.21392600  0.09242700  1
  H  30  1  0.13345300  0.22625900  0.21613500  1
  H  37  1  0.82968400  0.62424700  0.13575000  1
  H  38  1  0.83063100  0.66115400  0.07444300  1
  H  45  1  0.90751400  0.59016500  0.19218600  1
  H  46  1  0.90070500  0.60796500  0.12413000  1
  H  49  1  0.90851300  0.65314400  0.12641700  1
  H  50  1  0.90900900  0.66498800  0.10108000  1
  H  51  1  0.84454000  0.64572800  0.18901200  1
  H  52  1  0.84466400  0.65555000  0.16300500  1
  H  57  1  0.93095300  0.57676400  0.13953500  1
  H  58  1  0.87861600  0.68469500  0.07059900  1
  H  59  1  0.79265400  0.63942900  0.09231800  1
  H  60  1  0.86733900  0.62717800  0.21596000  1
  H  67  1  0.69766400  0.09746600  0.13573100  1
  H  68  1  0.73473500  0.09672700  0.07451300  1
  H  75  1  0.66396900  0.01944800  0.19214600  1
  H  76  1  0.68179100  0.02636800  0.12409800  1
  H  79  1  0.72696200  0.01877200  0.12643100  1
  H  80  1  0.73885200  0.01831700  0.10111800  1
  H  81  1  0.71926800  0.08261100  0.18904600  1
  H  82  1  0.72907600  0.08257500  0.16302500  1
  H  87  1  0.65058600  0.99599400  0.13959100  1
  H  88  1  0.75852700  0.04890500  0.07067800  1
  H  89  1  0.71306500  0.13441100  0.09208900  1
  H  90  1  0.70074300  0.05970400  0.21597400  1
  H  97  1  0.30264200  0.75595700  0.13565900  1
  H  98  1  0.26581800  0.75690200  0.07431600  1
  H  105  1  0.33686500  0.83380500  0.19201400  1
  H  106  1  0.31906700  0.82698300  0.12396000  1
  H  109  1  0.27403100  0.83491100  0.12613600  1
  H  110  1  0.26225200  0.83538900  0.10078100  1
  H  111  1  0.28119900  0.77096700  0.18888500  1
  H  112  1  0.27138200  0.77105600  0.16287200  1
  H  117  1  0.35030200  0.85720600  0.13940500  1
  H  118  1  0.24238400  0.80501900  0.07050600  1
  H  119  1  0.28762800  0.71893600  0.09238500  1
  H  120  1  0.29987500  0.79372100  0.21582500  1
  H  127  1  0.82963900  0.22900600  0.88334100  1
  H  128  1  0.83066800  0.19210300  0.94464100  1
  H  135  1  0.90748700  0.26319900  0.82692300  1
  H  136  1  0.90066700  0.24536100  0.89496700  1
  H  139  1  0.90850600  0.20020000  0.89262900  1
  H  140  1  0.90903200  0.18835900  0.91796600  1
  H  141  1  0.84451700  0.20763400  0.83005500  1
  H  142  1  0.84464200  0.19778700  0.85605200  1
  H  147  1  0.93086600  0.27665300  0.87951100  1
  H  148  1  0.87884800  0.16862200  0.94831100  1
  H  149  1  0.79269700  0.21398000  0.92668000  1
  H  150  1  0.86728600  0.22623900  0.80312200  1
  H  157  1  0.17094100  0.62433700  0.88352300  1
  H  158  1  0.16981900  0.66115900  0.94487200  1
  H  165  1  0.09319000  0.58997400  0.82707900  1
  H  166  1  0.09993600  0.60778500  0.89513600  1
  H  169  1  0.09199800  0.65292300  0.89285900  1
  H  170  1  0.09144400  0.66472200  0.91821200  1
  H  171  1  0.15602400  0.64569600  0.83027200  1
  H  172  1  0.15585100  0.65552900  0.85627300  1
  H  177  1  0.06971800  0.57655500  0.87970600  1
  H  178  1  0.12160100  0.68449000  0.94860100  1
  H  179  1  0.20793200  0.63941500  0.92679300  1
  H  180  1  0.13334400  0.62705900  0.80332600  1
  H  187  1  0.30304900  0.09744900  0.88354800  1
  H  188  1  0.26600500  0.09662000  0.94477900  1
  H  195  1  0.33680300  0.01949800  0.82707300  1
  H  196  1  0.31900800  0.02635500  0.89513300  1
  H  199  1  0.27384200  0.01871700  0.89280500  1
  H  200  1  0.26196400  0.01822700  0.91812100  1
  H  201  1  0.28144500  0.08260800  0.83023700  1
  H  202  1  0.27164900  0.08254200  0.85626000  1
  H  207  1  0.35021600  0.99603200  0.87961700  1
  H  208  1  0.24227100  0.04872600  0.94856600  1
  H  209  1  0.28756600  0.13435700  0.92720400  1
  H  210  1  0.29999100  0.05977100  0.80329000  1
  H  217  1  0.69795500  0.75592100  0.88359500  1
  H  218  1  0.73478500  0.75685900  0.94493600  1
  H  225  1  0.66380100  0.83380500  0.82722900  1
  H  226  1  0.68157100  0.82694700  0.89528800  1
  H  229  1  0.72662500  0.83485700  0.89309100  1
  H  230  1  0.73840800  0.83533700  0.91844300  1
  H  231  1  0.71941800  0.77092000  0.83035800  1
  H  232  1  0.72922600  0.77099300  0.85637400  1
  H  237  1  0.65034300  0.85718000  0.87984300  1
  H  238  1  0.75825100  0.80502200  0.94870200  1
  H  239  1  0.71296200  0.71891300  0.92690400  1
  H  240  1  0.70078200  0.79371600  0.80341700  1
  H  247  1  0.84011400  0.61964700  0.87509800  1
  H  248  1  0.83970600  0.64271000  0.94185800  1
  H  255  1  0.91505500  0.59170300  0.81477500  1
  H  256  1  0.91305500  0.60245100  0.88441300  1
  H  259  1  0.91842300  0.64626000  0.89069400  1
  H  260  1  0.91841200  0.65283900  0.91766400  1
  H  261  1  0.85438400  0.64749200  0.82614400  1
  H  262  1  0.85614500  0.65465100  0.85287500  1
  H  267  1  0.94452000  0.57344600  0.83974900  1
  H  268  1  0.89885800  0.63371100  0.95177900  1
  H  269  1  0.80173800  0.62446500  0.91687500  1
  H  270  1  0.87245000  0.62717800  0.79596700  1
  H  277  1  0.16044100  0.23329400  0.87523600  1
  H  278  1  0.16087700  0.21030500  0.94202500  1
  H  285  1  0.08552000  0.26127900  0.81493700  1
  H  286  1  0.08758500  0.25069300  0.88459500  1
  H  289  1  0.08208600  0.20688100  0.89094000  1
  H  290  1  0.08211200  0.20033100  0.91791500  1
  H  291  1  0.14604100  0.20532000  0.82635600  1
  H  292  1  0.14431100  0.19824900  0.85310900  1
  H  297  1  0.05613800  0.27976300  0.83995200  1
  H  298  1  0.10174800  0.21943000  0.95199400  1
  H  299  1  0.19881400  0.22866900  0.91679900  1
  H  300  1  0.12806200  0.22565400  0.79615800  1
  H  307  1  0.30737700  0.76633200  0.87492200  1
  H  308  1  0.28432100  0.76595400  0.94168300  1
  H  315  1  0.33519700  0.84120600  0.81449400  1
  H  316  1  0.32435400  0.83939900  0.88412600  1
  H  319  1  0.28062800  0.84462200  0.89045300  1
  H  320  1  0.27411100  0.84468700  0.91742700  1
  H  321  1  0.27946300  0.78063000  0.82591800  1
  H  322  1  0.27229500  0.78244500  0.85266000  1
  H  327  1  0.35323800  0.87092300  0.83939900  1
  H  328  1  0.29326000  0.82510600  0.95154900  1
  H  329  1  0.30233700  0.72812900  0.91721400  1
  H  330  1  0.29991100  0.79862200  0.79569900  1
  H  337  1  0.69326000  0.08683500  0.87516200  1
  H  338  1  0.71645800  0.08734800  0.94188300  1
  H  345  1  0.66519800  0.01182200  0.81497400  1
  H  346  1  0.67597000  0.01394000  0.88461000  1
  H  349  1  0.71964800  0.00840500  0.89091200  1
  H  350  1  0.72625600  0.00847300  0.91786000  1
  H  351  1  0.72111100  0.07233400  0.82620400  1
  H  352  1  0.72826600  0.07069000  0.85295400  1
  H  357  1  0.64689300  0.98242700  0.84002900  1
  H  358  1  0.70735800  0.02827500  0.95191800  1
  H  359  1  0.69803300  0.12527700  0.91666600  1
  H  360  1  0.70071300  0.05420400  0.79603500  1
  H  367  1  0.16050000  0.61963600  0.14418600  1
  H  368  1  0.16083300  0.64274500  0.07743500  1
  H  375  1  0.08555700  0.59151500  0.20447500  1
  H  376  1  0.08760700  0.60232600  0.13484800  1
  H  379  1  0.08214900  0.64616300  0.12865500  1
  H  380  1  0.08213500  0.65276700  0.10169000  1
  H  381  1  0.14618400  0.64739100  0.19319100  1
  H  382  1  0.14443200  0.65457100  0.16646500  1
  H  387  1  0.05607200  0.57324400  0.17944900  1
  H  388  1  0.10170700  0.63362900  0.06758900  1
  H  389  1  0.19883000  0.62449000  0.10238500  1
  H  390  1  0.12812200  0.62705700  0.22332500  1
  H  397  1  0.84027000  0.23323600  0.14403100  1
  H  398  1  0.83984000  0.21023900  0.07724300  1
  H  405  1  0.91521300  0.26117000  0.20432700  1
  H  406  1  0.91313900  0.25052600  0.13467800  1
  H  409  1  0.91858900  0.20668700  0.12838300  1
  H  410  1  0.91857100  0.20012400  0.10140900  1
  H  411  1  0.85461600  0.20527900  0.19294500  1
  H  412  1  0.85634100  0.19818300  0.16619800  1
  H  417  1  0.94459900  0.27962000  0.17929700  1
  H  418  1  0.89897800  0.21928500  0.06732400  1
  H  419  1  0.80191500  0.22855100  0.10224800  1
  H  420  1  0.87258100  0.22560200  0.22311300  1
  H  427  1  0.69342900  0.76632000  0.14429900  1
  H  428  1  0.71650400  0.76596800  0.07754400  1
  H  435  1  0.66562800  0.84120300  0.20473600  1
  H  436  1  0.67649900  0.83938300  0.13510900  1
  H  439  1  0.72025100  0.84459800  0.12882900  1
  H  440  1  0.72678200  0.84467600  0.10185900  1
  H  441  1  0.72132600  0.78057300  0.19332700  1
  H  442  1  0.72850900  0.78238600  0.16658900  1
  H  447  1  0.64758000  0.87090500  0.17981300  1
  H  448  1  0.70764000  0.82516000  0.06772800  1
  H  449  1  0.69842200  0.72814800  0.10199000  1
  H  450  1  0.70089700  0.79852200  0.22351700  1
  H  457  1  0.30727500  0.08683600  0.14409900  1
  H  458  1  0.28413400  0.08726700  0.07735800  1
  H  465  1  0.33528500  0.01186900  0.20437400  1
  H  466  1  0.32456900  0.01392900  0.13472900  1
  H  469  1  0.28088700  0.00839200  0.12841800  1
  H  470  1  0.27430000  0.00842500  0.10146600  1
  H  471  1  0.27939500  0.07238000  0.19305800  1
  H  472  1  0.27225800  0.07071800  0.16630500  1
  H  477  1  0.35356500  0.98242200  0.17937600  1
  H  478  1  0.29321600  0.02815700  0.06740700  1
  H  479  1  0.30256700  0.12527100  0.10264100  1
  H  480  1  0.29978400  0.05429600  0.22325400  1
  H  487  1  0.67051600  0.73366800  0.64025200  1
  H  488  1  0.67058900  0.69370000  0.58067700  1
  H  495  1  0.59091200  0.77195900  0.69251400  1
  H  496  1  0.59993000  0.75017100  0.62576500  1
  H  499  1  0.59153000  0.70529800  0.63039900  1
  H  500  1  0.59158900  0.69204500  0.60568400  1
  H  501  1  0.65329900  0.71583900  0.69435100  1
  H  502  1  0.65416600  0.70453100  0.66888300  1
  H  507  1  0.56955300  0.78429500  0.64042300  1
  H  508  1  0.62316800  0.67067500  0.57606100  1
  H  509  1  0.70816600  0.71856500  0.59885000  1
  H  510  1  0.62724300  0.73528800  0.71955100  1
  H  517  1  0.33021800  0.11962900  0.64008500  1
  H  518  1  0.33012900  0.15958600  0.58050100  1
  H  525  1  0.40978300  0.08129300  0.69234000  1
  H  526  1  0.40079000  0.10307100  0.62558500  1
  H  529  1  0.40921900  0.14794600  0.63017200  1
  H  530  1  0.40915100  0.16118900  0.60545400  1
  H  531  1  0.34745800  0.13748300  0.69415900  1
  H  532  1  0.34660600  0.14878300  0.66868700  1
  H  537  1  0.43113300  0.06892000  0.64025400  1
  H  538  1  0.37756100  0.18256100  0.57582700  1
  H  539  1  0.29255900  0.13472000  0.59870900  1
  H  540  1  0.37352000  0.11804300  0.71936100  1
  H  547  1  0.19317500  0.59699200  0.64012200  1
  H  548  1  0.23324500  0.59730600  0.58060900  1
  H  555  1  0.15520500  0.51720000  0.69231000  1
  H  556  1  0.17704500  0.52633900  0.62558600  1
  H  559  1  0.22190900  0.51813300  0.63023600  1
  H  560  1  0.23518000  0.51824300  0.60553600  1
  H  561  1  0.21111300  0.57973200  0.69425000  1
  H  562  1  0.22241800  0.58067800  0.66877500  1
  H  567  1  0.14286000  0.49578700  0.64039600  1
  H  568  1  0.25649300  0.55003100  0.57595800  1
  H  569  1  0.20851700  0.63453200  0.59839700  1
  H  570  1  0.19170000  0.55356500  0.71940800  1
  H  577  1  0.80718600  0.25649300  0.64009200  1
  H  578  1  0.76735600  0.25635400  0.58043900  1
  H  585  1  0.84559700  0.33614300  0.69222200  1
  H  586  1  0.82387300  0.32706100  0.62546700  1
  H  589  1  0.77914100  0.33560200  0.62990200  1
  H  590  1  0.76598200  0.33549500  0.60515500  1
  H  591  1  0.78935700  0.27390600  0.69410300  1
  H  592  1  0.77806700  0.27300900  0.66862700  1
  H  597  1  0.85800600  0.35744300  0.64016800  1
  H  598  1  0.74450000  0.30396400  0.57576800  1
  H  599  1  0.79231000  0.21881100  0.59893800  1
  H  600  1  0.80890100  0.29988600  0.71928000  1
  H  607  1  0.33014300  0.73366800  0.37894200  1
  H  608  1  0.33002400  0.69377500  0.43855900  1
  H  615  1  0.40977900  0.77188900  0.32668800  1
  H  616  1  0.40074300  0.75013000  0.39344100  1
  H  619  1  0.40910600  0.70524800  0.38884400  1
  H  620  1  0.40903200  0.69202500  0.41357300  1
  H  621  1  0.34736000  0.71580500  0.32486200  1
  H  622  1  0.34648400  0.70450700  0.35033400  1
  H  627  1  0.43109200  0.78431800  0.37870300  1
  H  628  1  0.37766400  0.67074100  0.44304300  1
  H  629  1  0.29246500  0.71863100  0.42033900  1
  H  630  1  0.37342900  0.73524000  0.29965900  1
  H  637  1  0.67043000  0.11970300  0.37917200  1
  H  638  1  0.67033400  0.15963700  0.43877100  1
  H  645  1  0.59093600  0.08107200  0.32693200  1
  H  646  1  0.59988000  0.10288700  0.39368100  1
  H  649  1  0.59131700  0.14771500  0.38906900  1
  H  650  1  0.59132500  0.16094100  0.41379500  1
  H  651  1  0.65313300  0.13739700  0.32509700  1
  H  652  1  0.65394300  0.14872200  0.35055800  1
  H  657  1  0.56953500  0.06874000  0.37902000  1
  H  658  1  0.62263300  0.18238200  0.44330600  1
  H  659  1  0.70806300  0.13468400  0.42029400  1
  H  660  1  0.62714600  0.11787600  0.29990700  1
  H  667  1  0.80753600  0.59700100  0.37917500  1
  H  668  1  0.76748800  0.59720800  0.43870200  1
  H  675  1  0.84563600  0.51728200  0.32695400  1
  H  676  1  0.82379700  0.52636200  0.39368400  1
  H  679  1  0.77894500  0.51808600  0.38902800  1
  H  680  1  0.76568300  0.51815900  0.41373100  1
  H  681  1  0.78963600  0.57973200  0.32504600  1
  H  682  1  0.77833300  0.58064800  0.35052100  1
  H  687  1  0.85797900  0.49585800  0.37888200  1
  H  688  1  0.74433400  0.54985500  0.44332200  1
  H  689  1  0.79209000  0.63450300  0.42091100  1
  H  690  1  0.80909200  0.55363100  0.29987600  1
  H  697  1  0.19345900  0.25648000  0.37921700  1
  H  698  1  0.23330700  0.25634100  0.43886000  1
  H  705  1  0.15513200  0.33615000  0.32705200  1
  H  706  1  0.17684600  0.32705900  0.39380900  1
  H  709  1  0.22159400  0.33556700  0.38934300  1
  H  710  1  0.23476300  0.33546500  0.41408700  1
  H  711  1  0.21130500  0.27385400  0.32518400  1
  H  712  1  0.22259300  0.27294600  0.35066200  1
  H  717  1  0.14273300  0.35745700  0.37911300  1
  H  718  1  0.25620900  0.30400000  0.44346600  1
  H  719  1  0.20832600  0.21881800  0.42042200  1
  H  720  1  0.19179300  0.29986300  0.29999900  1
  H  727  1  0.33821600  0.11773100  0.37953900  1
  H  728  1  0.33620000  0.14363600  0.44537600  1
  H  735  1  0.41670100  0.08659800  0.32348500  1
  H  736  1  0.41023900  0.09925700  0.39245200  1
  H  739  1  0.41640500  0.14362600  0.39629500  1
  H  740  1  0.41568700  0.15145800  0.42295400  1
  H  741  1  0.35524700  0.14260100  0.32985500  1
  H  742  1  0.35580600  0.15080600  0.35633000  1
  H  747  1  0.44335100  0.06764300  0.35121200  1
  H  748  1  0.39558100  0.13327100  0.45651000  1
  H  749  1  0.29869200  0.12527900  0.42008000  1
  H  750  1  0.37520600  0.12262000  0.30174200  1
  H  757  1  0.66234000  0.73527200  0.37968200  1
  H  758  1  0.66438100  0.70939500  0.44553400  1
  H  765  1  0.58388400  0.76654800  0.32369200  1
  H  766  1  0.59043100  0.75397300  0.39266600  1
  H  769  1  0.58410500  0.70959000  0.39654200  1
  H  770  1  0.58483500  0.70176400  0.42320000  1
  H  771  1  0.64517300  0.71033700  0.33004900  1
  H  772  1  0.64464700  0.70218600  0.35653900  1
  H  777  1  0.55734900  0.78576300  0.35153700  1
  H  778  1  0.60502700  0.71988900  0.45672400  1
  H  779  1  0.70185600  0.72789300  0.42002400  1
  H  780  1  0.62524300  0.73033900  0.30193600  1
  H  787  1  0.80919700  0.26444200  0.37934700  1
  H  788  1  0.78341000  0.26242600  0.44522200  1
  H  795  1  0.83999100  0.34284200  0.32307700  1
  H  796  1  0.82737700  0.33664900  0.39207400  1
  H  799  1  0.78310800  0.34259000  0.39607500  1
  H  800  1  0.77539800  0.34194200  0.42275500  1
  H  801  1  0.78413800  0.28140800  0.32967300  1
  H  802  1  0.77597200  0.28205000  0.35617100  1
  H  807  1  0.85865100  0.36990900  0.35056800  1
  H  808  1  0.79366900  0.32181200  0.45629800  1
  H  809  1  0.80147900  0.22505600  0.42039800  1
  H  810  1  0.80419800  0.30112600  0.30148900  1
  H  817  1  0.19151400  0.58878200  0.37963900  1
  H  818  1  0.21749800  0.59089100  0.44545200  1
  H  825  1  0.16031900  0.51024600  0.32369200  1
  H  826  1  0.17293500  0.51682900  0.39265900  1
  H  829  1  0.21716600  0.51046900  0.39656900  1
  H  830  1  0.22500300  0.51123800  0.42320500  1
  H  831  1  0.21643100  0.57155500  0.32998500  1
  H  832  1  0.22461400  0.57109300  0.35647700  1
  H  837  1  0.14125500  0.48371700  0.35147000  1
  H  838  1  0.20703600  0.53160500  0.45669500  1
  H  839  1  0.19894600  0.62835200  0.41992800  1
  H  840  1  0.19640200  0.55165700  0.30189600  1
  H  847  1  0.66238700  0.11774100  0.63968400  1
  H  848  1  0.66429700  0.14374200  0.57387300  1
  H  855  1  0.58392500  0.08629200  0.69566100  1
  H  856  1  0.59046100  0.09904400  0.62671700  1
  H  859  1  0.58411600  0.14343900  0.62299200  1
  H  860  1  0.58480100  0.15132000  0.59634500  1
  H  861  1  0.64525000  0.14248000  0.68942000  1
  H  862  1  0.64470800  0.15071200  0.66295400  1
  H  867  1  0.55730500  0.06724100  0.66780900  1
  H  868  1  0.60496100  0.13318400  0.56278700  1
  H  869  1  0.70183500  0.12526900  0.59925500  1
  H  870  1  0.62528700  0.12245100  0.71748400  1
  H  877  1  0.33834200  0.73523100  0.63956100  1
  H  878  1  0.33627300  0.70933100  0.57371600  1
  H  885  1  0.41682200  0.76647600  0.69551800  1
  H  886  1  0.41025900  0.75383400  0.62655700  1
  H  889  1  0.41654600  0.70942600  0.62272400  1
  H  890  1  0.41580300  0.70158300  0.59606700  1
  H  891  1  0.35548800  0.71030000  0.68921600  1
  H  892  1  0.35600200  0.70212800  0.66273200  1
  H  897  1  0.44334200  0.78567500  0.66764000  1
  H  898  1  0.39560500  0.71977400  0.56255700  1
  H  899  1  0.29881500  0.72778800  0.59904400  1
  H  900  1  0.37543100  0.73031200  0.71730900  1
  H  907  1  0.19163700  0.26441200  0.63985800  1
  H  908  1  0.21748200  0.26246700  0.57400300  1
  H  915  1  0.16078700  0.34276000  0.69615800  1
  H  916  1  0.17349100  0.33662100  0.62717300  1
  H  919  1  0.21778500  0.34256700  0.62324700  1
  H  920  1  0.22552700  0.34195000  0.59657500  1
  H  921  1  0.21664500  0.28131700  0.68958000  1
  H  922  1  0.22484200  0.28197500  0.66309200  1
  H  927  1  0.14213200  0.36982000  0.66866700  1
  H  928  1  0.20728800  0.32189400  0.56300200  1
  H  929  1  0.19933000  0.22508100  0.59877600  1
  H  930  1  0.19655600  0.30100400  0.71775600  1
  H  937  1  0.80914000  0.58877000  0.63964700  1
  H  938  1  0.78317600  0.59080900  0.57382600  1
  H  945  1  0.84034100  0.51027100  0.69564900  1
  H  946  1  0.82773400  0.51679800  0.62667900  1
  H  949  1  0.78350100  0.51044000  0.62277400  1
  H  950  1  0.77567100  0.51117900  0.59613600  1
  H  951  1  0.78422700  0.57156700  0.68931200  1
  H  952  1  0.77604900  0.57108700  0.66281900  1
  H  957  1  0.85936500  0.48367900  0.66790800  1
  H  958  1  0.79363000  0.53148400  0.56264100  1
  H  959  1  0.80171300  0.62834300  0.59940500  1
  H  960  1  0.80426800  0.55170500  0.71741700  1
  H  969  1  0.99198900  0.28029400  0.22013900  1
  H  970  1  0.00928900  0.26481300  0.24022300  1
  H  971  1  0.99097800  0.24877400  0.22136300  1
  H  973  1  0.02984700  0.30163800  0.20597400  1
  H  974  1  0.05565300  0.28526500  0.19901500  1
  H  975  1  0.04580400  0.28609200  0.22710300  1
  H  977  1  0.02716100  0.22374500  0.20722800  1
  H  978  1  0.04275200  0.23880000  0.22889300  1
  H  979  1  0.05451600  0.23811600  0.20156600  1
  H  981  1  0.98668200  0.25742600  0.12394900  1
  H  992  1  0.00856200  0.57263900  0.22015400  1
  H  993  1  0.99127400  0.58817600  0.24021100  1
  H  994  1  0.00968600  0.60415700  0.22139500  1
  H  996  1  0.97066400  0.55144300  0.20591500  1
  H  997  1  0.94493400  0.56790500  0.19889700  1
  H  998  1  0.95470700  0.56704000  0.22700800  1
  H  1000  1  0.97363100  0.62932300  0.20720400  1
  H  1001  1  0.95793000  0.61431400  0.22882600  1
  H  1002  1  0.94623600  0.61506000  0.20147100  1
  H  1004  1  0.01416800  0.59554900  0.12398800  1
  H  1015  1  0.64649000  0.91851400  0.22019100  1
  H  1016  1  0.66194200  0.93587000  0.24025300  1
  H  1017  1  0.67800300  0.91743400  0.22151600  1
  H  1019  1  0.62528200  0.95635000  0.20584700  1
  H  1020  1  0.64172100  0.98207800  0.19878100  1
  H  1021  1  0.64081700  0.97239800  0.22692100  1
  H  1023  1  0.70316600  0.95348300  0.20730400  1
  H  1024  1  0.68808400  0.96920800  0.22886600  1
  H  1025  1  0.68888700  0.98085200  0.20149600  1
  H  1027  1  0.66962200  0.91271100  0.12409700  1
  H  1038  1  0.35419100  0.93487100  0.22000400  1
  H  1039  1  0.33864700  0.91755600  0.24003600  1
  H  1040  1  0.32267000  0.93595000  0.22120100  1
  H  1042  1  0.37546300  0.89700500  0.20579200  1
  H  1043  1  0.35905100  0.87125500  0.19874000  1
  H  1044  1  0.35985000  0.88101700  0.22685700  1
  H  1046  1  0.29757600  0.89986400  0.20696200  1
  H  1047  1  0.31256800  0.88418500  0.22860800  1
  H  1048  1  0.31188500  0.87248800  0.20125500  1
  H  1050  1  0.33148100  0.94048100  0.12380900  1
  H  1061  1  0.00870700  0.28051600  0.79914800  1
  H  1062  1  0.99143300  0.26502400  0.77905100  1
  H  1063  1  0.00977000  0.24899700  0.79789800  1
  H  1065  1  0.97081200  0.30178400  0.81332500  1
  H  1066  1  0.94503400  0.28536300  0.82027200  1
  H  1067  1  0.95488300  0.28623000  0.79218600  1
  H  1069  1  0.97363100  0.22389800  0.81202100  1
  H  1070  1  0.95801600  0.23894200  0.79036400  1
  H  1071  1  0.94625100  0.23822000  0.81769000  1
  H  1073  1  0.01404600  0.25755800  0.89531500  1
  H  1084  1  0.99208900  0.57254700  0.79912000  1
  H  1085  1  0.00941400  0.58802100  0.77904800  1
  H  1086  1  0.99103100  0.60406400  0.79784200  1
  H  1088  1  0.02995200  0.55128900  0.81339500  1
  H  1089  1  0.05571500  0.56771800  0.82037900  1
  H  1090  1  0.04592600  0.56682700  0.79227400  1
  H  1092  1  0.02712500  0.62917300  0.81201200  1
  H  1093  1  0.04281400  0.61410700  0.79041800  1
  H  1094  1  0.05449000  0.61486900  0.81777700  1
  H  1096  1  0.98651400  0.59561100  0.89525100  1
  H  1107  1  0.35445300  0.91856200  0.79901500  1
  H  1108  1  0.33903100  0.93591400  0.77893000  1
  H  1109  1  0.32294200  0.91746800  0.79763300  1
  H  1111  1  0.37561100  0.95641200  0.81341500  1
  H  1112  1  0.35913600  0.98213100  0.82043800  1
  H  1113  1  0.36011600  0.97244400  0.79230300  1
  H  1115  1  0.29773400  0.95349700  0.81180200  1
  H  1116  1  0.31285300  0.96924600  0.79028100  1
  H  1117  1  0.31198500  0.98087000  0.81765600  1
  H  1119  1  0.33109800  0.91274100  0.89506400  1
  H  1130  1  0.64626900  0.93488200  0.79932700  1
  H  1131  1  0.66182100  0.91762200  0.77926200  1
  H  1132  1  0.67778600  0.93602300  0.79809800  1
  H  1134  1  0.62508600  0.89695500  0.81351900  1
  H  1135  1  0.64156100  0.87123200  0.82053400  1
  H  1136  1  0.64070800  0.88101900  0.79242600  1
  H  1138  1  0.70296600  0.89996800  0.81227500  1
  H  1139  1  0.68798100  0.88428700  0.79062700  1
  H  1140  1  0.68871200  0.87255700  0.81796600  1
  H  1142  1  0.66918200  0.94041500  0.89548800  1
  H  1153  1  0.48553800  0.76157800  0.71635500  1
  H  1154  1  0.50353100  0.74250600  0.73277200  1
  H  1155  1  0.48824300  0.73107600  0.70910800  1
  H  1157  1  0.52099200  0.79012600  0.71078200  1
  H  1158  1  0.54894300  0.77924400  0.70185600  1
  H  1159  1  0.53759900  0.77075800  0.72832500  1
  H  1161  1  0.52834200  0.71521800  0.69170300  1
  H  1162  1  0.54010700  0.72449700  0.71793600  1
  H  1163  1  0.55392400  0.73356800  0.69294000  1
  H  1165  1  0.48706300  0.76953100  0.61831400  1
  H  1176  1  0.51506800  0.09184800  0.71634500  1
  H  1177  1  0.49705300  0.11103600  0.73262100  1
  H  1178  1  0.51240100  0.12230500  0.70891900  1
  H  1180  1  0.47961900  0.06329400  0.71087500  1
  H  1181  1  0.45169800  0.07412100  0.70180500  1
  H  1182  1  0.46296000  0.08278200  0.72825800  1
  H  1184  1  0.47234600  0.13808000  0.69134900  1
  H  1185  1  0.46053100  0.12898000  0.71761900  1
  H  1186  1  0.44675000  0.11975800  0.69265700  1
  H  1188  1  0.51375800  0.08324300  0.61835800  1
  H  1199  1  0.16515400  0.41200000  0.71640400  1
  H  1200  1  0.18409500  0.43002700  0.73292200  1
  H  1201  1  0.19571600  0.41467400  0.70937800  1
  H  1203  1  0.13667100  0.44743600  0.71054300  1
  H  1204  1  0.14761900  0.47535300  0.70160000  1
  H  1205  1  0.15589700  0.46410900  0.72817000  1
  H  1207  1  0.21173000  0.45473500  0.69198600  1
  H  1208  1  0.20225900  0.46653200  0.71814500  1
  H  1209  1  0.19338400  0.48032500  0.69307800  1
  H  1211  1  0.15806700  0.41323800  0.61831100  1
  H  1222  1  0.83542600  0.44143200  0.71618100  1
  H  1223  1  0.81634300  0.42343500  0.73258500  1
  H  1224  1  0.80492100  0.43876300  0.70893800  1
  H  1226  1  0.86394100  0.40597000  0.71056800  1
  H  1227  1  0.85304300  0.37804100  0.70159800  1
  H  1228  1  0.84456400  0.38934400  0.72808800  1
  H  1230  1  0.78902700  0.39869400  0.69148900  1
  H  1231  1  0.79829100  0.38690700  0.71771700  1
  H  1232  1  0.80735200  0.37309400  0.69271800  1
  H  1234  1  0.84333600  0.44004600  0.61814500  1
  H  1245  1  0.51518200  0.76176000  0.30285800  1
  H  1246  1  0.49723200  0.74267300  0.28641400  1
  H  1247  1  0.51253600  0.73124300  0.31007000  1
  H  1249  1  0.47966700  0.79023000  0.30844800  1
  H  1250  1  0.45173800  0.77928000  0.31735900  1
  H  1251  1  0.46310300  0.77084700  0.29088100  1
  H  1253  1  0.47246000  0.71529000  0.32745500  1
  H  1254  1  0.46069500  0.72456600  0.30122100  1
  H  1255  1  0.44684200  0.73358800  0.32621600  1
  H  1257  1  0.51360500  0.76955200  0.40091100  1
  H  1268  1  0.48565000  0.09166400  0.30291400  1
  H  1269  1  0.50372700  0.11071800  0.28655900  1
  H  1270  1  0.48841700  0.12214600  0.31021100  1
  H  1272  1  0.52101900  0.06301600  0.30850700  1
  H  1273  1  0.54897900  0.07381200  0.31750400  1
  H  1274  1  0.53771300  0.08237500  0.29102600  1
  H  1276  1  0.52851500  0.13787100  0.32772000  1
  H  1277  1  0.54031200  0.12861100  0.30149300  1
  H  1278  1  0.55405400  0.11946400  0.32650100  1
  H  1280  1  0.48693500  0.08348800  0.40093000  1
  H  1291  1  0.83551700  0.41209100  0.30280800  1
  H  1292  1  0.81658200  0.43015500  0.28632100  1
  H  1293  1  0.80496700  0.41480600  0.30986900  1
  H  1295  1  0.86406000  0.44748500  0.30865600  1
  H  1296  1  0.85316000  0.47541400  0.31761900  1
  H  1297  1  0.84483700  0.46419000  0.29105300  1
  H  1299  1  0.78903500  0.45487500  0.32729800  1
  H  1300  1  0.79849500  0.46668500  0.30114000  1
  H  1301  1  0.80741800  0.48044100  0.32621200  1
  H  1303  1  0.84280300  0.41327000  0.40088400  1
  H  1314  1  0.16498700  0.44148500  0.30312500  1
  H  1315  1  0.18405400  0.42354400  0.28665200  1
  H  1316  1  0.19552300  0.43887700  0.31027400  1
  H  1318  1  0.13656800  0.40595400  0.30880600  1
  H  1319  1  0.14756000  0.37804200  0.31772000  1
  H  1320  1  0.15592100  0.38938800  0.29121100  1
  H  1322  1  0.21156400  0.39882700  0.32764400  1
  H  1323  1  0.20223100  0.38703500  0.30143900  1
  H  1324  1  0.19328800  0.37319000  0.32646000  1
  H  1326  1  0.15749700  0.43999700  0.40119200  1
  H  1337  1  0.10662900  0.32870600  0.23914400  1
  H  1338  1  0.08897200  0.34127300  0.26066400  1
  H  1339  1  0.08627300  0.31062900  0.25423500  1
  H  1341  1  0.14461700  0.34405300  0.25810200  1
  H  1342  1  0.15006200  0.33888700  0.28692600  1
  H  1343  1  0.12617400  0.35736100  0.27877100  1
  H  1345  1  0.09499900  0.29957900  0.29631900  1
  H  1346  1  0.09427200  0.33082800  0.30037900  1
  H  1347  1  0.11836500  0.31425900  0.31065300  1
  H  1349  1  0.16438900  0.24263900  0.24489400  1
  H  1360  1  0.89426800  0.52478900  0.23906800  1
  H  1361  1  0.91191700  0.51222200  0.26059500  1
  H  1362  1  0.91461200  0.54286700  0.25416900  1
  H  1364  1  0.85627300  0.50943400  0.25800900  1
  H  1365  1  0.85081100  0.51460600  0.28683000  1
  H  1366  1  0.87470300  0.49612900  0.27869000  1
  H  1368  1  0.90585700  0.55391500  0.29626000  1
  H  1369  1  0.90660600  0.52266400  0.30030100  1
  H  1370  1  0.88249400  0.53920500  0.31057700  1
  H  1372  1  0.83647300  0.61083200  0.24479000  1
  H  1383  1  0.59825500  0.03288300  0.23890000  1
  H  1384  1  0.58569300  0.01517200  0.26038300  1
  H  1385  1  0.61633000  0.01247700  0.25392800  1
  H  1387  1  0.58292600  0.07081500  0.25796400  1
  H  1388  1  0.58812600  0.07618800  0.28679300  1
  H  1389  1  0.56963400  0.05232800  0.27860600  1
  H  1391  1  0.62741700  0.02107200  0.29601800  1
  H  1392  1  0.59617300  0.02036000  0.30010900  1
  H  1393  1  0.61277500  0.04441000  0.31042600  1
  H  1395  1  0.68436100  0.09058000  0.24474900  1
  H  1406  1  0.40246700  0.82018800  0.23869400  1
  H  1407  1  0.41510400  0.83784500  0.26017700  1
  H  1408  1  0.38446700  0.84063400  0.25375800  1
  H  1410  1  0.41770700  0.78219100  0.25771800  1
  H  1411  1  0.41253500  0.77682000  0.28655200  1
  H  1412  1  0.43108100  0.80063200  0.27834900  1
  H  1414  1  0.37340600  0.83203100  0.29585700  1
  H  1415  1  0.40465700  0.83265800  0.29991000  1
  H  1416  1  0.38800800  0.80864400  0.31023000  1
  H  1418  1  0.31618200  0.76275700  0.24461100  1
  H  1429  1  0.89400400  0.32875500  0.78017200  1
  H  1430  1  0.91166500  0.34133900  0.75866200  1
  H  1431  1  0.91438600  0.31069800  0.76509300  1
  H  1433  1  0.85602200  0.34408100  0.76118600  1
  H  1434  1  0.85060100  0.33890600  0.73235900  1
  H  1435  1  0.87447000  0.35739900  0.74052700  1
  H  1437  1  0.90570000  0.29963400  0.72300900  1
  H  1438  1  0.90640100  0.33088400  0.71894100  1
  H  1439  1  0.88233000  0.31428900  0.70865600  1
  H  1441  1  0.83636300  0.24260700  0.77435600  1
  H  1452  1  0.10646200  0.52467100  0.78015800  1
  H  1453  1  0.08882700  0.51213000  0.75861000  1
  H  1454  1  0.08613800  0.54276900  0.76505400  1
  H  1456  1  0.14446500  0.50931300  0.76123600  1
  H  1457  1  0.14995700  0.51450900  0.73242300  1
  H  1458  1  0.12604800  0.49603500  0.74052800  1
  H  1460  1  0.09494500  0.55385400  0.72297500  1
  H  1461  1  0.09417100  0.52260500  0.71891700  1
  H  1462  1  0.11830500  0.53913000  0.70866800  1
  H  1464  1  0.16423800  0.61074100  0.77451100  1
  H  1475  1  0.40252500  0.03305300  0.78035400  1
  H  1476  1  0.41510100  0.01536300  0.75886300  1
  H  1477  1  0.38446700  0.01263500  0.76532100  1
  H  1479  1  0.41782100  0.07100300  0.76130200  1
  H  1480  1  0.41260300  0.07638800  0.73247700  1
  H  1481  1  0.43112200  0.05254100  0.74064500  1
  H  1483  1  0.37336000  0.02124200  0.72323400  1
  H  1484  1  0.40460600  0.02055200  0.71914100  1
  H  1485  1  0.38798600  0.04459400  0.70883300  1
  H  1487  1  0.31632800  0.09063000  0.77450600  1
  H  1498  1  0.59818400  0.82017900  0.78054300  1
  H  1499  1  0.58552700  0.83783800  0.75907200  1
  H  1500  1  0.61616300  0.84065000  0.76548800  1
  H  1502  1  0.58297700  0.78217700  0.76150200  1
  H  1503  1  0.58814400  0.77683100  0.73266300  1
  H  1504  1  0.56957600  0.80062000  0.74088800  1
  H  1506  1  0.62721600  0.83209000  0.72338300  1
  H  1507  1  0.59596100  0.83267500  0.71933000  1
  H  1508  1  0.61264800  0.80869000  0.70900000  1
  H  1510  1  0.68448300  0.76278400  0.77460200  1
  H  1521  1  0.87920400  0.51699100  0.78524100  1
  H  1522  1  0.89545600  0.49899400  0.76628800  1
  H  1523  1  0.90376800  0.52905200  0.77040300  1
  H  1525  1  0.84074400  0.50645100  0.76474200  1
  H  1526  1  0.83795600  0.50982300  0.73540700  1
  H  1527  1  0.85750300  0.48820700  0.74626000  1
  H  1529  1  0.90090400  0.53701000  0.72779800  1
  H  1530  1  0.89462800  0.50621900  0.72509700  1
  H  1531  1  0.87596700  0.52729000  0.71228100  1
  H  1533  1  0.84148500  0.61212700  0.76711300  1
  H  1544  1  0.12135000  0.33578800  0.78544300  1
  H  1545  1  0.10523700  0.35387000  0.76645700  1
  H  1546  1  0.09685400  0.32381200  0.77044500  1
  H  1548  1  0.15991900  0.34634700  0.76519300  1
  H  1549  1  0.16293000  0.34300000  0.73587600  1
  H  1550  1  0.14333900  0.36464700  0.74661600  1
  H  1552  1  0.09995100  0.31598200  0.72782600  1
  H  1553  1  0.10627000  0.34678100  0.72526700  1
  H  1554  1  0.12498100  0.32574600  0.71246600  1
  H  1556  1  0.15908200  0.24067800  0.76728600  1
  H  1567  1  0.41010000  0.80527700  0.78514300  1
  H  1568  1  0.42807200  0.82156000  0.76619400  1
  H  1569  1  0.39800500  0.82983200  0.77031900  1
  H  1571  1  0.42067900  0.76683500  0.76462300  1
  H  1572  1  0.41731600  0.76406800  0.73528200  1
  H  1573  1  0.43890400  0.78363500  0.74615500  1
  H  1575  1  0.39003600  0.82697900  0.72771900  1
  H  1576  1  0.42083400  0.82073900  0.72500100  1
  H  1577  1  0.39977600  0.80206100  0.71218600  1
  H  1579  1  0.31499400  0.76747000  0.76701100  1
  H  1590  1  0.59054500  0.04764900  0.78535400  1
  H  1591  1  0.57256800  0.03135400  0.76641800  1
  H  1592  1  0.60262400  0.02305500  0.77057500  1
  H  1594  1  0.58003000  0.08607100  0.76476800  1
  H  1595  1  0.58340900  0.08877900  0.73542400  1
  H  1596  1  0.56179300  0.06926000  0.74632100  1
  H  1598  1  0.61061800  0.02582200  0.72797500  1
  H  1599  1  0.57983100  0.03209600  0.72523000  1
  H  1600  1  0.60091900  0.05072600  0.71239700  1
  H  1602  1  0.68570600  0.08531700  0.76722600  1
  H  1613  1  0.12155300  0.51683400  0.23405500  1
  H  1614  1  0.10531100  0.49882700  0.25300600  1
  H  1615  1  0.09696000  0.52887000  0.24886700  1
  H  1617  1  0.16001300  0.50636000  0.25459400  1
  H  1618  1  0.16276100  0.50974400  0.28393200  1
  H  1619  1  0.14325400  0.48810000  0.27306100  1
  H  1621  1  0.09977300  0.53686200  0.29146100  1
  H  1622  1  0.10610000  0.50608400  0.29419900  1
  H  1623  1  0.12471200  0.52720400  0.30700900  1
  H  1625  1  0.15907700  0.61205600  0.25218700  1
  H  1636  1  0.87933300  0.33578600  0.23372300  1
  H  1637  1  0.89546200  0.35389100  0.25267700  1
  H  1638  1  0.90384800  0.32383000  0.24870700  1
  H  1640  1  0.84077500  0.34635200  0.25400900  1
  H  1641  1  0.83781700  0.34305400  0.28333700  1
  H  1642  1  0.85738700  0.36468200  0.27253300  1
  H  1644  1  0.90079200  0.31603400  0.29133600  1
  H  1645  1  0.89447500  0.34683400  0.29387500  1
  H  1646  1  0.87577600  0.32581200  0.30671000  1
  H  1648  1  0.84167200  0.24067300  0.25202100  1
  H  1659  1  0.59065400  0.80521100  0.23400300  1
  H  1660  1  0.57265400  0.82151000  0.25292000  1
  H  1661  1  0.60271900  0.82979400  0.24880800  1
  H  1663  1  0.58007500  0.76678700  0.25456900  1
  H  1664  1  0.58340400  0.76407500  0.28391700  1
  H  1665  1  0.56182200  0.78361100  0.27298900  1
  H  1667  1  0.61065400  0.82700400  0.29141400  1
  H  1668  1  0.57986100  0.82074400  0.29412400  1
  H  1669  1  0.60092600  0.80209800  0.30697100  1
  H  1671  1  0.68577600  0.76751500  0.25228300  1
  H  1682  1  0.40994300  0.04770800  0.23390000  1
  H  1683  1  0.42795400  0.03146200  0.25284400  1
  H  1684  1  0.39789400  0.02314200  0.24874300  1
  H  1686  1  0.42047900  0.08617100  0.25439200  1
  H  1687  1  0.41711500  0.08896300  0.28372700  1
  H  1688  1  0.43873800  0.06942400  0.27286900  1
  H  1690  1  0.38995600  0.02600800  0.29135600  1
  H  1691  1  0.42075000  0.03228200  0.29403200  1
  H  1692  1  0.39969400  0.05094600  0.30686500  1
  H  1694  1  0.31480700  0.08540800  0.25206400  1
  H  1705  1  0.22887400  0.15898000  0.18360400  1
  H  1706  1  0.22243700  0.12987000  0.19323300  1
  H  1707  1  0.20560000  0.14229500  0.17105500  1
  H  1709  1  0.27310700  0.14658300  0.17718500  1
  H  1710  1  0.27969500  0.11981700  0.16283100  1
  H  1711  1  0.26458300  0.11876200  0.18869300  1
  H  1713  1  0.21539600  0.10687100  0.14484800  1
  H  1714  1  0.22964100  0.09431000  0.16865000  1
  H  1715  1  0.24484600  0.09603600  0.14282400  1
  H  1717  1  0.24159700  0.18676500  0.08929600  1
  H  1728  1  0.77176600  0.69401200  0.18363800  1
  H  1729  1  0.77815200  0.72310200  0.19335100  1
  H  1730  1  0.79498900  0.71078900  0.17111900  1
  H  1732  1  0.72748500  0.70634100  0.17728200  1
  H  1733  1  0.72084700  0.73318600  0.16308200  1
  H  1734  1  0.73599900  0.73410300  0.18892100  1
  H  1736  1  0.78511500  0.74627000  0.14505700  1
  H  1737  1  0.77081500  0.75874500  0.16886700  1
  H  1738  1  0.75564400  0.75703200  0.14301800  1
  H  1740  1  0.75915900  0.66666667  0.08919000  1
  H  1751  1  0.76785500  0.15514500  0.18348300  1
  H  1752  1  0.79694500  0.14860600  0.19310500  1
  H  1753  1  0.78446600  0.13183200  0.17091400  1
  H  1755  1  0.78039000  0.19934900  0.17709000  1
  H  1756  1  0.80719300  0.20585900  0.16276900  1
  H  1757  1  0.80816700  0.19071500  0.18861600  1
  H  1759  1  0.81992400  0.14153400  0.14472600  1
  H  1760  1  0.83252700  0.15572400  0.16853600  1
  H  1761  1  0.83085400  0.17094700  0.14271900  1
  H  1763  1  0.74009700  0.16800000  0.08919200  1
  H  1774  1  0.23259900  0.69816500  0.18353300  1
  H  1775  1  0.20348600  0.70452000  0.19319900  1
  H  1776  1  0.21581500  0.72136400  0.17098100  1
  H  1778  1  0.22033200  0.65387500  0.17718600  1
  H  1779  1  0.19354300  0.64718700  0.16291500  1
  H  1780  1  0.19252200  0.66234500  0.18875200  1
  H  1782  1  0.18038200  0.71142200  0.14484900  1
  H  1783  1  0.16790500  0.69716100  0.16868000  1
  H  1784  1  0.16964000  0.68193700  0.14286400  1
  H  1786  1  0.26027500  0.68542400  0.08921000  1
  H  1797  1  0.77158200  0.15899300  0.83552000  1
  H  1798  1  0.77796700  0.12988600  0.82585600  1
  H  1799  1  0.79486800  0.14227600  0.84800400  1
  H  1801  1  0.72734600  0.14661900  0.84201800  1
  H  1802  1  0.72077900  0.11983500  0.85635200  1
  H  1803  1  0.73583900  0.11881000  0.83046300  1
  H  1805  1  0.78511500  0.10685400  0.87420300  1
  H  1806  1  0.77077900  0.09430600  0.85044500  1
  H  1807  1  0.75566400  0.09605100  0.87632000  1
  H  1809  1  0.75916600  0.18664900  0.92990900  1
  H  1820  1  0.22885800  0.69421600  0.83557900  1
  H  1821  1  0.22257800  0.72332300  0.82585000  1
  H  1822  1  0.20569000  0.71108300  0.84807900  1
  H  1824  1  0.27318500  0.70640000  0.84193700  1
  H  1825  1  0.27990400  0.73324000  0.85611500  1
  H  1826  1  0.26475400  0.73417600  0.83027600  1
  H  1828  1  0.21566500  0.74652300  0.87412800  1
  H  1829  1  0.23004600  0.75895700  0.85034300  1
  H  1830  1  0.24517200  0.75717300  0.87621200  1
  H  1832  1  0.24139700  0.66679300  0.93000400  1
  H  1843  1  0.23280200  0.15512600  0.83574900  1
  H  1844  1  0.20371800  0.14863800  0.82608000  1
  H  1845  1  0.21614900  0.13180800  0.84825900  1
  H  1847  1  0.22030000  0.19933300  0.84219200  1
  H  1848  1  0.19348900  0.20584500  0.85650200  1
  H  1849  1  0.19252200  0.19074900  0.83063000  1
  H  1851  1  0.18067000  0.14149900  0.87442000  1
  H  1852  1  0.16810600  0.15576000  0.85062900  1
  H  1853  1  0.16978000  0.17092300  0.87648000  1
  H  1855  1  0.26049400  0.16788500  0.93005600  1
  H  1866  1  0.76776500  0.69786200  0.83564600  1
  H  1867  1  0.79684300  0.70429500  0.82592800  1
  H  1868  1  0.78447800  0.72116200  0.84811400  1
  H  1870  1  0.78020900  0.65363800  0.84209300  1
  H  1871  1  0.80703800  0.64709600  0.85636200  1
  H  1872  1  0.80797800  0.66217600  0.83048300  1
  H  1874  1  0.81997200  0.71143800  0.87423100  1
  H  1875  1  0.83249000  0.69712700  0.85044500  1
  H  1876  1  0.83081500  0.68199700  0.87631600  1
  H  1878  1  0.74038800  0.68544600  0.93010500  1
  H  1889  1  0.73108100  0.65718500  0.68500200  1
  H  1890  1  0.72550800  0.62749800  0.69345400  1
  H  1891  1  0.70769200  0.64071700  0.67239300  1
  H  1893  1  0.77525000  0.64604000  0.67668900  1
  H  1894  1  0.78186800  0.62024400  0.66084500  1
  H  1895  1  0.76771500  0.61745400  0.68708400  1
  H  1897  1  0.71726300  0.60682200  0.64426100  1
  H  1898  1  0.73241200  0.59342100  0.66713600  1
  H  1899  1  0.74682300  0.59661900  0.64105000  1
  H  1901  1  0.74040400  0.69038200  0.59201500  1
  H  1912  1  0.26960300  0.19578900  0.68501000  1
  H  1913  1  0.27515300  0.22545800  0.69353200  1
  H  1914  1  0.29294800  0.21232800  0.67240800  1
  H  1916  1  0.22539200  0.20689200  0.67677700  1
  H  1917  1  0.21872500  0.23277500  0.66107400  1
  H  1918  1  0.23293800  0.23542400  0.68729300  1
  H  1920  1  0.28330800  0.24628200  0.64441400  1
  H  1921  1  0.26811700  0.25961700  0.66730000  1
  H  1922  1  0.25373300  0.25642900  0.64119100  1
  H  1924  1  0.26031100  0.16295000  0.59189000  1
  H  1935  1  0.26964800  0.65748400  0.68491900  1
  H  1936  1  0.29931500  0.65180800  0.69336700  1
  H  1937  1  0.28603500  0.63404300  0.67230000  1
  H  1939  1  0.28093500  0.70162100  0.67661000  1
  H  1940  1  0.30676600  0.70815600  0.66078600  1
  H  1941  1  0.30948700  0.69398000  0.68701800  1
  H  1943  1  0.31996600  0.64351200  0.64417500  1
  H  1944  1  0.33341200  0.65860800  0.66705900  1
  H  1945  1  0.33027000  0.67303800  0.64097700  1
  H  1947  1  0.23646600  0.66690900  0.59194200  1
  H  1958  1  0.73072600  0.19593300  0.68495600  1
  H  1959  1  0.70103400  0.20143800  0.69342900  1
  H  1960  1  0.71418400  0.21926400  0.67233400  1
  H  1962  1  0.71968900  0.15172300  0.67670600  1
  H  1963  1  0.69388800  0.14501700  0.66089900  1
  H  1964  1  0.69109700  0.15920400  0.68712100  1
  H  1966  1  0.68029000  0.20956300  0.64423600  1
  H  1967  1  0.66695200  0.19441900  0.66714800  1
  H  1968  1  0.67015600  0.17997200  0.64108000  1
  H  1970  1  0.76390900  0.18656600  0.59198800  1
  H  1981  1  0.26948000  0.65726300  0.33420600  1
  H  1982  1  0.27505500  0.62758000  0.32574600  1
  H  1983  1  0.29288600  0.64079900  0.34679500  1
  H  1985  1  0.22531800  0.64609900  0.34254900  1
  H  1986  1  0.21872500  0.62028900  0.35838300  1
  H  1987  1  0.23286300  0.61752400  0.33213600  1
  H  1989  1  0.28335000  0.60690200  0.37492500  1
  H  1990  1  0.26817400  0.59349200  0.35207000  1
  H  1991  1  0.25379700  0.59669400  0.37817400  1
  H  1993  1  0.26025200  0.69040700  0.42722200  1
  H  2004  1  0.73102000  0.19604200  0.33420000  1
  H  2005  1  0.72557900  0.22573400  0.32568300  1
  H  2006  1  0.70774200  0.21266700  0.34681100  1
  H  2008  1  0.77528200  0.20698800  0.34241200  1
  H  2009  1  0.78204300  0.23285600  0.35810300  1
  H  2010  1  0.76782000  0.23554200  0.33189500  1
  H  2012  1  0.71750700  0.24656000  0.37480400  1
  H  2013  1  0.73276300  0.25986600  0.35194400  1
  H  2014  1  0.74711500  0.25658800  0.37806100  1
  H  2016  1  0.74028600  0.16311100  0.42727300  1
  H  2027  1  0.73102600  0.65749000  0.33430900  1
  H  2028  1  0.70136900  0.65185900  0.32579800  1
  H  2029  1  0.71459000  0.63403800  0.34685600  1
  H  2031  1  0.71975800  0.70162100  0.34267000  1
  H  2032  1  0.69390700  0.70814700  0.35847200  1
  H  2033  1  0.69121500  0.69402800  0.33220900  1
  H  2035  1  0.68061800  0.64348200  0.37493700  1
  H  2036  1  0.66722300  0.65865100  0.35206800  1
  H  2037  1  0.67034600  0.67301400  0.37818900  1
  H  2039  1  0.76407200  0.66678400  0.42733000  1
  H  2050  1  0.26965000  0.19569100  0.33425200  1
  H  2051  1  0.29931700  0.20124900  0.32573200  1
  H  2052  1  0.28615700  0.21908400  0.34681200  1
  H  2054  1  0.28080600  0.15151800  0.34256100  1
  H  2055  1  0.30665200  0.14490800  0.35833800  1
  H  2056  1  0.30936000  0.15905500  0.33208900  1
  H  2058  1  0.32010300  0.20952700  0.37487100  1
  H  2059  1  0.33346200  0.19433500  0.35199900  1
  H  2060  1  0.33029100  0.17996700  0.37811300  1
  H  2062  1  0.23676200  0.18657600  0.42735700  1
  H  2073  1  0.08823100  0.25345100  0.99770300  1
  H  2074  1  0.06570900  0.26009500  0.01748500  1
  H  2075  1  0.06405300  0.23355300  0.00153700  1
  H  2077  1  0.12153400  0.25635600  0.02845800  1
  H  2078  1  0.11656700  0.24336800  0.05518300  1
  H  2079  1  0.09783800  0.26632600  0.04573700  1
  H  2081  1  0.06055500  0.20910900  0.03879800  1
  H  2082  1  0.06090200  0.23704100  0.05267600  1
  H  2083  1  0.08073000  0.21451700  0.06108500  1
  H  2085  1  0.14083500  0.16403800  0.98961500  1
  H  2096  1  0.91242200  0.59973400  0.99752300  1
  H  2097  1  0.93497200  0.59312800  0.01728800  1
  H  2098  1  0.93659600  0.61964800  0.00130500  1
  H  2100  1  0.87915600  0.59685700  0.02831600  1
  H  2101  1  0.88415000  0.60988300  0.05501900  1
  H  2102  1  0.90287700  0.58692200  0.04558100  1
  H  2104  1  0.94012800  0.64414400  0.03853300  1
  H  2105  1  0.93980900  0.61623000  0.05244600  1
  H  2106  1  0.91998200  0.63875800  0.06084800  1
  H  2108  1  0.85974500  0.68909400  0.98938100  1
  H  2119  1  0.67346100  0.01487100  0.99769300  1
  H  2120  1  0.66682100  0.99237100  0.01749800  1
  H  2121  1  0.69332600  0.99066400  0.00150300  1
  H  2123  1  0.67067800  0.04820000  0.02843500  1
  H  2124  1  0.68369800  0.04321800  0.05514300  1
  H  2125  1  0.66069400  0.02452600  0.04573400  1
  H  2127  1  0.71783900  0.98714400  0.03872200  1
  H  2128  1  0.68993200  0.98754200  0.05264300  1
  H  2129  1  0.71250300  0.00733300  0.06101200  1
  H  2131  1  0.76294200  0.06729600  0.98938100  1
  H  2142  1  0.32744200  0.83830900  0.99729500  1
  H  2143  1  0.33418200  0.86082600  0.01705300  1
  H  2144  1  0.30766900  0.86259800  0.00107700  1
  H  2146  1  0.33013400  0.80503300  0.02809900  1
  H  2147  1  0.31716000  0.81012300  0.05480900  1
  H  2148  1  0.34022100  0.82871000  0.04534300  1
  H  2150  1  0.28320200  0.86628000  0.03830800  1
  H  2151  1  0.31111900  0.86581000  0.05221000  1
  H  2152  1  0.28848300  0.84611600  0.06062900  1
  H  2154  1  0.23772600  0.78623200  0.98916700  1
  H  2165  1  0.91244700  0.25338000  0.02166300  1
  H  2166  1  0.93495800  0.26007500  0.00188700  1
  H  2167  1  0.93664800  0.23351600  0.01780500  1
  H  2169  1  0.87912900  0.25627500  0.99091600  1
  H  2170  1  0.88411700  0.24333800  0.96417400  1
  H  2171  1  0.90281300  0.26630600  0.97365300  1
  H  2173  1  0.94017600  0.20913100  0.98051000  1
  H  2174  1  0.93978600  0.23708000  0.96666500  1
  H  2175  1  0.91998700  0.21453800  0.95823500  1
  H  2177  1  0.85994700  0.16390200  0.02964400  1
  H  2188  1  0.08807500  0.59963800  0.02184800  1
  H  2189  1  0.06554500  0.59298200  0.00207900  1
  H  2190  1  0.06388100  0.61952000  0.01803100  1
  H  2192  1  0.12136500  0.59676600  0.99107500  1
  H  2193  1  0.11636600  0.60974600  0.96435200  1
  H  2194  1  0.09766400  0.58677400  0.97381300  1
  H  2196  1  0.06034000  0.64396000  0.98077200  1
  H  2197  1  0.06070400  0.61603100  0.96689000  1
  H  2198  1  0.08050900  0.63857400  0.95847600  1
  H  2200  1  0.14065000  0.68905300  0.02990400  1
  H  2211  1  0.32702100  0.01433500  0.02163800  1
  H  2212  1  0.33354000  0.99180000  0.00183300  1
  H  2213  1  0.30700400  0.99025900  0.01779800  1
  H  2215  1  0.33006300  0.04765500  0.99090800  1
  H  2216  1  0.31703800  0.04277100  0.96418700  1
  H  2217  1  0.33991100  0.02392400  0.97360900  1
  H  2219  1  0.28251700  0.98691400  0.98054900  1
  H  2220  1  0.31044000  0.98714100  0.96665200  1
  H  2221  1  0.28800300  0.00708400  0.95827700  1
  H  2223  1  0.23792000  0.06740300  0.02983300  1
  H  2234  1  0.67345800  0.83851200  0.02206800  1
  H  2235  1  0.66666667  0.86100600  0.00229000  1
  H  2236  1  0.69327900  0.86274600  0.01818200  1
  H  2238  1  0.67058000  0.80518300  0.99133800  1
  H  2239  1  0.68349200  0.81017100  0.96458300  1
  H  2240  1  0.66050100  0.82883600  0.97406600  1
  H  2242  1  0.71761900  0.86629600  0.98086400  1
  H  2243  1  0.68965600  0.86585700  0.96704500  1
  H  2244  1  0.71222100  0.84609100  0.95860100  1
  H  2246  1  0.76297300  0.78610900  0.03000800  1
  H  2257  1  0.58930200  0.75374600  0.50121600  1
  H  2258  1  0.56590900  0.75982100  0.52024300  1
  H  2259  1  0.56564100  0.73312200  0.50445800  1
  H  2261  1  0.62141300  0.75794400  0.53296700  1
  H  2262  1  0.61591500  0.74501400  0.55962300  1
  H  2263  1  0.59681600  0.76728800  0.54941300  1
  H  2265  1  0.56162700  0.70885800  0.54176100  1
  H  2266  1  0.56062800  0.73687700  0.55545800  1
  H  2267  1  0.58085500  0.71503800  0.56460800  1
  H  2269  1  0.64490600  0.66597000  0.49538700  1
  H  2280  1  0.41136500  0.09944700  0.50101500  1
  H  2281  1  0.43478300  0.09340200  0.52002500  1
  H  2282  1  0.43501700  0.12008800  0.50422000  1
  H  2284  1  0.37928800  0.09525800  0.53279800  1
  H  2285  1  0.38480700  0.10821100  0.55944100  1
  H  2286  1  0.40390800  0.08593900  0.54922700  1
  H  2288  1  0.43905700  0.14438200  0.54150500  1
  H  2289  1  0.44008500  0.11637600  0.55522000  1
  H  2290  1  0.41985500  0.13821100  0.56437200  1
  H  2292  1  0.35568100  0.18716900  0.49517400  1
  H  2303  1  0.17328600  0.51597600  0.50123600  1
  H  2304  1  0.16720000  0.49261300  0.52029700  1
  H  2305  1  0.19387800  0.49228700  0.50448100  1
  H  2307  1  0.16918500  0.54813700  0.53295500  1
  H  2308  1  0.18212400  0.54264100  0.55960800  1
  H  2309  1  0.15981100  0.52357200  0.54942800  1
  H  2311  1  0.21817900  0.48827600  0.54176500  1
  H  2312  1  0.19017300  0.48733600  0.55548700  1
  H  2313  1  0.21205100  0.50753600  0.56460000  1
  H  2315  1  0.26113800  0.57141200  0.49521500  1
  H  2326  1  0.82774300  0.33718300  0.50084000  1
  H  2327  1  0.83392900  0.36056500  0.51985000  1
  H  2328  1  0.80724700  0.36095900  0.50404500  1
  H  2330  1  0.83173300  0.30508100  0.53262800  1
  H  2331  1  0.81882700  0.31069300  0.55927400  1
  H  2332  1  0.84121000  0.32964900  0.54904400  1
  H  2334  1  0.78297400  0.36514800  0.54132500  1
  H  2335  1  0.81098600  0.36601200  0.55503800  1
  H  2336  1  0.78903300  0.34591700  0.56419700  1
  H  2338  1  0.73962300  0.28213200  0.49497500  1
  H  2349  1  0.41128300  0.75366400  0.51810900  1
  H  2350  1  0.43465100  0.75979600  0.49906800  1
  H  2351  1  0.43496500  0.73307400  0.51481600  1
  H  2353  1  0.37912700  0.75786400  0.48639500  1
  H  2354  1  0.38462300  0.74499400  0.45971100  1
  H  2355  1  0.40369700  0.76727600  0.46994500  1
  H  2357  1  0.43897700  0.70888200  0.47746900  1
  H  2358  1  0.43991900  0.73692400  0.46381300  1
  H  2359  1  0.41971200  0.71507000  0.45465100  1
  H  2361  1  0.35580400  0.66580800  0.52385200  1
  H  2372  1  0.58915700  0.09935800  0.51829600  1
  H  2373  1  0.56577700  0.09323800  0.49926500  1
  H  2374  1  0.56546400  0.11994300  0.51504100  1
  H  2376  1  0.62128800  0.09520500  0.48655300  1
  H  2377  1  0.61576500  0.10810400  0.45988700  1
  H  2378  1  0.59670900  0.08580200  0.47011200  1
  H  2380  1  0.56141300  0.14417400  0.47772000  1
  H  2381  1  0.56047100  0.11614800  0.46403300  1
  H  2382  1  0.58066200  0.13802100  0.45488300  1
  H  2384  1  0.64463400  0.18719900  0.52408300  1
  H  2395  1  0.82726500  0.51547800  0.51809900  1
  H  2396  1  0.83321800  0.49208200  0.49903800  1
  H  2397  1  0.80652600  0.49191900  0.51483700  1
  H  2399  1  0.83159600  0.54761400  0.48638500  1
  H  2400  1  0.81863600  0.54220700  0.45972500  1
  H  2401  1  0.84082100  0.52299400  0.46991000  1
  H  2403  1  0.78222900  0.48806900  0.47753600  1
  H  2404  1  0.81023500  0.48696200  0.46382400  1
  H  2405  1  0.78848500  0.50730200  0.45471300  1
  H  2407  1  0.73980100  0.57151700  0.52403600  1
  H  2418  1  0.17322500  0.33740400  0.51854500  1
  H  2419  1  0.16701600  0.36075600  0.49950800  1
  H  2420  1  0.19375500  0.36113600  0.51523100  1
  H  2422  1  0.16906600  0.30523900  0.48684000  1
  H  2423  1  0.18190400  0.31075400  0.46014400  1
  H  2424  1  0.15958400  0.32977900  0.47038900  1
  H  2426  1  0.21789900  0.36520000  0.47786000  1
  H  2427  1  0.18984100  0.36607600  0.46423100  1
  H  2428  1  0.21173000  0.34592100  0.45505000  1
  H  2430  1  0.26115400  0.28207300  0.52423100  1
  C  1  1  0.13663600  0.21679300  0.12646100  1
  C  2  1  0.16156700  0.22020200  0.12378800  1
  C  3  1  0.17406100  0.21045600  0.10539200  1
  C  4  1  0.16106200  0.19918000  0.08816200  1
  C  5  1  0.13608500  0.19633500  0.08967700  1
  C  6  1  0.12376600  0.20380000  0.10950900  1
  C  9  1  0.12528500  0.22815700  0.14543800  1
  C  10  1  0.13328300  0.22588200  0.16833500  1
  C  11  1  0.12246700  0.24035500  0.18540300  1
  C  12  1  0.10208900  0.25410100  0.17990500  1
  C  13  1  0.09324000  0.25535100  0.15774900  1
  C  14  1  0.10595600  0.24363800  0.14058800  1
  C  23  1  0.07149000  0.26586200  0.15297800  1
  C  24  1  0.12509400  0.18604700  0.07120500  1
  C  25  1  0.19854800  0.20818400  0.10545100  1
  C  26  1  0.13042600  0.24124400  0.20766500  1
  C  31  1  0.86413700  0.63655700  0.12628100  1
  C  32  1  0.83919900  0.63316700  0.12363800  1
  C  33  1  0.82669900  0.64294000  0.10525800  1
  C  34  1  0.83967900  0.65419500  0.08800600  1
  C  35  1  0.86466300  0.65698600  0.08948000  1
  C  36  1  0.87700100  0.64952100  0.10930400  1
  C  39  1  0.87549700  0.62520700  0.14526500  1
  C  40  1  0.86751100  0.62751000  0.16816300  1
  C  41  1  0.87831800  0.61303900  0.18523900  1
  C  42  1  0.89867800  0.59926700  0.17974200  1
  C  43  1  0.90752600  0.59799500  0.15758800  1
  C  44  1  0.89482600  0.60972200  0.14042500  1
  C  53  1  0.92925700  0.58743600  0.15281900  1
  C  54  1  0.87564400  0.66723000  0.07097900  1
  C  55  1  0.80220900  0.64519600  0.10532800  1
  C  56  1  0.87037400  0.61218300  0.20750900  1
  C  61  1  0.71019600  0.06308600  0.12629200  1
  C  62  1  0.70665200  0.08799900  0.12362800  1
  C  63  1  0.71643800  0.10056600  0.10529200  1
  C  64  1  0.72777900  0.08763800  0.08805200  1
  C  65  1  0.73070600  0.06267000  0.08953200  1
  C  66  1  0.72326200  0.05029300  0.10933900  1
  C  69  1  0.69885900  0.05167400  0.14525100  1
  C  70  1  0.70111300  0.05965900  0.16815300  1
  C  71  1  0.68669100  0.04876400  0.18521400  1
  C  72  1  0.67302600  0.02833500  0.17970700  1
  C  73  1  0.67181800  0.01949000  0.15754700  1
  C  74  1  0.68349200  0.03225700  0.14039600  1
  C  83  1  0.66143600  0.99768600  0.15275000  1
  C  84  1  0.74103900  0.05174100  0.07105000  1
  C  85  1  0.71847200  0.12509800  0.10538200  1
  C  86  1  0.68576500  0.05671800  0.20747600  1
  C  91  1  0.29043800  0.79043000  0.12612800  1
  C  92  1  0.29379500  0.76548300  0.12350600  1
  C  93  1  0.28402800  0.75297000  0.10513200  1
  C  94  1  0.27283000  0.76595700  0.08785100  1
  C  95  1  0.27006700  0.79094700  0.08929700  1
  C  96  1  0.27752800  0.80329400  0.10911500  1
  C  99  1  0.30181100  0.80178600  0.14510000  1
  C  100  1  0.29948800  0.79382400  0.16800400  1
  C  101  1  0.31398300  0.80461600  0.18507100  1
  C  102  1  0.32776700  0.82496500  0.17956800  1
  C  103  1  0.32903600  0.83381000  0.15741200  1
  C  104  1  0.31732200  0.82109000  0.14025100  1
  C  113  1  0.33955900  0.85555800  0.15264500  1
  C  114  1  0.25983100  0.80190800  0.07077900  1
  C  115  1  0.28158200  0.72849600  0.10528500  1
  C  116  1  0.31486400  0.79665000  0.20733100  1
  C  121  1  0.86411600  0.21675000  0.89279600  1
  C  122  1  0.83917600  0.22010200  0.89545100  1
  C  123  1  0.82669200  0.21035100  0.91384900  1
  C  124  1  0.83970400  0.19911400  0.93109300  1
  C  125  1  0.86468500  0.19631700  0.92959400  1
  C  126  1  0.87700100  0.20379100  0.90976300  1
  C  129  1  0.87545800  0.22812800  0.87382000  1
  C  130  1  0.86747500  0.22584500  0.85092100  1
  C  131  1  0.87827900  0.24033200  0.83385800  1
  C  132  1  0.89864200  0.25409700  0.83936200  1
  C  133  1  0.90747800  0.25535800  0.86152100  1
  C  134  1  0.89476600  0.24363400  0.87867600  1
  C  143  1  0.92922800  0.26587100  0.86629800  1
  C  144  1  0.87567900  0.18605900  0.94808300  1
  C  145  1  0.80221400  0.20794600  0.91374800  1
  C  146  1  0.87032600  0.24122200  0.81159100  1
  C  151  1  0.13642800  0.63647600  0.89300200  1
  C  152  1  0.16138000  0.63319000  0.89564700  1
  C  153  1  0.17383000  0.64298600  0.91404300  1
  C  154  1  0.16080100  0.65416400  0.93130500  1
  C  155  1  0.13580800  0.65686200  0.92982500  1
  C  156  1  0.12351000  0.64937800  0.90998600  1
  C  159  1  0.12511300  0.62509100  0.87401200  1
  C  160  1  0.13310000  0.62741000  0.85111500  1
  C  161  1  0.12234100  0.61290900  0.83403600  1
  C  162  1  0.10200500  0.59909400  0.83952500  1
  C  163  1  0.09314900  0.59780700  0.86167600  1
  C  164  1  0.10582000  0.60955700  0.87884300  1
  C  173  1  0.07142100  0.58723800  0.86643100  1
  C  174  1  0.12479100  0.66705700  0.94833500  1
  C  175  1  0.19829700  0.64546400  0.91394600  1
  C  176  1  0.13029400  0.61206100  0.81176600  1
  C  181  1  0.29056600  0.06304600  0.89297300  1
  C  182  1  0.29408300  0.08796100  0.89565200  1
  C  183  1  0.28428700  0.10050400  0.91399800  1
  C  184  1  0.27297100  0.08754900  0.93123600  1
  C  185  1  0.27007200  0.06257900  0.92974100  1
  C  186  1  0.27751900  0.05022500  0.90992200  1
  C  189  1  0.30190500  0.05166000  0.87400200  1
  C  190  1  0.29963200  0.05965900  0.85110500  1
  C  191  1  0.31405600  0.04878800  0.83403100  1
  C  192  1  0.32774200  0.02836900  0.83952200  1
  C  193  1  0.32897000  0.01950900  0.86167400  1
  C  194  1  0.31729400  0.03225400  0.87883800  1
  C  203  1  0.33937700  0.99771000  0.86644800  1
  C  204  1  0.25975000  0.05162300  0.94821300  1
  C  205  1  0.28219100  0.12503100  0.91390800  1
  C  206  1  0.31496900  0.05675700  0.81177300  1
  C  211  1  0.71018900  0.79038700  0.89311500  1
  C  212  1  0.70681000  0.76544500  0.89574500  1
  C  213  1  0.71656900  0.75293100  0.91412300  1
  C  214  1  0.72778100  0.76591600  0.93139800  1
  C  215  1  0.73056600  0.79090200  0.92994300  1
  C  216  1  0.72311200  0.80324700  0.91012100  1
  C  219  1  0.69882000  0.80174900  0.87414400  1
  C  220  1  0.70114300  0.79379100  0.85123800  1
  C  221  1  0.68666300  0.80459800  0.83417100  1
  C  222  1  0.67288700  0.82495300  0.83967400  1
  C  223  1  0.67161300  0.83378900  0.86183400  1
  C  224  1  0.68331600  0.82105800  0.87899300  1
  C  233  1  0.66109100  0.85553500  0.86660700  1
  C  234  1  0.74081300  0.80186700  0.94845400  1
  C  235  1  0.71898600  0.72845300  0.91398300  1
  C  236  1  0.68578800  0.79664500  0.81190600  1
  C  241  1  0.87453000  0.62939100  0.88712000  1
  C  242  1  0.84945000  0.62613800  0.88861700  1
  C  243  1  0.83650900  0.63252100  0.90798500  1
  C  244  1  0.84914500  0.63930000  0.92738400  1
  C  245  1  0.87427200  0.64178700  0.92717700  1
  C  246  1  0.88695400  0.63846700  0.90648600  1
  C  249  1  0.88619700  0.62153000  0.86666100  1
  C  250  1  0.87702300  0.62622600  0.84449500  1
  C  251  1  0.88632100  0.61321900  0.82577000  1
  C  252  1  0.90728600  0.59954300  0.82860000  1
  C  253  1  0.91806400  0.59668200  0.84983900  1
  C  254  1  0.90629500  0.60625800  0.86878000  1
  C  263  1  0.94027300  0.58584800  0.85110600  1
  C  264  1  0.88572700  0.64489300  0.94782400  1
  C  265  1  0.81204000  0.63495800  0.90756500  1
  C  266  1  0.87534700  0.61238400  0.80476200  1
  C  271  1  0.12601900  0.22363800  0.88730900  1
  C  272  1  0.15110600  0.22684700  0.88877600  1
  C  273  1  0.16404800  0.22044800  0.90813800  1
  C  274  1  0.15142800  0.21371000  0.92755600  1
  C  275  1  0.12629400  0.21129100  0.92737400  1
  C  276  1  0.11359200  0.21461300  0.90669300  1
  C  279  1  0.11435100  0.23148000  0.86684400  1
  C  280  1  0.12348300  0.22669600  0.84468200  1
  C  281  1  0.11419100  0.23967600  0.82593600  1
  C  282  1  0.09327600  0.25343300  0.82876300  1
  C  283  1  0.08254100  0.25638600  0.85001200  1
  C  284  1  0.09429700  0.24681000  0.86895800  1
  C  293  1  0.06040800  0.26735500  0.85128800  1
  C  294  1  0.11485500  0.20822100  0.94803500  1
  C  295  1  0.18851400  0.21796700  0.90769800  1
  C  296  1  0.12516600  0.24046200  0.80492700  1
  C  301  1  0.29755400  0.80074400  0.88690100  1
  C  302  1  0.30087100  0.77567500  0.88843000  1
  C  303  1  0.29447000  0.76273700  0.90779900  1
  C  304  1  0.28770100  0.77538200  0.92719500  1
  C  305  1  0.28518200  0.80050500  0.92696400  1
  C  306  1  0.28846500  0.81317100  0.90625900  1
  C  309  1  0.30542300  0.81239500  0.86643000  1
  C  310  1  0.30076000  0.80315800  0.84427900  1
  C  311  1  0.31377600  0.81243300  0.82555000  1
  C  312  1  0.32737300  0.83345300  0.82833400  1
  C  313  1  0.33014700  0.84432300  0.84954400  1
  C  314  1  0.32058500  0.83258100  0.86850600  1
  C  323  1  0.34082200  0.86660300  0.85072400  1
  C  324  1  0.28207100  0.81197800  0.94760100  1
  C  325  1  0.29218400  0.73824000  0.90740000  1
  C  326  1  0.31467100  0.80139000  0.80458100  1
  C  331  1  0.70298600  0.05243100  0.88723200  1
  C  332  1  0.69973200  0.07751300  0.88869800  1
  C  333  1  0.70617400  0.09048300  0.90803200  1
  C  334  1  0.71299200  0.07788200  0.92743600  1
  C  335  1  0.71546100  0.05275300  0.92726600  1
  C  336  1  0.71206400  0.04003200  0.90660900  1
  C  339  1  0.69506700  0.04074400  0.86680400  1
  C  340  1  0.69978900  0.04986000  0.84462100  1
  C  341  1  0.68676400  0.04054200  0.82591500  1
  C  342  1  0.67304600  0.01961000  0.82878500  1
  C  343  1  0.67016800  0.00888100  0.85004600  1
  C  344  1  0.67977600  0.02066600  0.86896200  1
  C  353  1  0.65933200  0.98667900  0.85134900  1
  C  354  1  0.71859500  0.04135200  0.94793700  1
  C  355  1  0.70869300  0.11494300  0.90755200  1
  C  356  1  0.68592900  0.05149300  0.80489800  1
  C  361  1  0.12606600  0.62935000  0.13218900  1
  C  362  1  0.15114900  0.62612900  0.13067700  1
  C  363  1  0.16406700  0.63253900  0.11130200  1
  C  364  1  0.15141000  0.63931800  0.09191600  1
  C  365  1  0.12628100  0.64177500  0.09214200  1
  C  366  1  0.11361800  0.63842800  0.11283900  1
  C  369  1  0.11441400  0.62143900  0.15263800  1
  C  370  1  0.12356900  0.62612400  0.17481300  1
  C  371  1  0.11427000  0.61309100  0.19352300  1
  C  372  1  0.09332700  0.59938400  0.19066400  1
  C  373  1  0.08257300  0.59652500  0.16941300  1
  C  374  1  0.09434700  0.60613300  0.15049100  1
  C  383  1  0.06040200  0.58563200  0.16811300  1
  C  384  1  0.11480800  0.64486500  0.07150100  1
  C  385  1  0.18853500  0.63498300  0.11170200  1
  C  386  1  0.12521800  0.61225900  0.21454200  1
  C  391  1  0.87467900  0.22350800  0.13198400  1
  C  392  1  0.84959800  0.22675600  0.13050200  1
  C  393  1  0.83665700  0.22037300  0.11113400  1
  C  394  1  0.84928200  0.21361700  0.09172200  1
  C  395  1  0.87441100  0.21115200  0.09192200  1
  C  396  1  0.88710400  0.21445200  0.11261000  1
  C  399  1  0.88635300  0.23135700  0.15244300  1
  C  400  1  0.87721000  0.22660500  0.17460900  1
  C  401  1  0.88651900  0.23959000  0.19334600  1
  C  402  1  0.90745000  0.25332100  0.19050500  1
  C  403  1  0.91818600  0.25624500  0.16925700  1
  C  404  1  0.90642200  0.24666300  0.15031700  1
  C  413  1  0.94032400  0.26720200  0.16797100  1
  C  414  1  0.88586200  0.20808200  0.07126900  1
  C  415  1  0.81218100  0.21800600  0.11154200  1
  C  416  1  0.87555300  0.24040500  0.21435900  1
  C  421  1  0.70328900  0.80073200  0.13234500  1
  C  422  1  0.69995100  0.77566400  0.13079800  1
  C  423  1  0.70634500  0.76273700  0.11142100  1
  C  424  1  0.71313300  0.77539100  0.09203600  1
  C  425  1  0.71567300  0.80051100  0.09228500  1
  C  426  1  0.71239800  0.81316400  0.11299800  1
  C  429  1  0.69541500  0.81237600  0.15281500  1
  C  430  1  0.70006000  0.80313100  0.17496600  1
  C  431  1  0.68704200  0.81241500  0.19369300  1
  C  432  1  0.67345600  0.83344400  0.19090200  1
  C  433  1  0.67069100  0.84431000  0.16969000  1
  C  434  1  0.68026000  0.83256700  0.15073100  1
  C  443  1  0.66000700  0.86658600  0.16849800  1
  C  444  1  0.71879900  0.81199900  0.07165600  1
  C  445  1  0.70859800  0.73823800  0.11180200  1
  C  446  1  0.68613300  0.80138500  0.21466900  1
  C  451  1  0.29756000  0.05241700  0.13205800  1
  C  452  1  0.30081500  0.07749800  0.13056700  1
  C  453  1  0.29438900  0.09044300  0.11121400  1
  C  454  1  0.28758700  0.07781800  0.09181700  1
  C  455  1  0.28511600  0.05269000  0.09201400  1
  C  456  1  0.28849200  0.03999600  0.11268900  1
  C  459  1  0.30546400  0.04075200  0.15250200  1
  C  460  1  0.30072600  0.04989000  0.17467300  1
  C  461  1  0.31373600  0.04058600  0.19339500  1
  C  462  1  0.32745000  0.01964700  0.19055100  1
  C  463  1  0.33034000  0.00889600  0.16930200  1
  C  464  1  0.32075300  0.02067000  0.15036900  1
  C  473  1  0.34116600  0.98668600  0.16802300  1
  C  474  1  0.28199600  0.04126000  0.07135500  1
  C  475  1  0.29185800  0.11489900  0.11166400  1
  C  476  1  0.31456800  0.05156300  0.21439900  1
  C  481  1  0.63611800  0.72133500  0.63055800  1
  C  482  1  0.66119500  0.72414700  0.62841800  1
  C  483  1  0.67400200  0.71328100  0.61079400  1
  C  484  1  0.66130700  0.70132500  0.59377800  1
  C  485  1  0.63626900  0.69891300  0.59479500  1
  C  486  1  0.62352800  0.70761900  0.61391900  1
  C  489  1  0.62433500  0.73406700  0.64851400  1
  C  490  1  0.63143700  0.73303800  0.67174900  1
  C  491  1  0.62013200  0.74854200  0.68768700  1
  C  492  1  0.60019300  0.76221500  0.68087400  1
  C  493  1  0.59216700  0.76220400  0.65841400  1
  C  494  1  0.60532700  0.74940400  0.64227700  1
  C  503  1  0.57047200  0.77213200  0.65255500  1
  C  504  1  0.62563400  0.68822000  0.57634200  1
  C  505  1  0.69849200  0.71125200  0.61106000  1
  C  506  1  0.62695900  0.75001100  0.71020000  1
  C  511  1  0.36462000  0.13193200  0.63036400  1
  C  512  1  0.33953800  0.12913600  0.62824100  1
  C  513  1  0.32673200  0.14003100  0.61063400  1
  C  514  1  0.33941600  0.15197900  0.59360600  1
  C  515  1  0.36445800  0.15434700  0.59459600  1
  C  516  1  0.37720900  0.14563600  0.61371400  1
  C  519  1  0.37640300  0.11920600  0.64832700  1
  C  520  1  0.36930600  0.12025500  0.67156100  1
  C  521  1  0.38059400  0.10474400  0.68750700  1
  C  522  1  0.40051800  0.09105000  0.68069800  1
  C  523  1  0.40855200  0.09104700  0.65824100  1
  C  524  1  0.39541600  0.10387100  0.64210100  1
  C  533  1  0.43023200  0.08108100  0.65238800  1
  C  534  1  0.37508800  0.16501600  0.57612800  1
  C  535  1  0.30223900  0.14205000  0.61090500  1
  C  536  1  0.37378200  0.10330800  0.71002800  1
  C  541  1  0.20570400  0.56266500  0.63043100  1
  C  542  1  0.20275300  0.58772600  0.62829200  1
  C  543  1  0.21363700  0.60060300  0.61072000  1
  C  544  1  0.22566100  0.58797600  0.59369700  1
  C  545  1  0.22817500  0.56294900  0.59469500  1
  C  546  1  0.21950500  0.55015300  0.61380100  1
  C  549  1  0.19298600  0.55081800  0.64835900  1
  C  550  1  0.19396700  0.55790800  0.67159900  1
  C  551  1  0.17850200  0.54651700  0.68751900  1
  C  552  1  0.16491400  0.52653000  0.68068000  1
  C  553  1  0.16499700  0.51850700  0.65821900  1
  C  554  1  0.17777600  0.53171700  0.64210300  1
  C  563  1  0.15523700  0.49674500  0.65233600  1
  C  564  1  0.23893200  0.55237400  0.57624800  1
  C  565  1  0.21542500  0.62513400  0.61099500  1
  C  566  1  0.17699400  0.55331700  0.71003500  1
  C  571  1  0.79498400  0.29090400  0.63027600  1
  C  572  1  0.79775300  0.26581200  0.62819800  1
  C  573  1  0.78687400  0.25298400  0.61059700  1
  C  574  1  0.77499300  0.26565700  0.59351800  1
  C  575  1  0.77265100  0.29070400  0.59445900  1
  C  576  1  0.78134600  0.30347700  0.61357000  1
  C  579  1  0.80772100  0.30269900  0.64822600  1
  C  580  1  0.80664900  0.29564200  0.67147200  1
  C  581  1  0.82216800  0.30693400  0.68740700  1
  C  582  1  0.83587000  0.32684800  0.68058000  1
  C  583  1  0.83587000  0.33486400  0.65811600  1
  C  584  1  0.82308100  0.32168600  0.64198200  1
  C  593  1  0.84579100  0.35656400  0.65225800  1
  C  594  1  0.76202000  0.30129900  0.57595100  1
  C  595  1  0.78468000  0.22850500  0.61096600  1
  C  596  1  0.82362200  0.30013200  0.70992900  1
  C  601  1  0.36453100  0.72132300  0.38865700  1
  C  602  1  0.33945600  0.72415400  0.39078800  1
  C  603  1  0.32663400  0.71331800  0.40841900  1
  C  604  1  0.33931600  0.70137700  0.42545400  1
  C  605  1  0.36435100  0.69893800  0.42444400  1
  C  606  1  0.37710400  0.70761000  0.40531100  1
  C  609  1  0.37633000  0.73403400  0.37069700  1
  C  610  1  0.36923000  0.73300100  0.34746300  1
  C  611  1  0.38054500  0.74849200  0.33151900  1
  C  612  1  0.40049200  0.76215400  0.33833000  1
  C  613  1  0.40851600  0.76214700  0.36079000  1
  C  614  1  0.39534700  0.74935900  0.37693100  1
  C  623  1  0.43021800  0.77206200  0.36664800  1
  C  624  1  0.37496700  0.68825700  0.44291500  1
  C  625  1  0.30214400  0.71129900  0.40814400  1
  C  626  1  0.37371500  0.74996200  0.30900800  1
  C  631  1  0.63597000  0.13184600  0.38889700  1
  C  632  1  0.66106500  0.12915700  0.39102100  1
  C  633  1  0.67381800  0.14009800  0.40863700  1
  C  634  1  0.66108200  0.15198500  0.42566600  1
  C  635  1  0.63603000  0.15425300  0.42467000  1
  C  636  1  0.62332300  0.14550400  0.40554200  1
  C  639  1  0.62423500  0.11906800  0.37093700  1
  C  640  1  0.63133300  0.12012100  0.34770100  1
  C  641  1  0.62008700  0.10457200  0.33176000  1
  C  642  1  0.60018700  0.09084200  0.33857200  1
  C  643  1  0.59214900  0.09083600  0.36102800  1
  C  644  1  0.60526100  0.10368800  0.37716600  1
  C  653  1  0.57045800  0.08088600  0.36687400  1
  C  654  1  0.62536200  0.16487000  0.44314500  1
  C  655  1  0.69828900  0.14232900  0.40833500  1
  C  656  1  0.62690200  0.10314300  0.30924000  1
  C  661  1  0.79508000  0.56264400  0.38885800  1
  C  662  1  0.79798300  0.58771000  0.39100600  1
  C  663  1  0.78707900  0.60055800  0.40858400  1
  C  664  1  0.77508900  0.58789900  0.42560900  1
  C  665  1  0.77262000  0.56286900  0.42459900  1
  C  666  1  0.78130600  0.55009900  0.40548400  1
  C  669  1  0.80781600  0.55082700  0.37092200  1
  C  670  1  0.80682100  0.55792500  0.34768500  1
  C  671  1  0.82230000  0.54656300  0.33175900  1
  C  672  1  0.83591900  0.52659400  0.33858700  1
  C  673  1  0.83585100  0.51856100  0.36104700  1
  C  674  1  0.82305600  0.53174800  0.37716900  1
  C  683  1  0.84563200  0.49680200  0.36691300  1
  C  684  1  0.76188800  0.55226000  0.44304300  1
  C  685  1  0.78522000  0.62508400  0.40831000  1
  C  686  1  0.82379800  0.55338000  0.30924600  1
  C  691  1  0.20570600  0.29088200  0.38900500  1
  C  692  1  0.20290800  0.26579800  0.39110300  1
  C  693  1  0.21377600  0.25297000  0.40871300  1
  C  694  1  0.22567900  0.26564300  0.42577600  1
  C  695  1  0.22805100  0.29068600  0.42481500  1
  C  696  1  0.21936700  0.30345400  0.40569700  1
  C  699  1  0.19297400  0.30267900  0.37105300  1
  C  700  1  0.19403900  0.29561500  0.34781000  1
  C  701  1  0.17853300  0.30692200  0.33187200  1
  C  702  1  0.16484900  0.32684800  0.33869500  1
  C  703  1  0.16485300  0.33486600  0.36116000  1
  C  704  1  0.17763100  0.32168000  0.37729500  1
  C  713  1  0.15494300  0.35657300  0.36701700  1
  C  714  1  0.23869600  0.30128800  0.44331200  1
  C  715  1  0.21593300  0.22848700  0.40836200  1
  C  716  1  0.17707300  0.30011400  0.30935300  1
  C  721  1  0.37241400  0.12721200  0.39223400  1
  C  722  1  0.34723000  0.12465300  0.39306400  1
  C  723  1  0.33382500  0.13229300  0.41174500  1
  C  724  1  0.34599200  0.13950100  0.43129100  1
  C  725  1  0.37117600  0.14126300  0.43176700  1
  C  726  1  0.38439300  0.13694200  0.41155300  1
  C  729  1  0.38470200  0.11797400  0.37264600  1
  C  730  1  0.37686300  0.12191600  0.34988400  1
  C  731  1  0.38720800  0.10825600  0.33204000  1
  C  732  1  0.40778100  0.09452000  0.33654800  1
  C  733  1  0.41704000  0.09205500  0.35844200  1
  C  734  1  0.40433400  0.10244100  0.37638700  1
  C  743  1  0.43915700  0.08139700  0.36111900  1
  C  744  1  0.38224900  0.14424900  0.45261800  1
  C  745  1  0.30941700  0.13507600  0.41052500  1
  C  746  1  0.37816200  0.10759600  0.31017800  1
  C  751  1  0.62813800  0.72587700  0.39242700  1
  C  752  1  0.65332900  0.72838600  0.39322400  1
  C  753  1  0.66666667  0.72071500  0.41189400  1
  C  754  1  0.65458000  0.71354100  0.43145800  1
  C  755  1  0.62939200  0.71184800  0.43195900  1
  C  756  1  0.61615500  0.71618700  0.41176000  1
  C  759  1  0.61585400  0.73512200  0.37284200  1
  C  760  1  0.62364100  0.73111300  0.35007400  1
  C  761  1  0.61330300  0.74477500  0.33222600  1
  C  762  1  0.59279100  0.75859900  0.33674700  1
  C  763  1  0.58358900  0.76113500  0.35865500  1
  C  764  1  0.59627500  0.75071900  0.37659400  1
  C  773  1  0.56157400  0.77196400  0.36136500  1
  C  774  1  0.61833500  0.70888700  0.45282300  1
  C  775  1  0.69113500  0.71789200  0.41065100  1
  C  776  1  0.62232300  0.74538100  0.31035300  1
  C  781  1  0.79962800  0.29863200  0.39201000  1
  C  782  1  0.80227900  0.27345500  0.39287300  1
  C  783  1  0.79466600  0.26004500  0.41156300  1
  C  784  1  0.78748800  0.27221300  0.43111900  1
  C  785  1  0.78567200  0.29739400  0.43157000  1
  C  786  1  0.78990700  0.31060200  0.41133700  1
  C  789  1  0.80880800  0.31090700  0.37238300  1
  C  790  1  0.80486900  0.30297400  0.34964800  1
  C  791  1  0.81848900  0.31328900  0.33176200  1
  C  792  1  0.83212900  0.33394300  0.33618400  1
  C  793  1  0.83452700  0.34333600  0.35803400  1
  C  794  1  0.82420300  0.33066800  0.37603500  1
  C  803  1  0.84499900  0.36555100  0.36054900  1
  C  804  1  0.78268900  0.30848100  0.45241700  1
  C  805  1  0.79203500  0.23560500  0.41037000  1
  C  806  1  0.81920100  0.30414200  0.30993800  1
  C  811  1  0.20097300  0.55459700  0.39238100  1
  C  812  1  0.19840800  0.57978200  0.39318400  1
  C  813  1  0.20608900  0.59321000  0.41183500  1
  C  814  1  0.21332100  0.58107400  0.43138700  1
  C  815  1  0.21507000  0.55589000  0.43189700  1
  C  816  1  0.21068600  0.54264100  0.41171700  1
  C  819  1  0.19169600  0.54230000  0.37281600  1
  C  820  1  0.19568000  0.55008100  0.35004400  1
  C  821  1  0.18201300  0.53972400  0.33220900  1
  C  822  1  0.16822500  0.51919400  0.33675000  1
  C  823  1  0.16571500  0.50999100  0.35866000  1
  C  824  1  0.17613300  0.52269800  0.37658600  1
  C  833  1  0.15503400  0.48788900  0.36135500  1
  C  834  1  0.21807200  0.54486700  0.45277300  1
  C  835  1  0.20892900  0.61760800  0.41056200  1
  C  836  1  0.18137400  0.54872900  0.31032900  1
  C  841  1  0.62815800  0.12714800  0.62701100  1
  C  842  1  0.65334900  0.12465600  0.62617000  1
  C  843  1  0.66666667  0.13235000  0.60748800  1
  C  844  1  0.65452500  0.13956300  0.58795900  1
  C  845  1  0.62933700  0.14126000  0.58749900  1
  C  846  1  0.61614300  0.13687600  0.60771200  1
  C  849  1  0.61589900  0.11783300  0.64657900  1
  C  850  1  0.62369600  0.12177000  0.66935300  1
  C  851  1  0.61336000  0.10806400  0.68717100  1
  C  852  1  0.59283900  0.09426300  0.68262200  1
  C  853  1  0.58363000  0.09179000  0.66071200  1
  C  854  1  0.59633000  0.10223100  0.64279400  1
  C  863  1  0.56158600  0.08101900  0.65797600  1
  C  864  1  0.61824300  0.14423300  0.56665600  1
  C  865  1  0.69112100  0.13520400  0.60869700  1
  C  866  1  0.62236700  0.10742000  0.70904900  1
  C  871  1  0.37253000  0.72576900  0.62682900  1
  C  872  1  0.34734200  0.72831400  0.62602600  1
  C  873  1  0.33393100  0.72065700  0.60735800  1
  C  874  1  0.34607600  0.71345700  0.58779700  1
  C  875  1  0.37126000  0.71172200  0.58730500  1
  C  876  1  0.38450000  0.71605300  0.60750200  1
  C  879  1  0.38482700  0.73502000  0.64640200  1
  C  880  1  0.37704000  0.73104000  0.66917300  1
  C  881  1  0.38739200  0.74470700  0.68701000  1
  C  882  1  0.40791100  0.75851700  0.68247300  1
  C  883  1  0.41710700  0.76102800  0.66056200  1
  C  884  1  0.40441600  0.75059900  0.64263300  1
  C  893  1  0.43912300  0.77185500  0.65783600  1
  C  894  1  0.38231300  0.70874400  0.56644000  1
  C  895  1  0.30951600  0.71793900  0.60857700  1
  C  896  1  0.37837300  0.74534400  0.70888200  1
  C  901  1  0.20124400  0.29861200  0.62724300  1
  C  902  1  0.19857700  0.27343900  0.62635000  1
  C  903  1  0.20619600  0.26004800  0.60764800  1
  C  904  1  0.21340200  0.27223800  0.58811400  1
  C  905  1  0.21523600  0.29741900  0.58769400  1
  C  906  1  0.21099000  0.31060200  0.60794000  1
  C  909  1  0.19204100  0.31086800  0.64687000  1
  C  910  1  0.19594700  0.30291100  0.66960400  1
  C  911  1  0.18230600  0.31321400  0.68748200  1
  C  912  1  0.16867100  0.33387400  0.68305700  1
  C  913  1  0.16629500  0.34328000  0.66120900  1
  C  914  1  0.17664700  0.33062900  0.64321200  1
  C  923  1  0.15579800  0.36548300  0.65869300  1
  C  924  1  0.21824100  0.30853400  0.56686400  1
  C  925  1  0.20879500  0.23560500  0.60881000  1
  C  926  1  0.18156300  0.30405300  0.70930000  1
  C  931  1  0.79969900  0.55456800  0.62692500  1
  C  932  1  0.80225500  0.57975400  0.62610600  1
  C  933  1  0.79457600  0.59316200  0.60744300  1
  C  934  1  0.78735400  0.58100800  0.58789500  1
  C  935  1  0.78561300  0.55582200  0.58740600  1
  C  936  1  0.78998700  0.54259400  0.60759900  1
  C  939  1  0.80897400  0.54228900  0.64650000  1
  C  940  1  0.80498700  0.55008700  0.66926700  1
  C  941  1  0.81865200  0.53974300  0.68711100  1
  C  942  1  0.83243800  0.51920700  0.68258800  1
  C  943  1  0.83494500  0.50998400  0.66068300  1
  C  944  1  0.82453500  0.52268200  0.64274700  1
  C  953  1  0.84560900  0.48787000  0.65800300  1
  C  954  1  0.78261100  0.54478000  0.56654000  1
  C  955  1  0.79170200  0.61755400  0.60869700  1
  C  956  1  0.81929400  0.54877200  0.70898000  1
  C  961  1  0.01505400  0.26251700  0.18119200  1
  C  962  1  0.02971800  0.26155800  0.16156400  1
  C  963  1  0.01834800  0.25997500  0.14023700  1
  C  965  1  0.98021200  0.26131700  0.15729900  1
  C  967  1  0.02381900  0.26284000  0.20544400  1
  C  968  1  0.00270800  0.26427100  0.22288500  1
  C  972  1  0.03979200  0.28531400  0.20959300  1
  C  976  1  0.03795600  0.23946900  0.21105000  1
  C  984  1  0.98564700  0.59051800  0.18116800  1
  C  985  1  0.97103000  0.59154400  0.16151200  1
  C  986  1  0.98245800  0.59309400  0.14021100  1
  C  988  1  0.02055000  0.59160600  0.15734700  1
  C  990  1  0.97682900  0.59021700  0.20540400  1
  C  991  1  0.99789600  0.58870200  0.22288700  1
  C  995  1  0.96076700  0.56780000  0.20951200  1
  C  999  1  0.96276600  0.61363800  0.21099200  1
  C  1007  1  0.66444000  0.94136600  0.18120300  1
  C  1008  1  0.66545700  0.95593900  0.16151600  1
  C  1009  1  0.66706600  0.94445400  0.14024700  1
  C  1011  1  0.66564800  0.90640100  0.15746500  1
  C  1013  1  0.66406900  0.95023800  0.20542300  1
  C  1014  1  0.66252900  0.92920900  0.22294400  1
  C  1018  1  0.64162000  0.96628100  0.20944500  1
  C  1022  1  0.68746000  0.96433600  0.21103900  1
  C  1030  1  0.33640700  0.91194000  0.18098600  1
  C  1031  1  0.33547200  0.89732600  0.16132100  1
  C  1032  1  0.33393600  0.90876800  0.14002600  1
  C  1034  1  0.33532400  0.94685500  0.15718000  1
  C  1036  1  0.33668000  0.90311500  0.20522400  1
  C  1037  1  0.33813900  0.92418100  0.22271100  1
  C  1041  1  0.35911300  0.88708400  0.20936200  1
  C  1045  1  0.31326900  0.88902100  0.21077500  1
  C  1053  1  0.98567400  0.26267100  0.83808200  1
  C  1054  1  0.97099900  0.26172200  0.85770400  1
  C  1055  1  0.98238500  0.26010000  0.87902400  1
  C  1057  1  0.02051800  0.26148800  0.86196900  1
  C  1059  1  0.97690600  0.26299700  0.81382800  1
  C  1060  1  0.99801600  0.26447800  0.79638900  1
  C  1064  1  0.96089500  0.28544800  0.80969400  1
  C  1068  1  0.96280900  0.23960600  0.80820800  1
  C  1076  1  0.01503000  0.59042500  0.83809100  1
  C  1077  1  0.02965400  0.59138500  0.85774500  1
  C  1078  1  0.01821500  0.59303000  0.87903700  1
  C  1080  1  0.98011500  0.59167100  0.86189200  1
  C  1082  1  0.02385500  0.59007800  0.81385500  1
  C  1083  1  0.00278900  0.58858300  0.79637000  1
  C  1087  1  0.03987600  0.56762300  0.80977000  1
  C  1091  1  0.03796300  0.61346500  0.80824800  1
  C  1099  1  0.33641000  0.94139500  0.83797400  1
  C  1100  1  0.33536700  0.95597300  0.85765500  1
  C  1101  1  0.33369300  0.94448300  0.87891900  1
  C  1103  1  0.33514200  0.90642000  0.86170100  1
  C  1105  1  0.33683000  0.95027300  0.81375900  1
  C  1106  1  0.33841400  0.92925000  0.79623500  1
  C  1110  1  0.35927700  0.96633300  0.80977900  1
  C  1114  1  0.31344200  0.96436300  0.80810500  1
  C  1122  1  0.66414000  0.91194000  0.83829800  1
  C  1123  1  0.66517300  0.89730800  0.85794200  1
  C  1124  1  0.66666667  0.90872000  0.87924800  1
  C  1126  1  0.66519600  0.94684500  0.86214400  1
  C  1128  1  0.66385800  0.90314300  0.81405400  1
  C  1129  1  0.66233700  0.92422600  0.79659100  1
  C  1133  1  0.64145200  0.88707000  0.80992500  1
  C  1137  1  0.68729000  0.88910000  0.80846500  1
  C  1145  1  0.51257900  0.75861500  0.67603400  1
  C  1146  1  0.52818900  0.76426600  0.65780100  1
  C  1147  1  0.51788600  0.76839200  0.63626700  1
  C  1149  1  0.47903900  0.76313500  0.65098700  1
  C  1151  1  0.51994200  0.75256900  0.70002700  1
  C  1152  1  0.49794700  0.74656000  0.71553900  1
  C  1156  1  0.53269700  0.77453600  0.71086800  1
  C  1160  1  0.53662100  0.73013700  0.70061400  1
  C  1168  1  0.48811400  0.09457700  0.67595500  1
  C  1169  1  0.47253800  0.08884200  0.65771700  1
  C  1170  1  0.48289100  0.08455700  0.63623300  1
  C  1172  1  0.52170900  0.08982700  0.65101400  1
  C  1174  1  0.48070700  0.10077900  0.69990000  1
  C  1175  1  0.50267100  0.10686800  0.71541900  1
  C  1179  1  0.46791600  0.07888600  0.71083600  1
  C  1183  1  0.46404100  0.12322600  0.70033400  1
  C  1191  1  0.16846000  0.43893800  0.67604600  1
  C  1192  1  0.16297400  0.45449200  0.65772500  1
  C  1193  1  0.15906100  0.44411800  0.63619000  1
  C  1195  1  0.16409200  0.40530500  0.65106800  1
  C  1197  1  0.17431500  0.44635700  0.70006400  1
  C  1198  1  0.18018300  0.42440200  0.71567200  1
  C  1202  1  0.15225800  0.45914400  0.71070300  1
  C  1206  1  0.19674800  0.46303000  0.70078700  1
  C  1214  1  0.83243300  0.41444000  0.67583100  1
  C  1215  1  0.83807900  0.39885400  0.65757700  1
  C  1216  1  0.84217300  0.40919400  0.63605500  1
  C  1218  1  0.83700000  0.44802500  0.65083900  1
  C  1220  1  0.82638300  0.40705700  0.69981800  1
  C  1221  1  0.82039800  0.42903700  0.71535500  1
  C  1225  1  0.84834400  0.39427300  0.71063700  1
  C  1229  1  0.80393600  0.39039600  0.70039600  1
  C  1237  1  0.48813500  0.75869700  0.34316600  1
  C  1238  1  0.47250300  0.76432300  0.36139200  1
  C  1239  1  0.48279600  0.76840000  0.38293800  1
  C  1241  1  0.52165900  0.76324000  0.36822800  1
  C  1243  1  0.48079100  0.75266300  0.31916600  1
  C  1244  1  0.50280100  0.74671700  0.30365400  1
  C  1248  1  0.46799500  0.77461700  0.30834400  1
  C  1252  1  0.46415700  0.73019800  0.31855100  1
  C  1260  1  0.51261500  0.09448600  0.34328900  1
  C  1261  1  0.52817100  0.08872600  0.36153500  1
  C  1262  1  0.51780100  0.08459800  0.38303900  1
  C  1264  1  0.47899800  0.09003700  0.36826200  1
  C  1266  1  0.52004100  0.10055700  0.31931900  1
  C  1267  1  0.49809700  0.10664800  0.30377500  1
  C  1271  1  0.53276500  0.07857700  0.30846800  1
  C  1275  1  0.53677700  0.12294900  0.31880000  1
  C  1283  1  0.83230300  0.43900900  0.34318500  1
  C  1284  1  0.83785600  0.45455100  0.36149500  1
  C  1285  1  0.84180700  0.44415800  0.38301900  1
  C  1287  1  0.83661400  0.40536000  0.36814900  1
  C  1289  1  0.82642800  0.44645200  0.31917600  1
  C  1290  1  0.82050700  0.42451400  0.30356500  1
  C  1294  1  0.84849000  0.45921400  0.30851600  1
  C  1298  1  0.80402000  0.46315800  0.31849000  1
  C  1306  1  0.16818000  0.41447100  0.34344400  1
  C  1307  1  0.16267000  0.39885800  0.36171200  1
  C  1308  1  0.15862200  0.40916700  0.38325500  1
  C  1310  1  0.16362100  0.44803800  0.36847700  1
  C  1312  1  0.17416100  0.40711700  0.31943600  1
  C  1313  1  0.18004500  0.42912200  0.30389700  1
  C  1317  1  0.15219000  0.39429300  0.30867700  1
  C  1321  1  0.19664000  0.39050300  0.31877800  1
  C  1329  1  0.13312900  0.29715500  0.26707800  1
  C  1330  1  0.15152700  0.28625300  0.28013400  1
  C  1331  1  0.16254200  0.26544100  0.27133800  1
  C  1333  1  0.13932000  0.26768000  0.23807700  1
  C  1335  1  0.11895900  0.31921300  0.27350800  1
  C  1336  1  0.09896400  0.32534300  0.25578600  1
  C  1340  1  0.13604700  0.34120600  0.27443000  1
  C  1344  1  0.10593100  0.31571300  0.29663800  1
  C  1352  1  0.86775300  0.55633400  0.26699200  1
  C  1353  1  0.84936200  0.56724500  0.28005400  1
  C  1354  1  0.83834500  0.58805300  0.27125100  1
  C  1356  1  0.86154000  0.58578500  0.23797600  1
  C  1358  1  0.88192100  0.53427700  0.27342700  1
  C  1359  1  0.90192500  0.52815100  0.25571300  1
  C  1363  1  0.86483300  0.51228500  0.27434200  1
  C  1367  1  0.89493500  0.53777200  0.29656500  1
  C  1375  1  0.62983700  0.05929200  0.26688000  1
  C  1376  1  0.64074400  0.07766100  0.27996900  1
  C  1377  1  0.66155900  0.08868400  0.27119200  1
  C  1379  1  0.65930900  0.06553300  0.23788600  1
  C  1381  1  0.60777800  0.04511200  0.27328700  1
  C  1382  1  0.60162500  0.02517000  0.25552100  1
  C  1386  1  0.58578900  0.06220400  0.27427000  1
  C  1390  1  0.61129200  0.03201700  0.29638200  1
  C  1398  1  0.37084600  0.79384600  0.26668900  1
  C  1399  1  0.35989100  0.77550700  0.27978200  1
  C  1400  1  0.33902600  0.76456100  0.27102600  1
  C  1402  1  0.34130700  0.78772500  0.23773100  1
  C  1404  1  0.39295100  0.80795700  0.27308500  1
  C  1405  1  0.39913800  0.82789600  0.25532500  1
  C  1409  1  0.41489200  0.79080200  0.27403000  1
  C  1413  1  0.38950300  0.82104400  0.29619300  1
  C  1421  1  0.86754600  0.29718800  0.75222200  1
  C  1422  1  0.84915000  0.28628700  0.73916100  1
  C  1423  1  0.83817700  0.26544100  0.74793400  1
  C  1425  1  0.86139900  0.26767500  0.78119500  1
  C  1427  1  0.88170500  0.31925400  0.74580000  1
  C  1428  1  0.90168400  0.32540200  0.76353400  1
  C  1432  1  0.86460500  0.34123600  0.74486400  1
  C  1436  1  0.89475200  0.31575900  0.72267800  1
  C  1444  1  0.13301800  0.55622500  0.75228000  1
  C  1445  1  0.15142700  0.56713400  0.73924100  1
  C  1446  1  0.16240900  0.58795800  0.74804900  1
  C  1448  1  0.13920000  0.58566400  0.78131500  1
  C  1450  1  0.11884300  0.53418100  0.74581700  1
  C  1451  1  0.09882100  0.52805000  0.76350800  1
  C  1455  1  0.13592200  0.51218100  0.74489800  1
  C  1459  1  0.10585100  0.53770100  0.72267000  1
  C  1467  1  0.37091900  0.05944600  0.75238900  1
  C  1468  1  0.35999400  0.07781000  0.73930500  1
  C  1469  1  0.33914700  0.08878300  0.74807200  1
  C  1471  1  0.34143000  0.06563700  0.78137900  1
  C  1473  1  0.39298700  0.04528700  0.74597200  1
  C  1474  1  0.39916100  0.02534300  0.76373100  1
  C  1478  1  0.41496000  0.06239900  0.74499100  1
  C  1482  1  0.38947800  0.03219700  0.72287400  1
  C  1490  1  0.62982600  0.79388700  0.75252600  1
  C  1491  1  0.64078500  0.77555700  0.73942600  1
  C  1492  1  0.66164600  0.76460200  0.74818200  1
  C  1494  1  0.65936300  0.78775500  0.78148300  1
  C  1496  1  0.60770100  0.80797800  0.74614400  1
  C  1497  1  0.60150200  0.82790200  0.76391500  1
  C  1501  1  0.58577800  0.79080200  0.74519500  1
  C  1505  1  0.61113400  0.82108100  0.72304200  1
  C  1513  1  0.86130200  0.54977300  0.75289200  1
  C  1514  1  0.84538600  0.56209100  0.73816800  1
  C  1515  1  0.83840900  0.58561100  0.74404800  1
  C  1517  1  0.86122800  0.58391400  0.77754600  1
  C  1519  1  0.87137100  0.52488500  0.74939900  1
  C  1520  1  0.88851800  0.51698200  0.76905300  1
  C  1524  1  0.85061300  0.50623400  0.74885400  1
  C  1528  1  0.88656300  0.52381600  0.72726500  1
  C  1536  1  0.13938300  0.30307700  0.75308900  1
  C  1537  1  0.15532800  0.29075900  0.73839100  1
  C  1538  1  0.16225300  0.26722000  0.74425600  1
  C  1540  1  0.13934900  0.26890600  0.77770200  1
  C  1542  1  0.12937500  0.32799200  0.74961600  1
  C  1543  1  0.11213100  0.33586300  0.76920600  1
  C  1547  1  0.15017400  0.34660400  0.74923700  1
  C  1551  1  0.11430800  0.32916600  0.72741200  1
  C  1559  1  0.37733100  0.78734900  0.75279600  1
  C  1560  1  0.36503400  0.77140900  0.73807600  1
  C  1561  1  0.34152000  0.76441600  0.74395400  1
  C  1563  1  0.34318800  0.78724500  0.77744600  1
  C  1565  1  0.40220400  0.79744900  0.74930100  1
  C  1566  1  0.41009300  0.81459700  0.76895800  1
  C  1570  1  0.42088600  0.77671600  0.74874300  1
  C  1574  1  0.40324600  0.81265200  0.72717200  1
  C  1582  1  0.62335700  0.06548100  0.75299600  1
  C  1583  1  0.63568800  0.08137100  0.73825400  1
  C  1584  1  0.65920800  0.08834500  0.74413600  1
  C  1586  1  0.65747900  0.06560100  0.77767500  1
  C  1588  1  0.59847300  0.05540400  0.74950300  1
  C  1589  1  0.59055200  0.03830100  0.76918400  1
  C  1593  1  0.57981800  0.07616000  0.74890300  1
  C  1597  1  0.59742600  0.04016400  0.72740000  1
  C  1605  1  0.13938400  0.54966000  0.26639700  1
  C  1606  1  0.15530400  0.56199100  0.28111100  1
  C  1607  1  0.16221000  0.58553600  0.27524100  1
  C  1609  1  0.13939000  0.58380500  0.24174700  1
  C  1611  1  0.12934600  0.52476400  0.26989700  1
  C  1612  1  0.11222600  0.51682300  0.25023600  1
  C  1616  1  0.15012600  0.50613600  0.27047000  1
  C  1620  1  0.11413700  0.52369300  0.29201900  1
  C  1628  1  0.86133800  0.30310400  0.26611900  1
  C  1629  1  0.84537900  0.29081800  0.28082700  1
  C  1630  1  0.83848700  0.26725600  0.27500500  1
  C  1632  1  0.86139300  0.26889000  0.24156000  1
  C  1634  1  0.87134600  0.32802400  0.26956200  1
  C  1635  1  0.88856800  0.33587900  0.24995000  1
  C  1639  1  0.85054700  0.34663400  0.26994800  1
  C  1643  1  0.88643500  0.32921800  0.29175300  1
  C  1651  1  0.62340000  0.78734300  0.26639600  1
  C  1652  1  0.63567500  0.77140400  0.28113200  1
  C  1653  1  0.65921100  0.76444300  0.27529800  1
  C  1655  1  0.65758800  0.78726500  0.24179900  1
  C  1657  1  0.59851900  0.79743700  0.26986200  1
  C  1658  1  0.59064000  0.81455400  0.25017600  1
  C  1662  1  0.57984700  0.77669700  0.27043100  1
  C  1666  1  0.59745600  0.81266800  0.29197000  1
  C  1674  1  0.37717000  0.06559800  0.26626400  1
  C  1675  1  0.36484700  0.08149500  0.28100100  1
  C  1676  1  0.34132200  0.08846600  0.27513100  1
  C  1678  1  0.34303100  0.06569200  0.24160700  1
  C  1680  1  0.40206300  0.05553900  0.26974500  1
  C  1681  1  0.40996300  0.03839500  0.25008800  1
  C  1685  1  0.42070600  0.07630700  0.27028000  1
  C  1689  1  0.40315200  0.04034900  0.29187900  1
  C  1697  1  0.24403200  0.14649400  0.13982200  1
  C  1698  1  0.26051200  0.14318400  0.12177400  1
  C  1699  1  0.25962600  0.15937800  0.10341200  1
  C  1701  1  0.22685600  0.17969900  0.11979300  1
  C  1703  1  0.24174900  0.13075200  0.16056100  1
  C  1704  1  0.22352900  0.14111500  0.17821500  1
  C  1708  1  0.26630600  0.12885100  0.17302100  1
  C  1712  1  0.23240100  0.10544500  0.15375700  1
  C  1720  1  0.75653600  0.70662800  0.13990200  1
  C  1721  1  0.74003700  0.70996600  0.12187000  1
  C  1722  1  0.74100300  0.69386100  0.10343900  1
  C  1724  1  0.77385100  0.67359700  0.11972500  1
  C  1726  1  0.75880200  0.72229200  0.16069600  1
  C  1727  1  0.77706600  0.71190700  0.17829900  1
  C  1731  1  0.73426000  0.72410200  0.17320000  1
  C  1735  1  0.76809800  0.74763600  0.15395000  1
  C  1743  1  0.78039700  0.17030100  0.13970400  1
  C  1744  1  0.78375200  0.18679400  0.12166600  1
  C  1745  1  0.76756600  0.18591600  0.10329800  1
  C  1747  1  0.74711900  0.15324200  0.11969200  1
  C  1749  1  0.79612400  0.16795300  0.16045000  1
  C  1750  1  0.78570400  0.14974900  0.17808800  1
  C  1754  1  0.79810100  0.19249200  0.17293500  1
  C  1758  1  0.82140300  0.15852800  0.15364400  1
  C  1766  1  0.22008300  0.68290400  0.13978600  1
  C  1767  1  0.21683400  0.66634200  0.12178600  1
  C  1768  1  0.23298600  0.66730500  0.10339500  1
  C  1770  1  0.25319300  0.70018100  0.11969500  1
  C  1772  1  0.20437300  0.68516000  0.16055200  1
  C  1773  1  0.21470700  0.70344200  0.17816400  1
  C  1777  1  0.20257100  0.66061900  0.17305600  1
  C  1781  1  0.17902500  0.69442100  0.15377400  1
  C  1789  1  0.75651700  0.14648700  0.87932400  1
  C  1790  1  0.74001200  0.14321400  0.89736300  1
  C  1791  1  0.74102100  0.15936900  0.91575400  1
  C  1793  1  0.77383000  0.17960300  0.89937100  1
  C  1795  1  0.75873400  0.13076000  0.85856900  1
  C  1796  1  0.77692200  0.14111900  0.84088400  1
  C  1800  1  0.73415000  0.12888000  0.84615000  1
  C  1804  1  0.76808000  0.10544400  0.86534600  1
  C  1812  1  0.24411600  0.70679800  0.87931200  1
  C  1813  1  0.26070100  0.71003000  0.89729500  1
  C  1814  1  0.25965600  0.69393000  0.91572900  1
  C  1816  1  0.22659400  0.67391800  0.89954100  1
  C  1818  1  0.24191500  0.72245900  0.85851000  1
  C  1819  1  0.22362000  0.71213200  0.84090700  1
  C  1823  1  0.26646300  0.72418600  0.84600700  1
  C  1827  1  0.23270200  0.74783100  0.86525600  1
  C  1835  1  0.22022200  0.17021400  0.87953100  1
  C  1836  1  0.21687500  0.18671900  0.89755700  1
  C  1837  1  0.23306100  0.18582900  0.91592800  1
  C  1839  1  0.25340900  0.15305600  0.89959800  1
  C  1841  1  0.20451800  0.16792300  0.85876800  1
  C  1842  1  0.21494100  0.14974000  0.84111300  1
  C  1846  1  0.20257700  0.19248700  0.84632200  1
  C  1850  1  0.17922100  0.15851600  0.86553600  1
  C  1858  1  0.78038800  0.68277700  0.87941100  1
  C  1859  1  0.78374700  0.66632700  0.89747400  1
  C  1860  1  0.76763400  0.66729600  0.91589400  1
  C  1862  1  0.74728700  0.70008500  0.89954100  1
  C  1864  1  0.79606700  0.68503400  0.85862800  1
  C  1865  1  0.78564500  0.70322300  0.84097800  1
  C  1869  1  0.79794900  0.66046200  0.84619100  1
  C  1873  1  0.82138500  0.69440800  0.86536400  1
  C  1881  1  0.74492500  0.64726400  0.64024900  1
  C  1882  1  0.76073400  0.64510000  0.62151500  1
  C  1883  1  0.75908000  0.66234200  0.60407600  1
  C  1885  1  0.72685900  0.68148900  0.62257700  1
  C  1887  1  0.74364700  0.63042900  0.66029200  1
  C  1888  1  0.72587400  0.63951800  0.67895000  1
  C  1892  1  0.76867100  0.62840900  0.67187800  1
  C  1896  1  0.73454200  0.60529300  0.65266600  1
  C  1904  1  0.25566700  0.20583800  0.64029600  1
  C  1905  1  0.23982900  0.20803400  0.62158600  1
  C  1906  1  0.24153800  0.19086300  0.60408300  1
  C  1908  1  0.27383700  0.17175200  0.62248100  1
  C  1910  1  0.25695300  0.22260100  0.66039300  1
  C  1911  1  0.27477500  0.21348200  0.67899700  1
  C  1915  1  0.23195300  0.22455100  0.67203700  1
  C  1919  1  0.26601900  0.24776600  0.65280900  1
  C  1927  1  0.27961700  0.67130600  0.64016000  1
  C  1928  1  0.28182700  0.68711600  0.62142600  1
  C  1929  1  0.26459400  0.68546700  0.60398000  1
  C  1931  1  0.24531100  0.65335300  0.62251500  1
  C  1933  1  0.29644300  0.66997000  0.66021000  1
  C  1934  1  0.28729600  0.65222000  0.67886200  1
  C  1938  1  0.29854600  0.69498100  0.67180600  1
  C  1942  1  0.32155200  0.66078300  0.65258700  1
  C  1950  1  0.72080200  0.18200800  0.64022700  1
  C  1951  1  0.71870200  0.16612200  0.62153700  1
  C  1952  1  0.73592800  0.16782800  0.60408800  1
  C  1954  1  0.75497500  0.20014200  0.62252700  1
  C  1956  1  0.70398100  0.18326400  0.66028400  1
  C  1957  1  0.71304000  0.20108500  0.67891300  1
  C  1961  1  0.70203500  0.15825200  0.67190500  1
  C  1965  1  0.67881300  0.19229400  0.65266900  1
  C  1973  1  0.25567800  0.64733000  0.37896900  1
  C  1974  1  0.23983800  0.64517900  0.39768600  1
  C  1975  1  0.24155800  0.66239900  0.41514400  1
  C  1977  1  0.27376900  0.68153900  0.39663800  1
  C  1979  1  0.25694100  0.63050000  0.35892100  1
  C  1980  1  0.27469600  0.63959700  0.34025300  1
  C  1984  1  0.23191000  0.62847000  0.34734800  1
  C  1988  1  0.26606000  0.60536800  0.36654000  1
  C  1996  1  0.74501600  0.20602700  0.37890700  1
  C  1997  1  0.76094800  0.20810700  0.39756100  1
  C  1998  1  0.75916800  0.19093500  0.41505800  1
  C  2000  1  0.72663900  0.17208400  0.39676700  1
  C  2002  1  0.74378300  0.22280100  0.35881500  1
  C  2003  1  0.72591800  0.21375300  0.34021600  1
  C  2007  1  0.76878100  0.22467100  0.34715400  1
  C  2011  1  0.73480800  0.24798900  0.36642100  1
  C  2019  1  0.72098600  0.67122800  0.37906900  1
  C  2020  1  0.71876500  0.68703900  0.39779700  1
  C  2021  1  0.73598500  0.68537100  0.41525700  1
  C  2023  1  0.75519800  0.65317800  0.39678100  1
  C  2025  1  0.70419700  0.66995000  0.35899200  1
  C  2026  1  0.71336100  0.65223000  0.34032400  1
  C  2030  1  0.70213500  0.69498800  0.34743800  1
  C  2034  1  0.67906600  0.66077600  0.36656200  1
  C  2042  1  0.27967000  0.18186700  0.37898600  1
  C  2043  1  0.28186100  0.16606700  0.39772300  1
  C  2044  1  0.26468000  0.16778800  0.41520800  1
  C  2046  1  0.24552900  0.20005800  0.39674600  1
  C  2048  1  0.29645900  0.18313000  0.35890700  1
  C  2049  1  0.28733200  0.20089600  0.34026300  1
  C  2053  1  0.29845000  0.15810200  0.34732500  1
  C  2057  1  0.32161100  0.19223300  0.36648800  1
  C  2065  1  0.10498200  0.21127200  0.01915900  1
  C  2066  1  0.11828900  0.19437400  0.03196900  1
  C  2067  1  0.13090200  0.17632700  0.02021600  1
  C  2069  1  0.11864500  0.19213200  0.98504500  1
  C  2071  1  0.09078600  0.23193500  0.02891000  1
  C  2072  1  0.07628900  0.24561800  0.01024800  1
  C  2076  1  0.10776200  0.25056700  0.04029100  1
  C  2080  1  0.07213900  0.22253500  0.04645400  1
  C  2088  1  0.89567900  0.64193500  0.01894400  1
  C  2089  1  0.88237800  0.65884200  0.03174700  1
  C  2090  1  0.86973900  0.67686500  0.01998300  1
  C  2092  1  0.88196200  0.66102200  0.98482200  1
  C  2094  1  0.90989500  0.62129100  0.02870500  1
  C  2095  1  0.92437600  0.60759100  0.01004500  1
  C  2099  1  0.89294100  0.60266900  0.04012600  1
  C  2103  1  0.92855900  0.63072300  0.04621700  1
  C  2111  1  0.71571600  0.03156600  0.01906500  1
  C  2112  1  0.73268000  0.04484200  0.03183600  1
  C  2113  1  0.75071400  0.05739900  0.02001500  1
  C  2115  1  0.73479700  0.04515500  0.98489300  1
  C  2117  1  0.69504500  0.01740900  0.02886000  1
  C  2118  1  0.68130000  0.00292400  0.01023000  1
  C  2122  1  0.67646200  0.03442100  0.04026300  1
  C  2126  1  0.70444500  0.99875400  0.04639500  1
  C  2134  1  0.28515000  0.82181100  0.01873100  1
  C  2135  1  0.26814200  0.80863800  0.03154400  1
  C  2136  1  0.25004200  0.79612800  0.01976800  1
  C  2138  1  0.26596400  0.80823900  0.98460500  1
  C  2140  1  0.30587800  0.83591300  0.02848400  1
  C  2141  1  0.31965700  0.85031000  0.00981600  1
  C  2145  1  0.32441300  0.81886000  0.03990500  1
  C  2149  1  0.29656100  0.85463900  0.04599200  1
  C  2157  1  0.89574700  0.21120400  0.00016100  1
  C  2158  1  0.88250800  0.19428300  0.98730900  1
  C  2159  1  0.86989900  0.17623500  0.99907000  1
  C  2161  1  0.88211000  0.19201000  0.03425300  1
  C  2163  1  0.90991300  0.23189900  0.99043100  1
  C  2164  1  0.92439500  0.24557700  0.00910900  1
  C  2168  1  0.89291200  0.25052600  0.97907700  1
  C  2172  1  0.92857000  0.22255200  0.97287400  1
  C  2180  1  0.10478300  0.64183200  0.00038800  1
  C  2181  1  0.11802600  0.65876000  0.98755000  1
  C  2182  1  0.13066500  0.67677800  0.99932500  1
  C  2184  1  0.11843600  0.66097400  0.03451100  1
  C  2186  1  0.09059600  0.62115900  0.99064200  1
  C  2187  1  0.07612000  0.60746600  0.00931200  1
  C  2191  1  0.10757800  0.60254200  0.97925100  1
  C  2195  1  0.07193100  0.63054500  0.97310800  1
  C  2203  1  0.28490800  0.03131400  0.00022300  1
  C  2204  1  0.26805700  0.04468800  0.98741700  1
  C  2205  1  0.25012100  0.05740600  0.99922400  1
  C  2207  1  0.26585900  0.04500400  0.03437900  1
  C  2209  1  0.30549500  0.01702500  0.99044800  1
  C  2210  1  0.31912000  0.00244400  0.00908900  1
  C  2214  1  0.32420100  0.03392000  0.97906900  1
  C  2218  1  0.29599300  0.99844000  0.97289400  1
  C  2226  1  0.71563700  0.82187700  0.00053300  1
  C  2227  1  0.73254400  0.80861200  0.98769800  1
  C  2228  1  0.75063500  0.79604400  0.99942900  1
  C  2230  1  0.73486800  0.80826400  0.03464300  1
  C  2232  1  0.69490800  0.83600200  0.99081700  1
  C  2233  1  0.68122900  0.85047000  0.00950200  1
  C  2237  1  0.67630100  0.81896400  0.97948500  1
  C  2241  1  0.70420900  0.85466600  0.97324300  1
  C  2249  1  0.60663100  0.71229100  0.52350000  1
  C  2250  1  0.62003500  0.69593200  0.53682500  1
  C  2251  1  0.63363500  0.67823200  0.52559000  1
  C  2253  1  0.62200500  0.69331000  0.48994800  1
  C  2255  1  0.59145300  0.73256000  0.53264800  1
  C  2256  1  0.57718500  0.74563300  0.51344600  1
  C  2260  1  0.60741900  0.75181100  0.54440600  1
  C  2264  1  0.57251800  0.72269100  0.54967600  1
  C  2272  1  0.39403700  0.14091100  0.52328700  1
  C  2273  1  0.38063600  0.15727100  0.53661100  1
  C  2274  1  0.36701600  0.17495100  0.52537200  1
  C  2276  1  0.37861000  0.15985500  0.48973600  1
  C  2278  1  0.40923500  0.12065800  0.53243400  1
  C  2279  1  0.42349000  0.10757700  0.51322800  1
  C  2283  1  0.39329000  0.10140700  0.54422100  1
  C  2287  1  0.42818000  0.13055000  0.54943800  1
  C  2295  1  0.21480400  0.53326600  0.52345700  1
  C  2296  1  0.23121800  0.54665100  0.53674800  1
  C  2297  1  0.24891800  0.56018700  0.52544800  1
  C  2299  1  0.23375500  0.54854900  0.48985200  1
  C  2301  1  0.19451700  0.51813300  0.53264300  1
  C  2302  1  0.18139600  0.50386100  0.51347100  1
  C  2306  1  0.17530200  0.53414400  0.54440300  1
  C  2310  1  0.20437100  0.49920000  0.54968100  1
  C  2318  1  0.78617100  0.32010500  0.52311000  1
  C  2319  1  0.76970200  0.30682900  0.53643800  1
  C  2320  1  0.75193400  0.29334400  0.52518000  1
  C  2322  1  0.76711700  0.30484300  0.48954700  1
  C  2324  1  0.80651700  0.33518100  0.53225900  1
  C  2325  1  0.81968600  0.34935800  0.51305300  1
  C  2329  1  0.82567500  0.31912600  0.54404700  1
  C  2333  1  0.79674100  0.35419100  0.54925900  1
  C  2341  1  0.39398600  0.71221900  0.49577900  1
  C  2342  1  0.38064000  0.69583700  0.48242000  1
  C  2343  1  0.36705700  0.67812800  0.49366900  1
  C  2345  1  0.37866700  0.69317400  0.52931900  1
  C  2347  1  0.40912600  0.73252400  0.48664800  1
  C  2348  1  0.42339800  0.74558500  0.50585500  1
  C  2352  1  0.39312000  0.75177500  0.47493500  1
  C  2356  1  0.42805600  0.72271300  0.46958600  1
  C  2364  1  0.60642000  0.14083400  0.49599500  1
  C  2365  1  0.61975200  0.15723100  0.48264400  1
  C  2366  1  0.63334600  0.17492600  0.49390000  1
  C  2368  1  0.62174600  0.15984900  0.52955300  1
  C  2370  1  0.59128000  0.12053400  0.48685300  1
  C  2371  1  0.57702800  0.10744600  0.50605900  1
  C  2375  1  0.60728200  0.10130300  0.47510900  1
  C  2379  1  0.57233300  0.13035800  0.46981600  1
  C  2387  1  0.78587900  0.53303600  0.49585200  1
  C  2388  1  0.76957000  0.54650800  0.48252900  1
  C  2389  1  0.75197800  0.56020200  0.49382000  1
  C  2391  1  0.76698100  0.54841900  0.52944700  1
  C  2393  1  0.80607300  0.51777200  0.48667800  1
  C  2394  1  0.81908900  0.50341500  0.50585500  1
  C  2398  1  0.82539500  0.53366400  0.47493200  1
  C  2402  1  0.79610800  0.49890900  0.46963000  1
  C  2410  1  0.21468800  0.32020900  0.49617900  1
  C  2411  1  0.23106100  0.30685000  0.48283300  1
  C  2412  1  0.24882400  0.29331700  0.49404800  1
  C  2414  1  0.23378900  0.30491700  0.52972700  1
  C  2416  1  0.19433700  0.33529500  0.48706400  1
  C  2417  1  0.18126200  0.34953900  0.50628300  1
  C  2421  1  0.17511400  0.31924200  0.47537000  1
  C  2425  1  0.20408600  0.35424600  0.46999300  1
  N  17  1  0.10029600  0.19791200  0.11231900  1
  N  18  1  0.15060000  0.20973700  0.17387200  1
  N  47  1  0.90048000  0.65539200  0.11208300  1
  N  48  1  0.85021300  0.64368000  0.17369400  1
  N  77  1  0.72926500  0.02685100  0.11212400  1
  N  78  1  0.71716800  0.07706400  0.17369400  1
  N  107  1  0.27165500  0.82677000  0.11187300  1
  N  108  1  0.28328800  0.77655800  0.17354300  1
  N  137  1  0.90048300  0.19794200  0.90696800  1
  N  138  1  0.85018500  0.20967300  0.84537500  1
  N  167  1  0.10001300  0.65517200  0.90720300  1
  N  168  1  0.15035000  0.64363200  0.84558700  1
  N  197  1  0.27153700  0.02678000  0.90711800  1
  N  198  1  0.28355900  0.07705100  0.84558400  1
  N  227  1  0.72899700  0.82672100  0.90735600  1
  N  228  1  0.71733000  0.77651100  0.84570000  1
  N  257  1  0.91038800  0.64506100  0.90514100  1
  N  258  1  0.86009800  0.64336100  0.84108100  1
  N  287  1  0.09014200  0.20807300  0.90537700  1
  N  288  1  0.14036200  0.20951300  0.84129000  1
  N  317  1  0.28179700  0.83657900  0.90490300  1
  N  318  1  0.28369300  0.78615500  0.84089100  1
  N  347  1  0.71866300  0.01660500  0.90529300  1
  N  348  1  0.71694700  0.06675900  0.84118600  1
  N  377  1  0.09017700  0.64498900  0.11420200  1
  N  378  1  0.14047700  0.64327000  0.17824800  1
  N  407  1  0.91054300  0.20788200  0.11394100  1
  N  408  1  0.86030700  0.20944800  0.17800900  1
  N  437  1  0.71908400  0.83656400  0.11437200  1
  N  438  1  0.71711100  0.78611200  0.17835600  1
  N  467  1  0.28188600  0.01657200  0.11402700  1
  N  468  1  0.28357000  0.06679500  0.17808500  1
  N  497  1  0.59990200  0.70220300  0.61638000  1
  N  498  1  0.64829900  0.71704000  0.67873600  1
  N  527  1  0.40084000  0.15103600  0.61615800  1
  N  528  1  0.35245900  0.13627100  0.67854400  1
  N  557  1  0.22504700  0.52655800  0.61625100  1
  N  558  1  0.20986400  0.57486200  0.67860300  1
  N  587  1  0.77593500  0.32710500  0.61597300  1
  N  588  1  0.79061000  0.27882100  0.67846500  1
  N  617  1  0.40072700  0.70217600  0.40286300  1
  N  618  1  0.35235700  0.71701100  0.34047900  1
  N  647  1  0.59967500  0.15082200  0.40309100  1
  N  648  1  0.64813500  0.13618200  0.34071200  1
  N  677  1  0.77580100  0.52649800  0.40302000  1
  N  678  1  0.79089500  0.57485700  0.34069100  1
  N  707  1  0.22479900  0.32707500  0.40327600  1
  N  708  1  0.21005800  0.27877300  0.34082100  1
  N  737  1  0.40795900  0.14314200  0.41057200  1
  N  738  1  0.36030800  0.13906300  0.34512300  1
  N  767  1  0.59257000  0.71005200  0.41080800  1
  N  768  1  0.64014600  0.71391400  0.34531900  1
  N  797  1  0.78360100  0.33413600  0.41035300  1
  N  798  1  0.78778900  0.28632100  0.34495800  1
  N  827  1  0.21689100  0.51908000  0.41076700  1
  N  828  1  0.21285900  0.56660800  0.34528000  1
  N  857  1  0.59255900  0.14300600  0.60871200  1
  N  858  1  0.64020800  0.13895100  0.67414600  1
  N  887  1  0.40807900  0.70988800  0.60845800  1
  N  888  1  0.36051900  0.71386100  0.67394300  1
  N  917  1  0.21730700  0.33413100  0.60895600  1
  N  918  1  0.21301600  0.28624700  0.67429700  1
  N  947  1  0.78378300  0.51903400  0.60857000  1
  N  948  1  0.78780400  0.56661300  0.67401900  1
  N  964  1  0.99413200  0.25961100  0.13865400  1
  N  966  1  0.99105600  0.26221900  0.17769500  1
  N  982  1  0.05302500  0.25806800  0.16347600  1
  N  983  1  0.95698600  0.25703200  0.15658700  1
  N  987  1  0.00668000  0.59335300  0.13867300  1
  N  989  1  0.00965400  0.59073400  0.17772200  1
  N  1005  1  0.94773000  0.59511500  0.16338000  1
  N  1006  1  0.04378800  0.59582200  0.15668200  1
  N  1010  1  0.66737600  0.92022800  0.13876200  1
  N  1012  1  0.66472000  0.91735200  0.17781000  1
  N  1028  1  0.66909200  0.97923100  0.16335300  1
  N  1029  1  0.66996700  0.88317500  0.15685800  1
  N  1033  1  0.33362900  0.93298900  0.13850000  1
  N  1035  1  0.33616400  0.93594700  0.17755000  1
  N  1051  1  0.33187400  0.87403300  0.16319600  1
  N  1052  1  0.33106000  0.97008400  0.15651800  1
  N  1056  1  0.00660000  0.25976800  0.88061200  1
  N  1058  1  0.00967000  0.26238900  0.84157300  1
  N  1074  1  0.94771000  0.25813100  0.85579600  1
  N  1075  1  0.04374200  0.25720100  0.86268000  1
  N  1079  1  0.99399500  0.59338700  0.88056500  1
  N  1081  1  0.99102600  0.59073200  0.84152800  1
  N  1097  1  0.05295200  0.59494600  0.85588000  1
  N  1098  1  0.95689000  0.59595000  0.86259300  1
  N  1102  1  0.33337400  0.92025700  0.88040100  1
  N  1104  1  0.33612300  0.91738300  0.84136400  1
  N  1120  1  0.33172000  0.97926300  0.85583600  1
  N  1121  1  0.33084600  0.88319500  0.86234700  1
  N  1125  1  0.66698600  0.93294100  0.88079700  1
  N  1127  1  0.66434700  0.93594100  0.84176900  1
  N  1143  1  0.66877800  0.87401300  0.85606200  1
  N  1144  1  0.66947600  0.97006600  0.86281000  1
  N  1148  1  0.49379400  0.76744300  0.63332700  1
  N  1150  1  0.48884500  0.75846100  0.67133100  1
  N  1166  1  0.55159600  0.76232700  0.66060600  1
  N  1167  1  0.45588700  0.75921400  0.64911900  1
  N  1171  1  0.50699400  0.08542600  0.63334600  1
  N  1173  1  0.51185800  0.09465000  0.67130700  1
  N  1189  1  0.44912800  0.09082400  0.66047100  1
  N  1190  1  0.54487600  0.09367700  0.64918700  1
  N  1194  1  0.16000300  0.42001200  0.63332600  1
  N  1196  1  0.16860200  0.41519300  0.67141300  1
  N  1212  1  0.16503400  0.47789600  0.66045100  1
  N  1213  1  0.16804400  0.38213800  0.64930600  1
  N  1217  1  0.84126200  0.43329300  0.63315200  1
  N  1219  1  0.83231700  0.43818100  0.67116500  1
  N  1235  1  0.83604700  0.37545200  0.66034800  1
  N  1236  1  0.83308900  0.47118400  0.64901000  1
  N  1240  1  0.50688800  0.76749500  0.38588800  1
  N  1242  1  0.51186600  0.75857500  0.34787800  1
  N  1258  1  0.44910600  0.76228200  0.35859900  1
  N  1259  1  0.54481200  0.75933400  0.37010400  1
  N  1263  1  0.49370300  0.08560000  0.38593300  1
  N  1265  1  0.48887400  0.09470200  0.34794700  1
  N  1281  1  0.55158300  0.09066100  0.35878600  1
  N  1282  1  0.45583900  0.09392900  0.37009900  1
  N  1286  1  0.84083900  0.42005300  0.38587800  1
  N  1288  1  0.83211200  0.41526500  0.34781000  1
  N  1304  1  0.83583300  0.47795800  0.35879100  1
  N  1305  1  0.83271800  0.38218800  0.36992400  1
  N  1309  1  0.15950000  0.43326600  0.38616900  1
  N  1311  1  0.16825400  0.43820600  0.34813400  1
  N  1327  1  0.16469700  0.37545600  0.35892800  1
  N  1328  1  0.16755600  0.47118800  0.37031600  1
  N  1332  1  0.15630600  0.25671800  0.25073700  1
  N  1334  1  0.12857100  0.28728800  0.24655300  1
  N  1350  1  0.15692600  0.29388600  0.30076500  1
  N  1351  1  0.13273500  0.26153300  0.21750400  1
  N  1355  1  0.84457300  0.59676700  0.25064200  1
  N  1357  1  0.87229300  0.56618300  0.24645700  1
  N  1373  1  0.84395700  0.55960900  0.30068000  1
  N  1374  1  0.86809800  0.59191000  0.21738800  1
  N  1378  1  0.67027900  0.08249000  0.25057700  1
  N  1380  1  0.63970000  0.05477200  0.24634400  1
  N  1396  1  0.63311900  0.08301000  0.30061500  1
  N  1397  1  0.66546400  0.05898900  0.21730000  1
  N  1401  1  0.33029900  0.77079700  0.25042500  1
  N  1403  1  0.36096500  0.79841500  0.24617000  1
  N  1419  1  0.36752800  0.77011800  0.30041200  1
  N  1420  1  0.33515600  0.79429500  0.21715500  1
  N  1424  1  0.84442800  0.25670000  0.76852700  1
  N  1426  1  0.87212400  0.28730200  0.77273600  1
  N  1442  1  0.84376600  0.29390800  0.71852600  1
  N  1443  1  0.86799800  0.26151500  0.80176100  1
  N  1447  1  0.15616300  0.59666400  0.76865700  1
  N  1449  1  0.12845300  0.56606700  0.77281400  1
  N  1465  1  0.15683200  0.55952700  0.71860400  1
  N  1466  1  0.13260500  0.59179000  0.80189100  1
  N  1470  1  0.33042300  0.08256100  0.76867900  1
  N  1472  1  0.36105400  0.05490200  0.77291800  1
  N  1488  1  0.36759900  0.08316700  0.71865800  1
  N  1489  1  0.33526900  0.05905500  0.80195000  1
  N  1493  1  0.67037300  0.77083300  0.76878500  1
  N  1495  1  0.63970000  0.79844100  0.77305000  1
  N  1511  1  0.63314900  0.77016600  0.71879600  1
  N  1512  1  0.66550100  0.79430600  0.80207000  1
  N  1516  1  0.84641400  0.59594100  0.76340900  1
  N  1518  1  0.86797600  0.56158600  0.77189000  1
  N  1534  1  0.83960100  0.55326000  0.71815500  1
  N  1535  1  0.87044000  0.59177400  0.79656200  1
  N  1539  1  0.15418100  0.25687300  0.76358600  1
  N  1541  1  0.13264600  0.29124800  0.77205700  1
  N  1557  1  0.16121400  0.29964300  0.71842300  1
  N  1558  1  0.13010800  0.26105600  0.79670900  1
  N  1562  1  0.33117600  0.77241500  0.76331100  1
  N  1564  1  0.36550800  0.79401500  0.77179200  1
  N  1580  1  0.37387700  0.76564500  0.71806300  1
  N  1581  1  0.33530600  0.79644700  0.79646000  1
  N  1585  1  0.66952200  0.08037900  0.76351900  1
  N  1587  1  0.63515400  0.05884600  0.77201600  1
  N  1603  1  0.62686400  0.08711900  0.71822900  1
  N  1604  1  0.66531900  0.05645200  0.79672600  1
  N  1608  1  0.15418300  0.59585800  0.25588200  1
  N  1610  1  0.13268000  0.56146700  0.24740200  1
  N  1626  1  0.16107000  0.55319400  0.30114000  1
  N  1627  1  0.13015700  0.59165300  0.22273300  1
  N  1631  1  0.84656200  0.25687800  0.25569100  1
  N  1633  1  0.86808500  0.29124400  0.24717200  1
  N  1649  1  0.83953800  0.29969800  0.30080500  1
  N  1650  1  0.87064300  0.26101000  0.22256800  1
  N  1654  1  0.66958100  0.77244200  0.25595300  1
  N  1656  1  0.63525300  0.79402100  0.24741900  1
  N  1672  1  0.62683800  0.76567000  0.30115400  1
  N  1673  1  0.66549200  0.79647900  0.22280100  1
  N  1677  1  0.33099300  0.08047800  0.25576400  1
  N  1679  1  0.36536000  0.05894500  0.24725600  1
  N  1695  1  0.37368600  0.08728400  0.30101100  1
  N  1696  1  0.33517800  0.05652200  0.22257000  1
  N  1700  1  0.24299200  0.17706600  0.10284200  1
  N  1702  1  0.22782700  0.16436500  0.13732300  1
  N  1718  1  0.27237400  0.12279400  0.12022700  1
  N  1719  1  0.20659800  0.19157500  0.11823100  1
  N  1723  1  0.75768000  0.67621400  0.10280300  1
  N  1725  1  0.77282400  0.68884600  0.13731600  1
  N  1741  1  0.72796600  0.73025900  0.12053300  1
  N  1742  1  0.79414000  0.66177800  0.11812700  1
  N  1746  1  0.74981600  0.16935200  0.10273000  1
  N  1748  1  0.76245900  0.15416700  0.13721700  1
  N  1764  1  0.80417700  0.19860700  0.12019100  1
  N  1765  1  0.73507400  0.13307500  0.11820700  1
  N  1769  1  0.25060400  0.68400600  0.10277400  1
  N  1771  1  0.23787900  0.69918200  0.13723800  1
  N  1787  1  0.19647200  0.65441900  0.12033400  1
  N  1788  1  0.26496700  0.72049200  0.11806800  1
  N  1792  1  0.75769100  0.17702400  0.91632200  1
  N  1794  1  0.77279300  0.16429100  0.88183000  1
  N  1810  1  0.72814700  0.12283200  0.89892700  1
  N  1811  1  0.79415500  0.19135600  0.90096500  1
  N  1815  1  0.24286000  0.67639600  0.91640200  1
  N  1817  1  0.22771600  0.68912800  0.88193200  1
  N  1833  1  0.27281100  0.73029400  0.89865400  1
  N  1834  1  0.20630900  0.66211000  0.90119600  1
  N  1838  1  0.25081800  0.16926700  0.91649400  1
  N  1840  1  0.23811500  0.15403600  0.88204300  1
  N  1856  1  0.19645600  0.19852300  0.89909600  1
  N  1857  1  0.26555200  0.13295100  0.90109700  1
  N  1861  1  0.74998000  0.68396300  0.91649900  1
  N  1863  1  0.76257500  0.69903400  0.88197400  1
  N  1879  1  0.80410900  0.65439800  0.89893600  1
  N  1880  1  0.73555500  0.72041300  0.90116600  1
  N  1884  1  0.74236600  0.67993700  0.60499500  1
  N  1886  1  0.72853500  0.66514100  0.63922400  1
  N  1902  1  0.77274500  0.62494800  0.61861900  1
  N  1903  1  0.70647700  0.69329000  0.62213100  1
  N  1907  1  0.25828000  0.17329000  0.60493600  1
  N  1909  1  0.27212400  0.18802800  0.63918300  1
  N  1925  1  0.22762300  0.22810900  0.61888500  1
  N  1926  1  0.29424000  0.15999200  0.62199600  1
  N  1930  1  0.24693100  0.66882700  0.60491100  1
  N  1932  1  0.26166600  0.65499200  0.63915800  1
  N  1948  1  0.30202100  0.69907200  0.61858500  1
  N  1949  1  0.23332700  0.63307300  0.62217800  1
  N  1953  1  0.75347700  0.18459100  0.60497500  1
  N  1955  1  0.73862500  0.19845400  0.63916800  1
  N  1971  1  0.69854700  0.15410900  0.61868000  1
  N  1972  1  0.76668300  0.22057100  0.62200600  1
  N  1976  1  0.25825400  0.68001000  0.41421500  1
  N  1978  1  0.27208100  0.66519300  0.37999400  1
  N  1994  1  0.22785200  0.62501600  0.40059400  1
  N  1995  1  0.29415800  0.69332900  0.39708600  1
  N  1999  1  0.74229900  0.17347800  0.41424200  1
  N  2001  1  0.72843900  0.18833500  0.38005700  1
  N  2017  1  0.77319500  0.22815100  0.40028700  1
  N  2018  1  0.70623100  0.16034800  0.39732900  1
  N  2022  1  0.75365900  0.66874100  0.41432800  1
  N  2024  1  0.73889800  0.65487600  0.38010100  1
  N  2040  1  0.69857600  0.69898200  0.40068700  1
  N  2041  1  0.76728500  0.63296000  0.39713300  1
  N  2045  1  0.24711800  0.18453900  0.41432400  1
  N  2047  1  0.26185000  0.19831100  0.38007700  1
  N  2063  1  0.30198700  0.15398600  0.40054500  1
  N  2064  1  0.23387600  0.22050900  0.39727300  1
  N  2068  1  0.13073900  0.17563900  0.99731400  1
  N  2070  1  0.10641000  0.20930000  0.99629100  1
  N  2086  1  0.12375300  0.19879500  0.05327800  1
  N  2087  1  0.12372800  0.19459700  0.96333400  1
  N  2091  1  0.86990600  0.67755200  0.99708100  1
  N  2093  1  0.89421600  0.64387300  0.99607500  1
  N  2109  1  0.87694100  0.65445100  0.05306800  1
  N  2110  1  0.87685100  0.65852100  0.96312000  1
  N  2114  1  0.75136100  0.05720600  0.99711300  1
  N  2116  1  0.71763000  0.03297200  0.99619100  1
  N  2132  1  0.72826800  0.05029400  0.05314600  1
  N  2133  1  0.73228400  0.05022100  0.96318300  1
  N  2137  1  0.24938000  0.79626500  0.99686700  1
  N  2139  1  0.28319500  0.82037300  0.99586200  1
  N  2155  1  0.27257000  0.80316500  0.05284500  1
  N  2156  1  0.26844500  0.80311500  0.96290300  1
  N  2160  1  0.87008800  0.17548100  0.02197000  1
  N  2162  1  0.89430900  0.20921600  0.02302600  1
  N  2178  1  0.87695500  0.19876100  0.96603800  1
  N  2179  1  0.87699900  0.19446300  0.05596000  1
  N  2183  1  0.13051200  0.67747300  0.02222600  1
  N  2185  1  0.10622900  0.64379800  0.02325400  1
  N  2201  1  0.12356100  0.65431600  0.96626900  1
  N  2202  1  0.12361900  0.65852200  0.05620000  1
  N  2206  1  0.24941600  0.05719400  0.02212500  1
  N  2208  1  0.28296100  0.03272400  0.02309400  1
  N  2224  1  0.27250900  0.05019100  0.96612800  1
  N  2225  1  0.26834000  0.05012300  0.05607900  1
  N  2229  1  0.75136500  0.79621300  0.02233000  1
  N  2231  1  0.71765200  0.82043700  0.02339600  1
  N  2247  1  0.72809500  0.80311000  0.96640400  1
  N  2248  1  0.73239200  0.80311900  0.05633600  1
  N  2252  1  0.63423800  0.67733600  0.50269900  1
  N  2254  1  0.60883800  0.71013800  0.50070800  1
  N  2270  1  0.62469300  0.70070800  0.55823100  1
  N  2271  1  0.62734800  0.69551400  0.46825000  1
  N  2275  1  0.36641300  0.17586000  0.50248200  1
  N  2277  1  0.39179900  0.14304100  0.50049600  1
  N  2293  1  0.37599800  0.15251000  0.55802500  1
  N  2294  1  0.37323800  0.15762300  0.46804600  1
  N  2298  1  0.24980800  0.56073200  0.50255400  1
  N  2300  1  0.21691600  0.53544100  0.50066000  1
  N  2316  1  0.22643300  0.55131100  0.55814800  1
  N  2317  1  0.23151200  0.55387100  0.46815200  1
  N  2321  1  0.75105100  0.29272900  0.50229000  1
  N  2323  1  0.78402300  0.31790400  0.50031700  1
  N  2339  1  0.77449500  0.30214600  0.55783000  1
  N  2340  1  0.76932700  0.29947200  0.46785300  1
  N  2344  1  0.36648100  0.67717700  0.51655900  1
  N  2346  1  0.39179100  0.71004100  0.51856900  1
  N  2362  1  0.37586800  0.70068600  0.46106000  1
  N  2363  1  0.37331300  0.69536100  0.55101600  1
  N  2367  1  0.63394500  0.17584100  0.51679000  1
  N  2369  1  0.60862900  0.14299100  0.51878500  1
  N  2385  1  0.62451500  0.15241200  0.46127600  1
  N  2386  1  0.62717800  0.15765700  0.55123200  1
  N  2390  1  0.75106100  0.56074600  0.51671300  1
  N  2392  1  0.78374700  0.53521200  0.51864600  1
  N  2408  1  0.77438100  0.55121800  0.46114600  1
  N  2409  1  0.76920400  0.55378300  0.55113700  1
  N  2413  1  0.24977100  0.29273400  0.51693700  1
  N  2415  1  0.21689300  0.31800500  0.51896700  1
  N  2431  1  0.22624800  0.30213000  0.46144900  1
  N  2432  1  0.23157500  0.29951700  0.55140900  1
  O  980  1  0.03111900  0.25670300  0.12109300  1
  O  1003  1  0.96974500  0.59643600  0.12104200  1
  O  1026  1  0.67041800  0.95712900  0.12105800  1
  O  1049  1  0.33068000  0.89605000  0.12084800  1
  O  1072  1  0.96961000  0.25680700  0.89816400  1
  O  1095  1  0.03093400  0.59633900  0.89820700  1
  O  1118  1  0.33030000  0.95715200  0.89810500  1
  O  1141  1  0.67008100  0.89599300  0.89840800  1
  O  1164  1  0.53165100  0.77166800  0.61776100  1
  O  1187  1  0.46917000  0.08119500  0.61771100  1
  O  1210  1  0.15600500  0.45784000  0.61762100  1
  O  1233  1  0.84541600  0.39544900  0.61753000  1
  O  1256  1  0.46901200  0.77161800  0.40144200  1
  O  1279  1  0.53151400  0.08122700  0.40156500  1
  O  1302  1  0.84495300  0.45786400  0.40158700  1
  O  1325  1  0.15551900  0.39540200  0.40178800  1
  O  1348  1  0.17927300  0.25352800  0.28338500  1
  O  1371  1  0.82161700  0.59997100  0.28329700  1
  O  1394  1  0.67348100  0.10538300  0.28327000  1
  O  1417  1  0.32707000  0.74789100  0.28311000  1
  O  1440  1  0.82146300  0.25351900  0.73587600  1
  O  1463  1  0.17913000  0.59989600  0.73601200  1
  O  1486  1  0.32719800  0.10546100  0.73599400  1
  O  1509  1  0.67360200  0.74793400  0.73609700  1
  O  1532  1  0.82432600  0.59862500  0.73013800  1
  O  1555  1  0.17636000  0.25420800  0.73036700  1
  O  1578  1  0.32852000  0.75032300  0.73004100  1
  O  1601  1  0.67223200  0.10239900  0.73020800  1
  O  1624  1  0.17626500  0.59857600  0.28915300  1
  O  1647  1  0.82439200  0.25425800  0.28891700  1
  O  1670  1  0.67220400  0.75036700  0.28923400  1
  O  1693  1  0.32830200  0.10252800  0.28905700  1
  O  1716  1  0.27327800  0.15614500  0.08481900  1
  O  1739  1  0.72734700  0.69710600  0.08485200  1
  O  1762  1  0.77084000  0.19955100  0.08470000  1
  O  1785  1  0.22979400  0.65359000  0.08483800  1
  O  1808  1  0.72737900  0.15614600  0.93435600  1
  O  1831  1  0.27339900  0.69705900  0.93427600  1
  O  1854  1  0.22981000  0.19948300  0.93451700  1
  O  1877  1  0.77092900  0.65370200  0.93451700  1
  O  1900  1  0.77205000  0.66032600  0.58490300  1
  O  1923  1  0.22854700  0.19288600  0.58492500  1
  O  1946  1  0.26664900  0.69841000  0.58479500  1
  O  1969  1  0.73395700  0.15479600  0.58495000  1
  O  1992  1  0.22858800  0.66038000  0.43431600  1
  O  2015  1  0.77225300  0.19283300  0.43416700  1
  O  2038  1  0.73393000  0.69831900  0.43444000  1
  O  2061  1  0.26672900  0.15485300  0.43439800  1
  O  2084  1  0.14557500  0.16100900  0.03118200  1
  O  2107  1  0.85505900  0.69217700  0.03094700  1
  O  2130  1  0.76607500  0.07206300  0.03093700  1
  O  2153  1  0.23461600  0.78158300  0.03075200  1
  O  2176  1  0.85525800  0.16090800  0.98807400  1
  O  2199  1  0.14532700  0.69209800  0.98834900  1
  O  2222  1  0.23489500  0.07220500  0.98829300  1
  O  2245  1  0.76595600  0.78139600  0.98843800  1
  O  2268  1  0.64840900  0.66348400  0.53711700  1
  O  2291  1  0.35222700  0.18968400  0.53690300  1
  O  2314  1  0.26369700  0.57496900  0.53693300  1
  O  2337  1  0.73707300  0.27869400  0.53672300  1
  O  2360  1  0.35231400  0.66336600  0.48212000  1
  O  2383  1  0.64810100  0.18968900  0.48236600  1
  O  2406  1  0.73732300  0.57510100  0.48233000  1
  O  2429  1  0.26358200  0.27857300  0.48249900  1
