# generated using pymatgen
data_H32C55N8
_symmetry_space_group_name_H-M   'P 1'
_cell_length_a   64.67540000
_cell_length_b   89.44125000
_cell_length_c   89.44120000
_cell_angle_alpha   119.99994452
_cell_angle_beta   90.00000000
_cell_angle_gamma   90.00000000
_symmetry_Int_Tables_number   1
_chemical_formula_structural   H32C55N8
_chemical_formula_sum   'H768 C1320 N192'
_cell_volume   448069.59571698
_cell_formula_units_Z   24
loop_
 _symmetry_equiv_pos_site_id
 _symmetry_equiv_pos_as_xyz
  1  'x, y, z'
loop_
 _atom_site_type_symbol
 _atom_site_label
 _atom_site_symmetry_multiplicity
 _atom_site_fract_x
 _atom_site_fract_y
 _atom_site_fract_z
 _atom_site_occupancy
  H  4  1  0.65044500  0.96181500  0.61704600  1
  H  5  1  0.67574100  0.95853200  0.62229900  1
  H  7  1  0.76308300  0.96171700  0.34404900  1
  H  8  1  0.73786800  0.95828700  0.33534000  1
  H  15  1  0.92038000  0.96724300  0.61103800  1
  H  17  1  0.94559900  0.98319300  0.60354700  1
  H  19  1  0.91217500  0.96036600  0.66134400  1
  H  20  1  0.91529700  0.98269800  0.67583700  1
  H  21  1  0.93661800  0.96842600  0.67028600  1
  H  23  1  0.89388600  0.95475100  0.63764600  1
  H  30  1  0.47273500  0.99474600  0.38664800  1
  H  31  1  0.49621000  0.97382600  0.36414700  1
  H  32  1  0.49283800  0.96646600  0.31384400  1
  H  34  1  0.52551400  0.95760200  0.33784400  1
  H  41  1  0.94300300  0.99426300  0.38597200  1
  H  42  1  0.91768100  0.97480300  0.36429000  1
  H  43  1  0.91805800  0.96920400  0.31462700  1
  H  45  1  0.88783100  0.96118900  0.34260200  1
  H  52  1  0.49667000  0.96930500  0.61303700  1
  H  54  1  0.47103100  0.98473300  0.60495300  1
  H  56  1  0.50122000  0.95985000  0.66189400  1
  H  57  1  0.49729000  0.98199700  0.67686600  1
  H  58  1  0.47632500  0.96725900  0.67010400  1
  H  60  1  0.52244400  0.95851900  0.64069500  1
  H  85  1  0.78891400  0.68277500  0.09042600  1
  H  86  1  0.81064200  0.70407400  0.11229500  1
  H  87  1  0.83327400  0.72049000  0.13587800  1
  H  88  1  0.85963500  0.73334500  0.15728100  1
  H  89  1  0.89459900  0.68711800  0.13240800  1
  H  90  1  0.83378500  0.64417100  0.07979100  1
  H  91  1  0.84403800  0.65706900  0.12658800  1
  H  92  1  0.88689100  0.61686400  0.11447600  1
  H  93  1  0.90490300  0.62412700  0.09538200  1
  H  94  1  0.87282800  0.68110000  0.08163800  1
  H  95  1  0.91832800  0.63539800  0.07649800  1
  H  96  1  0.92427300  0.64827300  0.05887600  1
  H  126  1  0.78897700  0.40715400  0.31605500  1
  H  127  1  0.81077800  0.40761800  0.29474000  1
  H  128  1  0.83340800  0.41477600  0.27832000  1
  H  129  1  0.85975500  0.42334500  0.26547200  1
  H  130  1  0.89465100  0.44480900  0.31174100  1
  H  131  1  0.83378100  0.43521700  0.35469300  1
  H  132  1  0.84407100  0.46900600  0.34172700  1
  H  133  1  0.88690400  0.49716800  0.38192700  1
  H  134  1  0.90492500  0.47083200  0.37472200  1
  H  135  1  0.87292400  0.40005700  0.31779800  1
  H  136  1  0.91834900  0.44069300  0.36352200  1
  H  137  1  0.92431800  0.41020200  0.35069200  1
  H  167  1  0.78883500  0.90832300  0.59162200  1
  H  168  1  0.81058600  0.88646800  0.59105700  1
  H  169  1  0.83332000  0.86297100  0.58400500  1
  H  170  1  0.85972000  0.84160500  0.57548700  1
  H  171  1  0.89458600  0.86644600  0.55404800  1
  H  172  1  0.83375800  0.91906900  0.56376600  1
  H  173  1  0.84398900  0.87226400  0.52979700  1
  H  174  1  0.88682600  0.88443400  0.50173700  1
  H  175  1  0.90484700  0.90349600  0.52809900  1
  H  176  1  0.87277700  0.91720400  0.59879900  1
  H  177  1  0.91826200  0.92236100  0.55823900  1
  H  178  1  0.92420900  0.93997700  0.58873500  1
  H  208  1  0.28882700  0.31605300  0.90828400  1
  H  209  1  0.31056200  0.29482000  0.88636200  1
  H  210  1  0.33333333  0.27844600  0.86282300  1
  H  211  1  0.35969900  0.26564600  0.84147700  1
  H  212  1  0.39454000  0.31193200  0.86642100  1
  H  213  1  0.33369100  0.35471600  0.91910200  1
  H  214  1  0.34396500  0.34193500  0.87225000  1
  H  215  1  0.38685700  0.38212500  0.88440300  1
  H  216  1  0.40484300  0.37483100  0.90348700  1
  H  217  1  0.37270700  0.31780900  0.91713400  1
  H  218  1  0.41823600  0.36352600  0.92235500  1
  H  219  1  0.42418300  0.35058600  0.93991800  1
  H  249  1  0.28900900  0.59184800  0.68277600  1
  H  250  1  0.31080800  0.59132500  0.70405600  1
  H  251  1  0.33344700  0.58414700  0.72045600  1
  H  252  1  0.35980500  0.57557000  0.73328300  1
  H  253  1  0.39458400  0.55397700  0.68695300  1
  H  254  1  0.33373300  0.56371600  0.64408200  1
  H  255  1  0.34406600  0.52986900  0.65700500  1
  H  256  1  0.38692100  0.50174000  0.61681400  1
  H  257  1  0.40493100  0.52808800  0.62403900  1
  H  258  1  0.37286700  0.59883500  0.68097300  1
  H  259  1  0.41831100  0.55824700  0.63524000  1
  H  260  1  0.42427300  0.58874200  0.64810400  1
  H  290  1  0.28899600  0.09043500  0.40701900  1
  H  291  1  0.31077200  0.11223500  0.40751000  1
  H  292  1  0.33333333  0.13583100  0.41468000  1
  H  293  1  0.35974400  0.15723300  0.42321600  1
  H  294  1  0.39461400  0.13248300  0.44474900  1
  H  295  1  0.33376800  0.07991400  0.43514600  1
  H  296  1  0.34407400  0.12669500  0.46895500  1
  H  297  1  0.38692300  0.11464200  0.49709500  1
  H  298  1  0.40493300  0.09551500  0.47075300  1
  H  299  1  0.37287600  0.08167000  0.39999500  1
  H  300  1  0.41830300  0.07653300  0.44059700  1
  H  301  1  0.42426200  0.05888700  0.41010500  1
  H  331  1  0.12319400  0.59260700  0.90932700  1
  H  332  1  0.10090700  0.59262200  0.88808500  1
  H  333  1  0.07844400  0.58545000  0.86455400  1
  H  334  1  0.05268200  0.57619900  0.84262700  1
  H  335  1  0.01874100  0.55297100  0.86618700  1
  H  336  1  0.07949200  0.56312500  0.91896400  1
  H  337  1  0.07166400  0.53072200  0.87226900  1
  H  338  1  0.03018800  0.49887300  0.88036400  1
  H  339  1  0.01046800  0.52384500  0.89993000  1
  H  340  1  0.03506300  0.59776600  0.91815000  1
  H  341  1  0.99551200  0.55196700  0.91945200  1
  H  342  1  0.98550100  0.58138100  0.93749500  1
  H  372  1  0.12312700  0.08949200  0.68261600  1
  H  373  1  0.10081600  0.11065000  0.70392000  1
  H  374  1  0.07835600  0.13417200  0.72035500  1
  H  375  1  0.05264100  0.15614700  0.73307500  1
  H  376  1  0.01872700  0.13274400  0.68627600  1
  H  377  1  0.07945200  0.08003300  0.64353300  1
  H  378  1  0.07162100  0.12663100  0.65785500  1
  H  379  1  0.03019900  0.11847000  0.61785600  1
  H  380  1  0.01043500  0.09895900  0.62331000  1
  H  381  1  0.03500700  0.08073100  0.67900300  1
  H  382  1  0.99545900  0.07946800  0.63192000  1
  H  383  1  0.98546400  0.06139100  0.64325600  1
  H  413  1  0.12317100  0.31633300  0.40628200  1
  H  414  1  0.10090600  0.29503600  0.40622200  1
  H  415  1  0.07843200  0.27862500  0.41332300  1
  H  416  1  0.05269700  0.26591900  0.42257100  1
  H  417  1  0.01871000  0.31268400  0.44582800  1
  H  418  1  0.07941200  0.35538900  0.43576200  1
  H  419  1  0.07158400  0.34109500  0.46813600  1
  H  420  1  0.03013200  0.38108500  0.49993100  1
  H  421  1  0.01041800  0.37564000  0.47494300  1
  H  422  1  0.03503200  0.31983000  0.40106900  1
  H  423  1  0.99548100  0.36700600  0.44678700  1
  H  424  1  0.98551300  0.35558700  0.41734300  1
  H  454  1  0.62320000  0.40636600  0.08951600  1
  H  455  1  0.60088500  0.40626700  0.11070900  1
  H  456  1  0.57839200  0.41336300  0.13420700  1
  H  457  1  0.55263800  0.42261000  0.15614600  1
  H  458  1  0.51870300  0.44589000  0.13263500  1
  H  459  1  0.57946800  0.43584600  0.07991200  1
  H  460  1  0.57156000  0.46822600  0.12657300  1
  H  461  1  0.53015400  0.49996600  0.11825400  1
  H  462  1  0.51049200  0.47495700  0.09868600  1
  H  463  1  0.53494100  0.40111700  0.08085500  1
  H  464  1  0.49560300  0.44681300  0.07917200  1
  H  465  1  0.48555900  0.41738700  0.06123600  1
  H  495  1  0.62327400  0.90934900  0.31619100  1
  H  496  1  0.60099700  0.88813100  0.29488200  1
  H  497  1  0.57843800  0.86466500  0.27843600  1
  H  498  1  0.55266500  0.84274400  0.26572900  1
  H  499  1  0.51874900  0.86623100  0.31253000  1
  H  500  1  0.57944300  0.91899700  0.35522600  1
  H  501  1  0.57157700  0.87223400  0.34089100  1
  H  502  1  0.53015700  0.88052600  0.38093200  1
  H  503  1  0.51054200  0.90015300  0.37554500  1
  H  504  1  0.53501500  0.91796800  0.31952400  1
  H  505  1  0.49573100  0.91978000  0.36698700  1
  H  506  1  0.48572300  0.93772600  0.35548600  1
  H  536  1  0.62326800  0.68266900  0.59253200  1
  H  537  1  0.60101200  0.70392700  0.59250100  1
  H  538  1  0.57851400  0.72029400  0.58534500  1
  H  539  1  0.55271900  0.73296600  0.57611600  1
  H  540  1  0.51876500  0.68618700  0.55295000  1
  H  541  1  0.57949400  0.64357600  0.56314800  1
  H  542  1  0.57159800  0.65784600  0.53063900  1
  H  543  1  0.53015400  0.61781400  0.49891700  1
  H  544  1  0.51054500  0.62322300  0.52394200  1
  H  545  1  0.53504000  0.67929000  0.59775300  1
  H  546  1  0.49573100  0.63181800  0.55213700  1
  H  547  1  0.48571300  0.64336200  0.58158700  1
  H  577  1  0.12647200  0.31586800  0.89950600  1
  H  578  1  0.10281500  0.29552200  0.87920700  1
  H  579  1  0.07582800  0.27857400  0.86095400  1
  H  580  1  0.04638700  0.26601500  0.84288200  1
  H  581  1  0.01415100  0.31346400  0.86984900  1
  H  582  1  0.08021100  0.35462300  0.91818900  1
  H  583  1  0.06382600  0.34649300  0.87367700  1
  H  584  1  0.01485900  0.38264000  0.88845800  1
  H  585  1  0.00080900  0.37250900  0.90647700  1
  H  586  1  0.04431100  0.31831200  0.91806700  1
  H  587  1  0.99133400  0.35944200  0.92379200  1
  H  588  1  0.98922200  0.34570700  0.94088400  1
  H  618  1  0.12635400  0.58314000  0.68298000  1
  H  619  1  0.10267600  0.58317000  0.70330800  1
  H  620  1  0.07568300  0.58178000  0.72021600  1
  H  621  1  0.04623700  0.57620500  0.73272500  1
  H  622  1  0.01403900  0.55581100  0.68526500  1
  H  623  1  0.08013400  0.56306100  0.64419400  1
  H  624  1  0.06378800  0.52669000  0.65236800  1
  H  625  1  0.01503200  0.50522200  0.61602300  1
  H  626  1  0.00091800  0.53335000  0.62610100  1
  H  627  1  0.04412700  0.59921900  0.68047600  1
  H  628  1  0.99136100  0.56372000  0.63915700  1
  H  629  1  0.98918000  0.59454500  0.65288400  1
  H  659  1  0.12636800  0.09923500  0.41566400  1
  H  660  1  0.10272700  0.11954500  0.41562400  1
  H  661  1  0.07579500  0.13786500  0.41701500  1
  H  662  1  0.04639200  0.15597200  0.42255700  1
  H  663  1  0.01409800  0.12901200  0.44302100  1
  H  664  1  0.08012900  0.08063700  0.43583600  1
  H  665  1  0.06381300  0.12510700  0.47218800  1
  H  666  1  0.01491000  0.11029700  0.49358600  1
  H  667  1  0.00081000  0.09230700  0.46544700  1
  H  668  1  0.04420400  0.08077000  0.39963700  1
  H  669  1  0.99131000  0.07499200  0.43507100  1
  H  670  1  0.98918000  0.05789400  0.40424400  1
  H  700  1  0.62639300  0.68299300  0.09925400  1
  H  701  1  0.60276100  0.70333000  0.11957000  1
  H  702  1  0.57580800  0.72027200  0.13784700  1
  H  703  1  0.54638700  0.73283900  0.15593700  1
  H  704  1  0.51409500  0.68541800  0.12895300  1
  H  705  1  0.58013400  0.64424600  0.08057500  1
  H  706  1  0.56381600  0.65233900  0.12505600  1
  H  707  1  0.51489600  0.61614600  0.11024900  1
  H  708  1  0.50080700  0.62629800  0.09225800  1
  H  709  1  0.54422100  0.68057900  0.08074200  1
  H  710  1  0.49129700  0.63938900  0.07496600  1
  H  711  1  0.48916600  0.65314200  0.05789100  1
  H  741  1  0.62637600  0.41573100  0.31583400  1
  H  742  1  0.60273200  0.41569500  0.29549200  1
  H  743  1  0.57576900  0.41705700  0.27855700  1
  H  744  1  0.54634700  0.42260600  0.26601000  1
  H  745  1  0.51408100  0.44303600  0.31344300  1
  H  746  1  0.58013900  0.43585400  0.35459700  1
  H  747  1  0.56378000  0.47220000  0.34635200  1
  H  748  1  0.51505100  0.49366200  0.38272000  1
  H  749  1  0.50096200  0.46553000  0.37267000  1
  H  750  1  0.54416500  0.39966900  0.31827600  1
  H  751  1  0.49136900  0.43515400  0.35957100  1
  H  752  1  0.48919100  0.40432700  0.34582900  1
  H  782  1  0.62645200  0.89942900  0.58303500  1
  H  783  1  0.60275500  0.87917400  0.58311400  1
  H  784  1  0.57576800  0.86090000  0.58175100  1
  H  785  1  0.54632200  0.84281800  0.57618000  1
  H  786  1  0.51408300  0.86993400  0.55586100  1
  H  787  1  0.58019400  0.91824800  0.56309800  1
  H  788  1  0.56379100  0.87360800  0.52671600  1
  H  789  1  0.51511100  0.88855400  0.50524400  1
  H  790  1  0.50101900  0.90664600  0.53337000  1
  H  791  1  0.54418700  0.91816000  0.59925500  1
  H  792  1  0.49143000  0.92394400  0.56372800  1
  H  793  1  0.48924500  0.94106200  0.59454900  1
  H  823  1  0.78813400  0.41460300  0.09874700  1
  H  824  1  0.81219300  0.41405100  0.11851600  1
  H  825  1  0.83922200  0.41562100  0.13680900  1
  H  826  1  0.86830000  0.42201100  0.15540900  1
  H  827  1  0.89969300  0.44380500  0.12926600  1
  H  828  1  0.83355800  0.43603200  0.08081600  1
  H  829  1  0.84807000  0.47147200  0.12697100  1
  H  830  1  0.89309700  0.49655800  0.11275400  1
  H  831  1  0.90849200  0.46951100  0.09339500  1
  H  832  1  0.87620000  0.39979600  0.08117200  1
  H  833  1  0.91930500  0.44109300  0.07491700  1
  H  834  1  0.92623600  0.41107700  0.05779000  1
  H  864  1  0.78819000  0.90014000  0.31516700  1
  H  865  1  0.81225900  0.88036600  0.29488400  1
  H  866  1  0.83927900  0.86208600  0.27819100  1
  H  867  1  0.86834400  0.84347700  0.26599200  1
  H  868  1  0.89970800  0.86959200  0.31394600  1
  H  869  1  0.83353800  0.91806500  0.35458700  1
  H  870  1  0.84808200  0.87194200  0.34392600  1
  H  871  1  0.89314100  0.88613900  0.38320200  1
  H  872  1  0.90852600  0.90549900  0.37550900  1
  H  873  1  0.87621500  0.91770900  0.31801400  1
  H  874  1  0.91934300  0.92397100  0.36555500  1
  H  875  1  0.92627200  0.94108900  0.35265200  1
  H  905  1  0.78810000  0.68360900  0.58428900  1
  H  906  1  0.81212800  0.70394300  0.58483700  1
  H  907  1  0.83912000  0.72068800  0.58328600  1
  H  908  1  0.86817000  0.73293700  0.57691400  1
  H  909  1  0.89966600  0.68504800  0.55516300  1
  H  910  1  0.83356700  0.64428100  0.56287000  1
  H  911  1  0.84805400  0.65499300  0.52746100  1
  H  912  1  0.89338600  0.61595700  0.50237400  1
  H  913  1  0.90875000  0.62364500  0.52942200  1
  H  914  1  0.87611600  0.68082500  0.59915200  1
  H  915  1  0.91948600  0.63351300  0.55784200  1
  H  916  1  0.92634900  0.64634100  0.58786800  1
  H  946  1  0.28812400  0.58430300  0.90007400  1
  H  947  1  0.31216200  0.58479500  0.88026000  1
  H  948  1  0.33918800  0.58319300  0.86194000  1
  H  949  1  0.36828200  0.57681200  0.84335400  1
  H  950  1  0.39967900  0.55507200  0.86954700  1
  H  951  1  0.33354100  0.56285500  0.91799200  1
  H  952  1  0.34801600  0.52739800  0.87187600  1
  H  953  1  0.39314500  0.50230800  0.88599800  1
  H  954  1  0.40854800  0.52935800  0.90534100  1
  H  955  1  0.37617400  0.59907300  0.91761600  1
  H  956  1  0.41938800  0.55778000  0.92378600  1
  H  957  1  0.42631700  0.58779800  0.94090800  1
  H  987  1  0.28815000  0.09877900  0.68359900  1
  H  988  1  0.31219100  0.11855600  0.70392300  1
  H  989  1  0.33919500  0.13687300  0.72065600  1
  H  990  1  0.36825400  0.15549900  0.73287000  1
  H  991  1  0.39970700  0.12930400  0.68496400  1
  H  992  1  0.33359200  0.08085000  0.64425500  1
  H  993  1  0.34804300  0.12694300  0.65494900  1
  H  994  1  0.39336800  0.11303400  0.61591500  1
  H  995  1  0.40876800  0.09368300  0.62359900  1
  H  996  1  0.37613400  0.08103800  0.68071900  1
  H  997  1  0.41952000  0.07512400  0.63344900  1
  H  998  1  0.42637700  0.05788600  0.64622800  1
  H  1028  1  0.28815600  0.31529400  0.41450700  1
  H  1029  1  0.31217100  0.29497800  0.41399000  1
  H  1030  1  0.33914900  0.27824500  0.41557800  1
  H  1031  1  0.36820300  0.26600600  0.42195600  1
  H  1032  1  0.39968700  0.31390000  0.44370000  1
  H  1033  1  0.33358300  0.35464100  0.43596500  1
  H  1034  1  0.34799000  0.34398400  0.47138600  1
  H  1035  1  0.39330600  0.38302900  0.49650900  1
  H  1036  1  0.40872900  0.37531400  0.46947500  1
  H  1037  1  0.37614300  0.31814200  0.39971500  1
  H  1038  1  0.41950900  0.36543300  0.44106900  1
  H  1039  1  0.42638300  0.35263600  0.41105600  1
  H  1051  1  0.91455500  0.72734500  0.18932200  1
  H  1060  1  0.91355600  0.76338900  0.24992700  1
  H  1061  1  0.91534800  0.73907800  0.22122200  1
  H  1062  1  0.90858100  0.79518100  0.26936100  1
  H  1063  1  0.90919900  0.82712500  0.24714700  1
  H  1065  1  0.90974100  0.75526600  0.15451300  1
  H  1066  1  0.92422500  0.77366000  0.16860100  1
  H  1067  1  0.89701000  0.77351200  0.17089100  1
  H  1070  1  0.88657400  0.82286100  0.27946000  1
  H  1071  1  0.91390500  0.72846900  0.15019200  1
  H  1078  1  0.91465700  0.46151800  0.27153700  1
  H  1087  1  0.91363900  0.48605700  0.23546200  1
  H  1088  1  0.91547300  0.48167800  0.25978400  1
  H  1089  1  0.90865200  0.47367400  0.20366000  1
  H  1090  1  0.90920400  0.41952900  0.17176200  1
  H  1092  1  0.90972800  0.39879600  0.24363800  1
  H  1093  1  0.92421900  0.39446400  0.22523800  1
  H  1094  1  0.89700800  0.39692900  0.22539000  1
  H  1097  1  0.88662100  0.45612200  0.17599100  1
  H  1098  1  0.91405800  0.42128000  0.27042400  1
  H  1105  1  0.91473200  0.80947900  0.53726500  1
  H  1114  1  0.91372900  0.74887600  0.51280100  1
  H  1115  1  0.91556700  0.77756100  0.51714300  1
  H  1116  1  0.90864500  0.72948600  0.52520300  1
  H  1117  1  0.90900800  0.75179600  0.57936600  1
  H  1119  1  0.90941100  0.84437000  0.59993600  1
  H  1120  1  0.92399700  0.83040100  0.60435400  1
  H  1121  1  0.89679800  0.82797600  0.60184900  1
  H  1124  1  0.88652500  0.71932400  0.54278200  1
  H  1125  1  0.91430600  0.84854500  0.57740800  1
  H  1132  1  0.41429500  0.27146300  0.80954400  1
  H  1141  1  0.41335000  0.23554600  0.74892500  1
  H  1142  1  0.41511500  0.25981600  0.77765800  1
  H  1143  1  0.40847200  0.20375000  0.72943800  1
  H  1144  1  0.40935200  0.17171500  0.75155000  1
  H  1146  1  0.40999100  0.24326600  0.84419900  1
  H  1147  1  0.42443800  0.22492800  0.82996500  1
  H  1148  1  0.39720800  0.22508600  0.82778400  1
  H  1151  1  0.38666500  0.17596100  0.71910400  1
  H  1152  1  0.41338600  0.26998700  0.84856000  1
  H  1159  1  0.41446200  0.53752100  0.72737000  1
  H  1168  1  0.41354400  0.51286900  0.76334600  1
  H  1169  1  0.41533100  0.51730300  0.73905600  1
  H  1170  1  0.40861800  0.52519100  0.79514300  1
  H  1171  1  0.40921600  0.57933100  0.82713800  1
  H  1173  1  0.40974500  0.60032200  0.75547500  1
  H  1174  1  0.42425300  0.60452400  0.77382100  1
  H  1175  1  0.39703700  0.60210500  0.77369000  1
  H  1178  1  0.38666900  0.54264100  0.82281700  1
  H  1179  1  0.41370100  0.57792300  0.72875900  1
  H  1186  1  0.41463800  0.18941100  0.46150300  1
  H  1195  1  0.41357500  0.25001300  0.48599100  1
  H  1196  1  0.41540100  0.22132500  0.48164200  1
  H  1197  1  0.40859600  0.26940900  0.47358500  1
  H  1198  1  0.40929500  0.24712900  0.41942700  1
  H  1200  1  0.40969200  0.15454500  0.39880300  1
  H  1201  1  0.42424900  0.16856200  0.39443600  1
  H  1202  1  0.39704000  0.17092700  0.39689000  1
  H  1205  1  0.38663100  0.27956800  0.45605100  1
  H  1206  1  0.41419000  0.15027500  0.42132600  1
  H  1213  1  0.99936500  0.53750000  0.80940000  1
  H  1222  1  0.00009400  0.51293000  0.74877200  1
  H  1223  1  0.99844700  0.51731300  0.77748200  1
  H  1224  1  0.00489200  0.52530700  0.72934700  1
  H  1225  1  0.00426400  0.57946700  0.75158700  1
  H  1227  1  0.00362000  0.60043300  0.84413400  1
  H  1228  1  0.98906800  0.60445000  0.82989400  1
  H  1229  1  0.01630100  0.60220100  0.82769300  1
  H  1232  1  0.02649500  0.54238400  0.71882300  1
  H  1233  1  0.00034900  0.57818400  0.84847800  1
  H  1240  1  0.99865600  0.18963800  0.72718400  1
  H  1249  1  0.99949300  0.25023000  0.76359400  1
  H  1250  1  0.99772400  0.22159800  0.73915400  1
  H  1251  1  0.00463200  0.26951200  0.79538900  1
  H  1252  1  0.00498200  0.24695400  0.82701700  1
  H  1254  1  0.00466200  0.15452000  0.75470300  1
  H  1255  1  0.98995600  0.16835000  0.77307200  1
  H  1256  1  0.01713300  0.17092800  0.77307400  1
  H  1259  1  0.02674400  0.27977200  0.82287500  1
  H  1260  1  0.99897300  0.15047800  0.72820000  1
  H  1267  1  0.99910900  0.27158300  0.46155900  1
  H  1276  1  0.00000000  0.23534900  0.48592900  1
  H  1277  1  0.99829100  0.25973600  0.48165000  1
  H  1278  1  0.00493400  0.20354300  0.47345700  1
  H  1279  1  0.00430200  0.17176000  0.41927400  1
  H  1281  1  0.00389000  0.24370500  0.39875200  1
  H  1282  1  0.98922700  0.22541900  0.39451600  1
  H  1283  1  0.01644100  0.22539400  0.39686300  1
  H  1286  1  0.02666900  0.17597600  0.45623800  1
  H  1287  1  0.99972800  0.27032300  0.42112100  1
  H  1294  1  0.49900700  0.46164700  0.18945200  1
  H  1303  1  0.49988700  0.48600400  0.25006400  1
  H  1304  1  0.49814900  0.48173600  0.22140100  1
  H  1305  1  0.50481800  0.47351400  0.26939100  1
  H  1306  1  0.50426900  0.41934500  0.24696900  1
  H  1308  1  0.50390700  0.39885100  0.15451500  1
  H  1309  1  0.48924500  0.39458700  0.16854600  1
  H  1310  1  0.51645500  0.39696500  0.17094100  1
  H  1313  1  0.52658200  0.45631600  0.27975600  1
  H  1314  1  0.49962900  0.42122600  0.15028000  1
  H  1321  1  0.49887100  0.80938000  0.27155700  1
  H  1330  1  0.49969700  0.74877300  0.23528000  1
  H  1331  1  0.49796700  0.77743300  0.25967700  1
  H  1332  1  0.50473100  0.72944600  0.20348100  1
  H  1333  1  0.50454400  0.75188700  0.17174000  1
  H  1335  1  0.50430900  0.84434400  0.24379400  1
  H  1336  1  0.48955400  0.83042300  0.22550400  1
  H  1337  1  0.51674500  0.82789600  0.22543000  1
  H  1340  1  0.52664100  0.71905400  0.17588800  1
  H  1341  1  0.49930100  0.84847200  0.27033200  1
  H  1348  1  0.49932400  0.72744600  0.53741700  1
  H  1357  1  0.50011300  0.76352700  0.51287600  1
  H  1358  1  0.49845100  0.73919200  0.51724200  1
  H  1359  1  0.50493100  0.79533300  0.52527000  1
  H  1360  1  0.50420400  0.82723400  0.57944300  1
  H  1362  1  0.50370600  0.75559400  0.60032300  1
  H  1363  1  0.48910700  0.77384600  0.60438700  1
  H  1364  1  0.51633200  0.77382900  0.60210200  1
  H  1367  1  0.52650500  0.82297900  0.54236200  1
  H  1368  1  0.50018200  0.72902300  0.57804400  1
  H  1375  1  0.65098500  0.63372400  0.07852400  1
  H  1384  1  0.71685400  0.62036400  0.09046200  1
  H  1385  1  0.68030400  0.62247900  0.08766700  1
  H  1386  1  0.75243100  0.62834100  0.08667900  1
  H  1387  1  0.76078100  0.65354900  0.05795500  1
  H  1389  1  0.65043400  0.65473900  0.03699900  1
  H  1390  1  0.67568800  0.66337300  0.04040100  1
  H  1391  1  0.65643400  0.67446600  0.05610700  1
  H  1394  1  0.78022100  0.65013900  0.09285400  1
  H  1395  1  0.62964300  0.66316400  0.06581100  1
  H  1402  1  0.65092800  0.44429800  0.36523200  1
  H  1411  1  0.71678900  0.46959100  0.37855200  1
  H  1412  1  0.68024200  0.46468400  0.37648100  1
  H  1413  1  0.75235600  0.45782100  0.37045600  1
  H  1414  1  0.76067900  0.40387300  0.34522800  1
  H  1416  1  0.65038300  0.38172100  0.34406700  1
  H  1417  1  0.67564000  0.37651300  0.33543600  1
  H  1418  1  0.65639200  0.38117400  0.32437600  1
  H  1421  1  0.77998700  0.44205300  0.34839800  1
  H  1422  1  0.62952200  0.40215200  0.33575300  1
  H  1429  1  0.65106100  0.92013300  0.55455000  1
  H  1438  1  0.71688600  0.90832100  0.52922200  1
  H  1439  1  0.68033900  0.91103300  0.53415400  1
  H  1440  1  0.75245300  0.91220400  0.54095600  1
  H  1441  1  0.76085200  0.94102400  0.59488800  1
  H  1442  1  0.65658400  0.94277000  0.61773900  1
  H  1445  1  0.78038800  0.90612800  0.55640400  1
  H  1446  1  0.62984500  0.93276300  0.59668500  1
  H  1453  1  0.15099300  0.36507500  0.92016900  1
  H  1462  1  0.21684100  0.37848400  0.90824700  1
  H  1463  1  0.18029600  0.37628300  0.91097800  1
  H  1464  1  0.25244200  0.37063900  0.91213800  1
  H  1465  1  0.26082700  0.34548200  0.94091900  1
  H  1467  1  0.15050400  0.34417900  0.96178700  1
  H  1468  1  0.17573500  0.33549500  0.95834300  1
  H  1469  1  0.15642300  0.32441500  0.94269400  1
  H  1472  1  0.28051900  0.34923700  0.90614100  1
  H  1473  1  0.12959600  0.33573600  0.93302500  1
  H  1480  1  0.15090100  0.55461400  0.63361400  1
  H  1489  1  0.21676300  0.52932800  0.62032600  1
  H  1490  1  0.18021500  0.53423200  0.62239000  1
  H  1491  1  0.25233200  0.54110000  0.62839600  1
  H  1492  1  0.26064500  0.59505700  0.65359100  1
  H  1494  1  0.15034500  0.61717600  0.65471600  1
  H  1495  1  0.17559500  0.62239200  0.66335900  1
  H  1496  1  0.15633600  0.61774200  0.67441800  1
  H  1499  1  0.28002500  0.55687400  0.65039900  1
  H  1500  1  0.12946700  0.59675700  0.66308600  1
  H  1507  1  0.15088900  0.07840500  0.44426600  1
  H  1516  1  0.21678300  0.09041600  0.46954100  1
  H  1517  1  0.18022900  0.08755500  0.46464700  1
  H  1518  1  0.25235300  0.08675400  0.45775500  1
  H  1519  1  0.26063500  0.05810500  0.40380900  1
  H  1521  1  0.15038000  0.03707200  0.38166600  1
  H  1522  1  0.17560800  0.04057800  0.37647300  1
  H  1523  1  0.15629100  0.05625400  0.38116400  1
  H  1526  1  0.28001200  0.09304900  0.44198000  1
  H  1527  1  0.12938500  0.06568000  0.40210300  1
  H  1534  1  0.26264400  0.55461900  0.91988100  1
  H  1543  1  0.19667500  0.52937600  0.90780900  1
  H  1544  1  0.23323200  0.53424100  0.91067000  1
  H  1545  1  0.16109200  0.54119500  0.91144900  1
  H  1546  1  0.15283300  0.59512300  0.94038200  1
  H  1548  1  0.26311400  0.61708900  0.96170400  1
  H  1549  1  0.23793800  0.62236800  0.95819400  1
  H  1550  1  0.25734700  0.61783500  0.94262600  1
  H  1553  1  0.13346200  0.55762000  0.90531900  1
  H  1554  1  0.28431700  0.59694500  0.93338500  1
  H  1561  1  0.26262700  0.07895400  0.63405700  1
  H  1570  1  0.19666500  0.09108000  0.62095200  1
  H  1571  1  0.23322200  0.08815200  0.62288200  1
  H  1572  1  0.16108600  0.08748600  0.62918400  1
  H  1573  1  0.15283700  0.05853100  0.65416100  1
  H  1575  1  0.26313400  0.03715800  0.65475100  1
  H  1576  1  0.23793900  0.04065300  0.66350500  1
  H  1577  1  0.25731300  0.05625700  0.67454000  1
  H  1580  1  0.13363200  0.09366500  0.65189900  1
  H  1581  1  0.28430900  0.06552500  0.66293400  1
  H  1588  1  0.26256200  0.36476600  0.44425000  1
  H  1597  1  0.19658500  0.37795500  0.46948000  1
  H  1598  1  0.23314400  0.37595500  0.46462300  1
  H  1599  1  0.16100300  0.36981800  0.45765500  1
  H  1600  1  0.15273800  0.34482300  0.40374500  1
  H  1602  1  0.26308500  0.34414700  0.38178200  1
  H  1603  1  0.23788600  0.33540400  0.37650200  1
  H  1604  1  0.25724600  0.32433500  0.38103800  1
  H  1607  1  0.13344000  0.34728400  0.44126200  1
  H  1608  1  0.28417300  0.33591100  0.40193900  1
  H  1615  1  0.76263900  0.44429600  0.07885400  1
  H  1624  1  0.69666500  0.46950500  0.09090900  1
  H  1625  1  0.73322300  0.46465900  0.08802600  1
  H  1626  1  0.66109800  0.45766600  0.08730400  1
  H  1627  1  0.65287100  0.40373800  0.05837200  1
  H  1629  1  0.76319700  0.38180500  0.03709300  1
  H  1630  1  0.73799200  0.37653000  0.04054500  1
  H  1631  1  0.75732800  0.38110400  0.05617800  1
  H  1634  1  0.63365200  0.44119500  0.09352100  1
  H  1635  1  0.78431100  0.40200700  0.06551300  1
  H  1642  1  0.76252800  0.91984200  0.36464000  1
  H  1651  1  0.69657100  0.90787600  0.37791100  1
  H  1652  1  0.73313000  0.91069500  0.37586600  1
  H  1653  1  0.66100600  0.91158400  0.36980600  1
  H  1654  1  0.65273000  0.94049300  0.34479700  1
  H  1655  1  0.75719200  0.94265300  0.32424600  1
  H  1658  1  0.63340500  0.90544100  0.34736800  1
  H  1659  1  0.78414800  0.93326200  0.33575700  1
  H  1666  1  0.76261300  0.63416100  0.55456700  1
  H  1675  1  0.69665100  0.62097100  0.52930200  1
  H  1676  1  0.73320800  0.62300700  0.53418100  1
  H  1677  1  0.66104900  0.62906600  0.54110200  1
  H  1678  1  0.65275500  0.65411100  0.59502200  1
  H  1680  1  0.76304300  0.65476700  0.61702900  1
  H  1681  1  0.73787600  0.66357800  0.62230200  1
  H  1682  1  0.75731300  0.67460400  0.61778800  1
  H  1685  1  0.63334000  0.65144700  0.55739100  1
  H  1686  1  0.78428000  0.66294600  0.59691200  1
  H  1693  1  0.92040800  0.64330900  0.03160000  1
  H  1702  1  0.97285800  0.60761900  0.99481800  1
  H  1703  1  0.94561600  0.61986300  0.01563800  1
  H  1704  1  0.99631500  0.60921500  0.97388700  1
  H  1705  1  0.99271500  0.65208100  0.96641100  1
  H  1707  1  0.91220700  0.70049200  0.03848100  1
  H  1708  1  0.91531600  0.69265700  0.01614800  1
  H  1709  1  0.93664600  0.70137000  0.03041300  1
  H  1712  1  0.02566500  0.61947600  0.95710900  1
  H  1713  1  0.89392400  0.68241300  0.04410800  1
  H  1720  1  0.92054000  0.38783500  0.35560500  1
  H  1729  1  0.97297000  0.38665000  0.39126600  1
  H  1730  1  0.94574800  0.39527100  0.37904200  1
  H  1731  1  0.99640900  0.36408400  0.38963200  1
  H  1732  1  0.99269900  0.31376200  0.34675400  1
  H  1734  1  0.91220000  0.33753000  0.29844000  1
  H  1735  1  0.91529600  0.32302400  0.30626600  1
  H  1736  1  0.93662800  0.32856000  0.29754300  1
  H  1739  1  0.02568200  0.33721800  0.37940600  1
  H  1740  1  0.89397700  0.36127200  0.31651800  1
  H  1748  1  0.97283600  0.00402000  0.61212600  1
  H  1749  1  0.99627300  0.02497000  0.63466000  1
  H  1750  1  0.99269200  0.03242900  0.68499600  1
  H  1752  1  0.02562500  0.04174400  0.66168900  1
  H  1759  1  0.42025300  0.35558000  0.96718400  1
  H  1768  1  0.47263100  0.39136400  0.00395900  1
  H  1769  1  0.44541400  0.37905800  0.98312600  1
  H  1770  1  0.49608800  0.38984000  0.02490900  1
  H  1771  1  0.49278900  0.34693600  0.03233800  1
  H  1773  1  0.41226300  0.29836400  0.96025000  1
  H  1774  1  0.41537400  0.30620400  0.98258400  1
  H  1775  1  0.43671200  0.29752200  0.96832500  1
  H  1778  1  0.52542900  0.37981600  0.04131900  1
  H  1779  1  0.39389000  0.31643900  0.95467200  1
  H  1786  1  0.42041600  0.61109600  0.64318500  1
  H  1795  1  0.47275300  0.61220500  0.60743000  1
  H  1796  1  0.44555100  0.60362700  0.61970400  1
  H  1797  1  0.49622400  0.63471200  0.60901600  1
  H  1798  1  0.49284300  0.68501100  0.65196000  1
  H  1800  1  0.41227600  0.66137400  0.70038800  1
  H  1801  1  0.41539300  0.67588800  0.69257300  1
  H  1802  1  0.43672200  0.67030500  0.70125800  1
  H  1805  1  0.52552400  0.66101400  0.61909800  1
  H  1806  1  0.39398800  0.63766700  0.68232600  1
  H  1813  1  0.42040400  0.03161100  0.38774800  1
  H  1815  1  0.44553600  0.01560200  0.39522300  1
  H  1817  1  0.41227900  0.03853200  0.33746700  1
  H  1818  1  0.41540100  0.01620400  0.32295200  1
  H  1819  1  0.43673000  0.03047500  0.32854400  1
  H  1821  1  0.39398000  0.04417700  0.36117300  1
  H  1828  1  0.99683700  0.35554800  0.96912300  1
  H  1837  1  0.94305900  0.39113400  0.00440700  1
  H  1838  1  0.97126200  0.37909800  0.98451900  1
  H  1839  1  0.91774400  0.38897600  0.02388800  1
  H  1840  1  0.91806900  0.34499400  0.02962500  1
  H  1842  1  0.00121800  0.29724500  0.95972600  1
  H  1843  1  0.99724500  0.30444300  0.98187200  1
  H  1844  1  0.97629700  0.29648800  0.96711400  1
  H  1847  1  0.88794100  0.38114700  0.03767900  1
  H  1848  1  0.02247700  0.31703600  0.95831600  1
  H  1855  1  0.99664900  0.61304800  0.64315400  1
  H  1864  1  0.94288000  0.61294800  0.60764000  1
  H  1865  1  0.97105800  0.60499600  0.61961500  1
  H  1866  1  0.91754800  0.63466300  0.60991200  1
  H  1867  1  0.91801100  0.68429600  0.65401500  1
  H  1869  1  0.00115700  0.66189100  0.70149100  1
  H  1870  1  0.99725500  0.67687100  0.69432400  1
  H  1871  1  0.97626800  0.67010000  0.70227100  1
  H  1874  1  0.88766100  0.65642500  0.61806700  1
  H  1875  1  0.02237600  0.64068900  0.68166200  1
  H  1882  1  0.99674200  0.02965400  0.38579600  1
  H  1884  1  0.97117600  0.01418900  0.39388600  1
  H  1886  1  0.00116900  0.03913200  0.33694800  1
  H  1887  1  0.99724500  0.01698600  0.32197300  1
  H  1888  1  0.97626800  0.03171500  0.32876100  1
  H  1890  1  0.02242900  0.04048500  0.35813700  1
  H  1897  1  0.49678400  0.64332500  0.02965900  1
  H  1906  1  0.44302800  0.60773700  0.99434500  1
  H  1907  1  0.47121800  0.61977200  0.01424600  1
  H  1908  1  0.41772600  0.60989900  0.97485800  1
  H  1909  1  0.41806200  0.65388800  0.96913400  1
  H  1911  1  0.50118600  0.70162800  0.03906000  1
  H  1912  1  0.49722600  0.69443200  0.01691400  1
  H  1913  1  0.47626900  0.70238500  0.03166100  1
  H  1916  1  0.38793400  0.61772900  0.96104800  1
  H  1917  1  0.52243100  0.68184100  0.04048400  1
  H  1924  1  0.49672200  0.38583600  0.35554900  1
  H  1933  1  0.44287500  0.38606400  0.39105000  1
  H  1934  1  0.47109900  0.39395200  0.37906500  1
  H  1935  1  0.41755900  0.36439100  0.38883500  1
  H  1936  1  0.41804600  0.31467000  0.34485300  1
  H  1938  1  0.50124500  0.33693600  0.29724900  1
  H  1939  1  0.49727700  0.32197800  0.30443500  1
  H  1940  1  0.47633300  0.32876300  0.29646100  1
  H  1943  1  0.38767900  0.34256700  0.38102100  1
  H  1944  1  0.52243100  0.35818400  0.31704100  1
  H  1952  1  0.44281900  0.00462600  0.61288200  1
  H  1953  1  0.41747600  0.02405900  0.63458200  1
  H  1954  1  0.41801700  0.02970300  0.68426200  1
  H  1956  1  0.38755400  0.03792100  0.65644600  1
  H  1963  1  0.86256600  0.59731900  0.11493400  1
  H  1972  1  0.87600100  0.53878100  0.09530100  1
  H  1973  1  0.87530700  0.56712000  0.09878100  1
  H  1974  1  0.86527100  0.51870000  0.10537300  1
  H  1975  1  0.83558800  0.53857900  0.15356600  1
  H  1977  1  0.83606100  0.63259200  0.17313300  1
  H  1978  1  0.84368900  0.61886100  0.18086600  1
  H  1979  1  0.81897000  0.61627800  0.17128600  1
  H  1982  1  0.84113000  0.50090800  0.11325400  1
  H  1983  1  0.83258100  0.63177300  0.14730400  1
  H  1990  1  0.86250600  0.51705300  0.40141700  1
  H  1999  1  0.87600500  0.55581100  0.45995100  1
  H  2000  1  0.87525400  0.53100500  0.43158300  1
  H  2001  1  0.86539000  0.58594600  0.48009100  1
  H  2002  1  0.83576100  0.61446100  0.46040900  1
  H  2004  1  0.83597600  0.54010800  0.36626600  1
  H  2005  1  0.84363800  0.56155800  0.38002400  1
  H  2006  1  0.81891100  0.55457100  0.38260700  1
  H  2009  1  0.84168800  0.61182500  0.49821100  1
  H  2010  1  0.83259800  0.51503500  0.36696200  1
  H  2017  1  0.86253400  0.88397500  0.48168700  1
  H  2026  1  0.87591400  0.90358100  0.44274800  1
  H  2027  1  0.87525300  0.90011900  0.46762100  1
  H  2028  1  0.86514900  0.89348200  0.41259100  1
  H  2029  1  0.83558500  0.84523000  0.38431200  1
  H  2031  1  0.83609400  0.82576000  0.45879400  1
  H  2032  1  0.84374700  0.81800500  0.43733100  1
  H  2033  1  0.81901900  0.82758000  0.44430000  1
  H  2036  1  0.84091200  0.88548700  0.38684300  1
  H  2037  1  0.83252400  0.85162300  0.48377300  1
  H  2044  1  0.36256300  0.40168100  0.88389400  1
  H  2053  1  0.37589900  0.46023700  0.90352000  1
  H  2054  1  0.37525700  0.43190000  0.90005100  1
  H  2055  1  0.36510300  0.48030300  0.89343000  1
  H  2056  1  0.33554500  0.46032600  0.84517700  1
  H  2058  1  0.33615400  0.36636200  0.82566700  1
  H  2059  1  0.34378000  0.38009400  0.81793400  1
  H  2060  1  0.31904700  0.38265700  0.82748700  1
  H  2063  1  0.34088400  0.49806100  0.88543200  1
  H  2064  1  0.33260100  0.36720700  0.85150300  1
  H  2071  1  0.36253500  0.48179900  0.59730100  1
  H  2080  1  0.37588500  0.44299300  0.53874600  1
  H  2081  1  0.37521400  0.46781300  0.56710500  1
  H  2082  1  0.36519600  0.41285700  0.51864200  1
  H  2083  1  0.33563900  0.38442000  0.53844600  1
  H  2085  1  0.33607400  0.45880300  0.63252500  1
  H  2086  1  0.34370600  0.43734300  0.61877300  1
  H  2087  1  0.31898200  0.44434500  0.61620300  1
  H  2090  1  0.34134600  0.38693300  0.50057900  1
  H  2091  1  0.33262400  0.48384700  0.63176500  1
  H  2098  1  0.36253400  0.11504400  0.51700200  1
  H  2107  1  0.37601000  0.09527300  0.55577300  1
  H  2108  1  0.37528500  0.09883600  0.53096800  1
  H  2109  1  0.36537400  0.10527000  0.58590600  1
  H  2110  1  0.33572100  0.15345700  0.61440100  1
  H  2112  1  0.33600600  0.17325000  0.54005400  1
  H  2113  1  0.34362400  0.18093600  0.56151200  1
  H  2114  1  0.31891000  0.17135300  0.55448800  1
  H  2117  1  0.34166900  0.11302200  0.61177600  1
  H  2118  1  0.33262400  0.14748300  0.51498200  1
  H  2125  1  0.05496200  0.48258500  0.88450400  1
  H  2134  1  0.03886000  0.44459300  0.90483100  1
  H  2135  1  0.04102500  0.46928600  0.90113700  1
  H  2136  1  0.04759800  0.41393400  0.89459500  1
  H  2137  1  0.07458500  0.38412000  0.84545300  1
  H  2139  1  0.07671200  0.45786300  0.82485400  1
  H  2140  1  0.06806500  0.43673800  0.81766100  1
  H  2141  1  0.09337600  0.44285900  0.82622100  1
  H  2144  1  0.07214500  0.38558500  0.88434100  1
  H  2145  1  0.08466900  0.48204400  0.85100500  1
  H  2152  1  0.05491300  0.11429300  0.59733600  1
  H  2161  1  0.03895500  0.09403400  0.53899700  1
  H  2162  1  0.04104000  0.09768000  0.56737100  1
  H  2163  1  0.04775400  0.10433800  0.51862400  1
  H  2164  1  0.07465000  0.15353300  0.53812200  1
  H  2166  1  0.07667700  0.17392500  0.63235500  1
  H  2167  1  0.06802400  0.18117200  0.61846500  1
  H  2168  1  0.09332000  0.17257400  0.61598000  1
  H  2171  1  0.07253600  0.11482000  0.50071000  1
  H  2172  1  0.08473700  0.14768400  0.63023100  1
  H  2179  1  0.05484000  0.40155500  0.51632200  1
  H  2188  1  0.03884800  0.45988300  0.55443900  1
  H  2189  1  0.04094600  0.43151800  0.52970000  1
  H  2190  1  0.04766900  0.48025100  0.58511400  1
  H  2191  1  0.07470500  0.46076000  0.61476500  1
  H  2193  1  0.07665200  0.36652200  0.54091100  1
  H  2194  1  0.06803700  0.38042400  0.56205600  1
  H  2195  1  0.09332900  0.38287900  0.55591400  1
  H  2198  1  0.07246800  0.49807500  0.61328600  1
  H  2199  1  0.08464600  0.36860900  0.51678000  1
  H  2206  1  0.55485400  0.51639200  0.11425700  1
  H  2215  1  0.53891100  0.55447900  0.09400100  1
  H  2216  1  0.54100000  0.52975100  0.09764600  1
  H  2217  1  0.54772800  0.58515900  0.10430100  1
  H  2218  1  0.57469600  0.61483600  0.15347000  1
  H  2220  1  0.57667200  0.54101300  0.17388600  1
  H  2221  1  0.56805700  0.56215500  0.18111700  1
  H  2222  1  0.59334900  0.55601100  0.17252000  1
  H  2225  1  0.57254800  0.61355800  0.11478500  1
  H  2226  1  0.58460100  0.51684800  0.14769700  1
  H  2233  1  0.55487900  0.88452800  0.40130500  1
  H  2242  1  0.53867800  0.90487200  0.45958800  1
  H  2243  1  0.54088300  0.90114800  0.43119200  1
  H  2244  1  0.54738000  0.89470000  0.48003500  1
  H  2245  1  0.57458000  0.84566000  0.46087400  1
  H  2247  1  0.57676800  0.82490200  0.36642900  1
  H  2248  1  0.56818400  0.81771800  0.38038600  1
  H  2249  1  0.59345400  0.82634900  0.38282200  1
  H  2252  1  0.57172000  0.88486300  0.49815400  1
  H  2253  1  0.58458900  0.85103300  0.36833300  1
  H  2260  1  0.55486500  0.59743600  0.48249400  1
  H  2269  1  0.53878400  0.53912400  0.44446300  1
  H  2270  1  0.54092900  0.56750400  0.46916900  1
  H  2271  1  0.54756100  0.51871500  0.41380900  1
  H  2272  1  0.57465700  0.53806400  0.38405500  1
  H  2274  1  0.57665400  0.63239800  0.45781600  1
  H  2275  1  0.56807700  0.61845000  0.43667200  1
  H  2276  1  0.59336800  0.61604500  0.44285300  1
  H  2279  1  0.57217300  0.50078800  0.38573200  1
  H  2280  1  0.58455500  0.63044700  0.48200300  1
  C  1  1  0.46702100  0.99779900  0.37783300  1
  C  2  1  0.94830200  0.99752900  0.37719600  1
  C  3  1  0.66230300  0.95207400  0.61422100  1
  C  6  1  0.75133100  0.95190400  0.33703700  1
  C  9  1  0.91960700  0.96633900  0.63422200  1
  C  10  1  0.92812100  0.97470700  0.65125500  1
  C  12  1  0.95083100  0.99216500  0.64480900  1
  C  13  1  0.94292000  0.98425800  0.62773000  1
  C  14  1  0.92697700  0.97191800  0.62291700  1
  C  16  1  0.95104600  0.98884800  0.61594100  1
  C  18  1  0.92261000  0.97125600  0.66534500  1
  C  22  1  0.90378600  0.95400500  0.62885500  1
  C  24  1  0.46649900  0.99388300  0.34865200  1
  C  25  1  0.48853200  0.97264100  0.32653700  1
  C  26  1  0.49735100  0.96803200  0.33811100  1
  C  27  1  0.49039100  0.97702100  0.35543700  1
  C  29  1  0.47475200  0.98965600  0.36080500  1
  C  33  1  0.51117700  0.95448600  0.33331300  1
  C  35  1  0.94714200  0.99466000  0.34846300  1
  C  36  1  0.92333500  0.97471000  0.32703600  1
  C  37  1  0.91486000  0.96998900  0.33864100  1
  C  38  1  0.92319300  0.97807900  0.35555300  1
  C  40  1  0.93947600  0.99013700  0.36056200  1
  C  44  1  0.89974200  0.95740200  0.33443900  1
  C  46  1  0.49558300  0.96706500  0.63548000  1
  C  47  1  0.48577100  0.97454200  0.65200000  1
  C  49  1  0.46325200  0.99194300  0.64536100  1
  C  50  1  0.47237100  0.98487100  0.62874100  1
  C  51  1  0.48897100  0.97311800  0.62436100  1
  C  53  1  0.46479200  0.98980100  0.61704500  1
  C  55  1  0.49055400  0.97060700  0.66588600  1
  C  59  1  0.51265600  0.95599500  0.63119400  1
  C  61  1  0.87966100  0.66457200  0.09154600  1
  C  62  1  0.89238800  0.65103500  0.08955200  1
  C  63  1  0.88507200  0.64495900  0.10014900  1
  C  64  1  0.86763200  0.65459600  0.10911800  1
  C  65  1  0.85689300  0.65019400  0.12016500  1
  C  66  1  0.86370000  0.63611800  0.12202600  1
  C  67  1  0.88154400  0.62684200  0.11307700  1
  C  68  1  0.89222400  0.63111700  0.10201500  1
  C  69  1  0.90899700  0.64520700  0.07781400  1
  C  70  1  0.91227100  0.65268800  0.06740200  1
  C  71  1  0.89880300  0.66557500  0.06830800  1
  C  72  1  0.88275000  0.67179700  0.08078500  1
  C  73  1  0.84225500  0.66953100  0.09910100  1
  C  74  1  0.83489600  0.68650300  0.10861600  1
  C  75  1  0.84875900  0.69642900  0.12150300  1
  C  76  1  0.86606400  0.68646200  0.12025800  1
  C  77  1  0.84625000  0.71353500  0.13488100  1
  C  78  1  0.86171400  0.72091800  0.14740300  1
  C  79  1  0.87966600  0.71151900  0.14652100  1
  C  80  1  0.88191300  0.69415600  0.13289200  1
  C  81  1  0.82924400  0.65680500  0.08625000  1
  C  82  1  0.80937600  0.66159200  0.08321500  1
  C  83  1  0.80326100  0.67913200  0.09231800  1
  C  84  1  0.81579100  0.69164100  0.10523900  1
  C  97  1  0.86364500  0.66861900  0.10505000  1
  C  102  1  0.87971900  0.42650500  0.33431200  1
  C  103  1  0.89242900  0.43806800  0.34785000  1
  C  104  1  0.88510700  0.45473300  0.35389400  1
  C  105  1  0.86767500  0.45404100  0.34423800  1
  C  106  1  0.85693100  0.46947900  0.34860600  1
  C  107  1  0.86372100  0.48543000  0.36267000  1
  C  108  1  0.88156100  0.48578200  0.37196300  1
  C  109  1  0.89224600  0.47045600  0.36772100  1
  C  110  1  0.90902700  0.43218300  0.35371400  1
  C  111  1  0.91232300  0.41429600  0.34625200  1
  C  112  1  0.89889000  0.40229200  0.33334700  1
  C  113  1  0.88282900  0.40852300  0.32710600  1
  C  114  1  0.84231100  0.42908100  0.32931800  1
  C  115  1  0.83498500  0.42157700  0.31233200  1
  C  116  1  0.84886300  0.42451200  0.30240100  1
  C  117  1  0.86613900  0.43327900  0.31238200  1
  C  118  1  0.84636800  0.42076200  0.28528500  1
  C  119  1  0.86182400  0.42591000  0.27790600  1
  C  120  1  0.87975100  0.43446500  0.28731900  1
  C  121  1  0.88198600  0.43822500  0.30469200  1
  C  122  1  0.82926300  0.42901100  0.34205400  1
  C  123  1  0.80936800  0.42124000  0.33726400  1
  C  124  1  0.80331500  0.41270400  0.31970800  1
  C  125  1  0.81588200  0.41306200  0.30719200  1
  C  138  1  0.86370400  0.43593800  0.33023300  1
  C  143  1  0.87961300  0.90729200  0.57236200  1
  C  144  1  0.89235100  0.90927900  0.56082000  1
  C  145  1  0.88502300  0.89869900  0.54414800  1
  C  146  1  0.86758700  0.88972200  0.54480800  1
  C  147  1  0.85684700  0.87868800  0.52935300  1
  C  148  1  0.86364600  0.87685400  0.51342300  1
  C  149  1  0.88148600  0.88581200  0.51310800  1
  C  150  1  0.89216700  0.89685900  0.52844900  1
  C  151  1  0.90893000  0.92104500  0.56673300  1
  C  152  1  0.91221000  0.93144900  0.58462500  1
  C  153  1  0.89875600  0.93053200  0.59660900  1
  C  154  1  0.88269900  0.91805600  0.59034900  1
  C  155  1  0.84220900  0.89971100  0.56975500  1
  C  156  1  0.83484900  0.89017800  0.57719200  1
  C  157  1  0.84874300  0.87732100  0.57426100  1
  C  158  1  0.86603900  0.87857300  0.56553400  1
  C  159  1  0.84628200  0.86396600  0.57803000  1
  C  160  1  0.86177500  0.85147200  0.57291900  1
  C  161  1  0.87970900  0.85235300  0.56438300  1
  C  162  1  0.88191600  0.86596400  0.56061700  1
  C  163  1  0.82919300  0.91256700  0.56989100  1
  C  164  1  0.80930800  0.91556300  0.57767900  1
  C  165  1  0.80317900  0.90643500  0.58608300  1
  C  166  1  0.81571700  0.89351400  0.58566300  1
  C  179  1  0.86360500  0.89378000  0.56290000  1
  C  184  1  0.37955500  0.33436700  0.90726600  1
  C  185  1  0.39230200  0.34789800  0.90927200  1
  C  186  1  0.38497800  0.35401700  0.89871200  1
  C  187  1  0.36753100  0.34439700  0.88973800  1
  C  188  1  0.35681700  0.34880600  0.87868600  1
  C  189  1  0.36364400  0.36288600  0.87684000  1
  C  190  1  0.38148800  0.37215100  0.88579900  1
  C  191  1  0.39214900  0.36786000  0.89685800  1
  C  192  1  0.40889900  0.35371100  0.92102100  1
  C  193  1  0.41217200  0.34619500  0.93140100  1
  C  194  1  0.39870300  0.33333333  0.93050733  1
  C  195  1  0.38263900  0.32711300  0.91800200  1
  C  196  1  0.34215200  0.32939600  0.89968200  1
  C  197  1  0.33479300  0.31242900  0.89010200  1
  C  198  1  0.34869400  0.30253400  0.87723800  1
  C  199  1  0.36599100  0.31252400  0.87852400  1
  C  200  1  0.34623700  0.28542600  0.86384700  1
  C  201  1  0.36174700  0.27807100  0.85136600  1
  C  202  1  0.37968800  0.28749900  0.85228400  1
  C  203  1  0.38187600  0.30486500  0.86591900  1
  C  204  1  0.32913400  0.34208700  0.91256000  1
  C  205  1  0.30928800  0.33725700  0.91558700  1
  C  206  1  0.30316000  0.31972600  0.90640100  1
  C  207  1  0.31568700  0.30725900  0.89343900  1
  C  220  1  0.36354600  0.33034400  0.89376300  1
  C  225  1  0.37969900  0.57239500  0.66446400  1
  C  226  1  0.39241700  0.56084300  0.65092400  1
  C  227  1  0.38506900  0.54417700  0.64483800  1
  C  228  1  0.36764400  0.54485300  0.65449100  1
  C  229  1  0.35691200  0.52940900  0.65011800  1
  C  230  1  0.36371900  0.51346500  0.63605500  1
  C  231  1  0.38156600  0.51312400  0.62677400  1
  C  232  1  0.39223900  0.52845800  0.63102500  1
  C  233  1  0.40899500  0.56674600  0.64505800  1
  C  234  1  0.41229400  0.58463700  0.65254800  1
  C  235  1  0.39883600  0.59662600  0.66543900  1
  C  236  1  0.38278200  0.59037900  0.67167000  1
  C  237  1  0.34228200  0.56981600  0.66944400  1
  C  238  1  0.33497000  0.57731600  0.68643300  1
  C  239  1  0.34886100  0.57437800  0.69635400  1
  C  240  1  0.36612100  0.56559500  0.68635900  1
  C  241  1  0.34639600  0.57815100  0.71347900  1
  C  242  1  0.36186400  0.57300500  0.72085000  1
  C  243  1  0.37977800  0.56442900  0.71142000  1
  C  244  1  0.38196000  0.56061800  0.69402900  1
  C  245  1  0.32921500  0.56989300  0.65672100  1
  C  246  1  0.30936300  0.57774100  0.66153800  1
  C  247  1  0.30332200  0.58625700  0.67909900  1
  C  248  1  0.31589000  0.58586600  0.69159800  1
  C  261  1  0.36367200  0.56294600  0.66851400  1
  C  266  1  0.37970500  0.09160900  0.42643500  1
  C  267  1  0.39242400  0.08963000  0.43799300  1
  C  268  1  0.38507800  0.10022100  0.45465800  1
  C  269  1  0.36765900  0.10920300  0.45397700  1
  C  270  1  0.35692200  0.12027100  0.46941900  1
  C  271  1  0.36372300  0.12215500  0.48536600  1
  C  272  1  0.38156700  0.11321500  0.48571100  1
  C  273  1  0.39224200  0.10212900  0.47037900  1
  C  274  1  0.40900400  0.07786200  0.43209500  1
  C  275  1  0.41228700  0.06743800  0.41420500  1
  C  276  1  0.39883600  0.06833900  0.40221100  1
  C  277  1  0.38278200  0.08081700  0.40845200  1
  C  278  1  0.34228800  0.09916500  0.42902200  1
  C  279  1  0.33495400  0.10864400  0.42151800  1
  C  280  1  0.34883900  0.12150000  0.42443200  1
  C  281  1  0.36611800  0.12029200  0.43320100  1
  C  282  1  0.34636200  0.13483900  0.42064200  1
  C  283  1  0.36181800  0.14736700  0.42578400  1
  C  284  1  0.37975200  0.14651000  0.43433300  1
  C  285  1  0.38196400  0.13292700  0.43813700  1
  C  286  1  0.32923300  0.08636900  0.42896600  1
  C  287  1  0.30937400  0.08332900  0.42113000  1
  C  288  1  0.30331300  0.09235900  0.41260600  1
  C  289  1  0.31586700  0.10524700  0.41297800  1
  C  302  1  0.36368100  0.10511100  0.43587700  1
  C  307  1  0.03222600  0.57056600  0.90718600  1
  C  308  1  0.02081600  0.55766100  0.90800700  1
  C  309  1  0.02955400  0.54168100  0.89721700  1
  C  310  1  0.04684300  0.54390000  0.88911800  1
  C  311  1  0.05878100  0.52920600  0.87801500  1
  C  312  1  0.05316700  0.51256600  0.87507800  1
  C  313  1  0.03504700  0.51074800  0.88284200  1
  C  314  1  0.02333000  0.52530100  0.89414300  1
  C  315  1  0.00362100  0.56147600  0.91888200  1
  C  316  1  0.99781600  0.57875500  0.92932100  1
  C  317  1  0.00928300  0.59224800  0.92939800  1
  C  318  1  0.02658400  0.58814100  0.91817800  1
  C  319  1  0.07009900  0.57021900  0.90060300  1
  C  320  1  0.07706500  0.57818800  0.89145200  1
  C  321  1  0.06331000  0.57504200  0.87844000  1
  C  322  1  0.04649400  0.56555200  0.87914600  1
  C  323  1  0.06574500  0.57901300  0.86521700  1
  C  324  1  0.05063900  0.57345200  0.85237500  1
  C  325  1  0.03310200  0.56422400  0.85273800  1
  C  326  1  0.03102600  0.56012800  0.86613500  1
  C  327  1  0.08356200  0.56990000  0.91300200  1
  C  328  1  0.10337000  0.57785300  0.91602600  1
  C  329  1  0.10892900  0.58694400  0.90744700  1
  C  330  1  0.09601200  0.58695100  0.89493700  1
  C  343  1  0.04913800  0.56248600  0.89408500  1
  C  348  1  0.03217000  0.09171600  0.66278700  1
  C  349  1  0.02076100  0.09090700  0.64906600  1
  C  350  1  0.02948300  0.10172000  0.64390000  1
  C  351  1  0.04676600  0.10982500  0.65422700  1
  C  352  1  0.05872300  0.12090200  0.65060900  1
  C  353  1  0.05313600  0.12380300  0.63687500  1
  C  354  1  0.03502000  0.11603700  0.62729100  1
  C  355  1  0.02328100  0.10476500  0.63056900  1
  C  356  1  0.00356900  0.08002900  0.64199400  1
  C  357  1  0.99778900  0.06955300  0.64879700  1
  C  358  1  0.00924500  0.06947400  0.66221800  1
  C  359  1  0.02653600  0.08070300  0.66934700  1
  C  360  1  0.07003900  0.09829800  0.66901500  1
  C  361  1  0.07698600  0.10737400  0.68614300  1
  C  362  1  0.06320500  0.12034400  0.69606200  1
  C  363  1  0.04643200  0.11971800  0.68586100  1
  C  364  1  0.06566200  0.13354600  0.71326500  1
  C  365  1  0.05059100  0.14642100  0.72057300  1
  C  366  1  0.03308500  0.14611100  0.71098500  1
  C  367  1  0.03098100  0.13273800  0.69348200  1
  C  368  1  0.08353300  0.08597100  0.65626700  1
  C  369  1  0.10332500  0.08288800  0.66117200  1
  C  370  1  0.10885000  0.09136700  0.67884900  1
  C  371  1  0.09593600  0.10385600  0.69139000  1
  C  384  1  0.04907400  0.10482800  0.66782700  1
  C  389  1  0.03218800  0.33612700  0.42825700  1
  C  390  1  0.02078100  0.34987100  0.44114100  1
  C  391  1  0.02948400  0.35505500  0.45713300  1
  C  392  1  0.04676700  0.34473600  0.45493400  1
  C  393  1  0.05869900  0.34834900  0.46963900  1
  C  394  1  0.05308700  0.36207400  0.48626900  1
  C  395  1  0.03497600  0.37165900  0.48806600  1
  C  396  1  0.02326500  0.36838700  0.47350300  1
  C  397  1  0.00359600  0.35691800  0.43729200  1
  C  398  1  0.99783500  0.35007300  0.42000200  1
  C  399  1  0.00929400  0.33662500  0.40653300  1
  C  400  1  0.02656800  0.32951600  0.41067500  1
  C  401  1  0.07005100  0.32991900  0.42863200  1
  C  402  1  0.07701500  0.31279600  0.42061700  1
  C  403  1  0.06328200  0.30291600  0.42376600  1
  C  404  1  0.04646400  0.31310000  0.43326800  1
  C  405  1  0.06573400  0.28571800  0.41977700  1
  C  406  1  0.05064800  0.27841900  0.42533700  1
  C  407  1  0.03311200  0.28799700  0.43457400  1
  C  408  1  0.03100700  0.30549100  0.43867600  1
  C  409  1  0.08349500  0.34265600  0.42897200  1
  C  410  1  0.10330400  0.33775400  0.42101500  1
  C  411  1  0.10888800  0.32008900  0.41191800  1
  C  412  1  0.09599000  0.30755300  0.41189500  1
  C  425  1  0.04908700  0.33111400  0.43635300  1
  C  430  1  0.53221000  0.42830100  0.09163200  1
  C  431  1  0.52085000  0.44117600  0.09071700  1
  C  432  1  0.52954300  0.45717300  0.10151800  1
  C  433  1  0.54678900  0.45499500  0.10968600  1
  C  434  1  0.55869200  0.46971300  0.12079400  1
  C  435  1  0.55308200  0.48633200  0.12366800  1
  C  436  1  0.53500100  0.48810900  0.11583600  1
  C  437  1  0.52332100  0.47353300  0.10452900  1
  C  438  1  0.50369100  0.43732500  0.07979800  1
  C  439  1  0.49788300  0.42004100  0.06940800  1
  C  440  1  0.50926000  0.40657300  0.06946500  1
  C  441  1  0.52653100  0.41072000  0.08072000  1
  C  442  1  0.57007300  0.42870000  0.09823500  1
  C  443  1  0.57702600  0.42069200  0.10735300  1
  C  444  1  0.56327400  0.42382800  0.12036500  1
  C  445  1  0.54647700  0.43335100  0.11968800  1
  C  446  1  0.56570800  0.41983100  0.13356900  1
  C  447  1  0.55060700  0.42538400  0.14641700  1
  C  448  1  0.53308200  0.43462800  0.14606800  1
  C  449  1  0.53099500  0.43873800  0.13268100  1
  C  450  1  0.58354500  0.42906200  0.08586300  1
  C  451  1  0.60337900  0.42115700  0.08286900  1
  C  452  1  0.60892600  0.41201400  0.09139700  1
  C  453  1  0.59600900  0.41198200  0.10389300  1
  C  466  1  0.54910200  0.43641500  0.10474700  1
  C  471  1  0.53228400  0.90723600  0.33596800  1
  C  472  1  0.52092300  0.90816200  0.34976200  1
  C  473  1  0.52960200  0.89734300  0.35494500  1
  C  474  1  0.54683200  0.88915700  0.34458400  1
  C  475  1  0.55871900  0.87802300  0.34817000  1
  C  476  1  0.55310500  0.87513000  0.36190100  1
  C  477  1  0.53502600  0.88296900  0.37151400  1
  C  478  1  0.52337100  0.89431000  0.36827700  1
  C  479  1  0.50381100  0.91913500  0.35686200  1
  C  480  1  0.49802700  0.92953400  0.34996900  1
  C  481  1  0.50938700  0.92943300  0.33641400  1
  C  482  1  0.52662400  0.91814200  0.32928900  1
  C  483  1  0.57014000  0.90059600  0.32976100  1
  C  484  1  0.57710400  0.89149000  0.31263900  1
  C  485  1  0.56334100  0.87849000  0.30275200  1
  C  486  1  0.54652600  0.87917500  0.31294100  1
  C  487  1  0.56575100  0.86530500  0.28553900  1
  C  488  1  0.55063600  0.85247000  0.27823400  1
  C  489  1  0.53311000  0.85281500  0.28782400  1
  C  490  1  0.53103500  0.86619100  0.30532800  1
  C  491  1  0.58356500  0.91301300  0.34250100  1
  C  492  1  0.60339300  0.91603700  0.33760500  1
  C  493  1  0.60899800  0.90746000  0.31994700  1
  C  494  1  0.59610500  0.89494300  0.30740900  1
  C  507  1  0.54915500  0.89410400  0.33095200  1
  C  512  1  0.53230800  0.66282300  0.57058200  1
  C  513  1  0.52094200  0.64902300  0.55772600  1
  C  514  1  0.52962600  0.64381200  0.54172000  1
  C  515  1  0.54686900  0.65415700  0.54388300  1
  C  516  1  0.55874400  0.65056700  0.52915800  1
  C  517  1  0.55311300  0.63683700  0.51254000  1
  C  518  1  0.53503200  0.62723000  0.51077400  1
  C  519  1  0.52338100  0.63047800  0.52535900  1
  C  520  1  0.50381100  0.64195000  0.56160900  1
  C  521  1  0.49802600  0.64886500  0.57890300  1
  C  522  1  0.50939500  0.66242100  0.59234800  1
  C  523  1  0.52664200  0.66952500  0.58816800  1
  C  524  1  0.57016300  0.66902500  0.57016100  1
  C  525  1  0.57715000  0.68613700  0.57809400  1
  C  526  1  0.56338400  0.69600000  0.57495200  1
  C  527  1  0.54655900  0.68580400  0.56548100  1
  C  528  1  0.56581200  0.71319000  0.57891500  1
  C  529  1  0.55068400  0.72047300  0.57337400  1
  C  530  1  0.53312900  0.71088700  0.56417800  1
  C  531  1  0.53105500  0.69339700  0.56009400  1
  C  532  1  0.58361000  0.65630600  0.56985400  1
  C  533  1  0.60340400  0.66123100  0.57783200  1
  C  534  1  0.60900100  0.67889200  0.58687000  1
  C  535  1  0.59612300  0.69140100  0.58681900  1
  C  548  1  0.54918700  0.66781300  0.56245100  1
  C  553  1  0.03379700  0.33432700  0.90851400  1
  C  554  1  0.01889100  0.34660500  0.91080900  1
  C  555  1  0.02389500  0.35343800  0.90037800  1
  C  556  1  0.04194000  0.34560100  0.89095200  1
  C  557  1  0.05046900  0.35175500  0.88035900  1
  C  558  1  0.04058100  0.36550100  0.87939400  1
  C  559  1  0.02209000  0.37256800  0.88871600  1
  C  560  1  0.01378100  0.36678400  0.89937500  1
  C  561  1  0.00238900  0.35070400  0.92248100  1
  C  562  1  0.00136400  0.34277000  0.93263300  1
  C  563  1  0.01712400  0.33140900  0.93175600  1
  C  564  1  0.03298500  0.32679300  0.91918100  1
  C  565  1  0.07061400  0.33003500  0.89801500  1
  C  566  1  0.07762800  0.31315000  0.88706100  1
  C  567  1  0.06220800  0.30342200  0.87579400  1
  C  568  1  0.04464300  0.31368400  0.87887000  1
  C  569  1  0.06297100  0.28596800  0.86291400  1
  C  570  1  0.04564000  0.27870500  0.85243000  1
  C  571  1  0.02787600  0.28876700  0.85437800  1
  C  572  1  0.02709200  0.30620200  0.86805600  1
  C  573  1  0.08475100  0.34213700  0.91027600  1
  C  574  1  0.10524400  0.33689600  0.91137600  1
  C  575  1  0.11152800  0.31975000  0.89965900  1
  C  576  1  0.09781900  0.30775700  0.88760300  1
  C  589  1  0.04825000  0.33131000  0.89418300  1
  C  594  1  0.03369100  0.57363400  0.66443000  1
  C  595  1  0.01884800  0.56362300  0.65209700  1
  C  596  1  0.02389900  0.54636900  0.64526300  1
  C  597  1  0.04190200  0.54481200  0.65316700  1
  C  598  1  0.05047100  0.52808400  0.64704000  1
  C  599  1  0.04066500  0.51335400  0.63325200  1
  C  600  1  0.02223000  0.51557500  0.62609800  1
  C  601  1  0.01387200  0.53200000  0.63186600  1
  C  602  1  0.00236000  0.57116800  0.64794900  1
  C  603  1  0.00129900  0.58925200  0.65587300  1
  C  604  1  0.01699700  0.59976300  0.66729100  1
  C  605  1  0.03284100  0.59183300  0.67195900  1
  C  606  1  0.07050900  0.56747400  0.66877400  1
  C  607  1  0.07750600  0.57339700  0.68566400  1
  C  608  1  0.06207900  0.57182500  0.69536700  1
  C  609  1  0.04452700  0.56463900  0.68508800  1
  C  610  1  0.06282800  0.57636000  0.71281300  1
  C  611  1  0.04550300  0.57309000  0.72004100  1
  C  612  1  0.02774500  0.56499100  0.70996200  1
  C  613  1  0.02697600  0.56126800  0.69253900  1
  C  614  1  0.08465700  0.56764400  0.65668600  1
  C  615  1  0.10514700  0.57398400  0.66194000  1
  C  616  1  0.11141200  0.57941200  0.67909000  1
  C  617  1  0.09769300  0.57933900  0.69107200  1
  C  630  1  0.04815400  0.56234200  0.66747200  1
  C  635  1  0.03369900  0.09033000  0.42520800  1
  C  636  1  0.01882300  0.08801700  0.43520100  1
  C  637  1  0.02385600  0.09842600  0.45246000  1
  C  638  1  0.04188800  0.10786400  0.45404000  1
  C  639  1  0.05046000  0.11842200  0.47077700  1
  C  640  1  0.04061100  0.11936500  0.48549200  1
  C  641  1  0.02212700  0.11004000  0.48325000  1
  C  642  1  0.01378400  0.09940500  0.46681500  1
  C  643  1  0.00233600  0.07632600  0.42763600  1
  C  644  1  0.00130200  0.06616900  0.40955100  1
  C  645  1  0.01703300  0.06706800  0.39905900  1
  C  646  1  0.03287700  0.07966200  0.40700800  1
  C  647  1  0.07053100  0.10078900  0.43138900  1
  C  648  1  0.07754600  0.11172800  0.42543900  1
  C  649  1  0.06214900  0.12302700  0.42701700  1
  C  650  1  0.04458600  0.11997300  0.43422200  1
  C  651  1  0.06293900  0.13592100  0.42246200  1
  C  652  1  0.04563300  0.14643300  0.42571200  1
  C  653  1  0.02785600  0.14449200  0.43381900  1
  C  654  1  0.02705400  0.13081200  0.43757300  1
  C  655  1  0.08466000  0.08852400  0.43122800  1
  C  656  1  0.10514800  0.08740500  0.42487000  1
  C  657  1  0.11142600  0.09909300  0.41940200  1
  C  658  1  0.09772000  0.11114200  0.41945000  1
  C  671  1  0.04817400  0.10464600  0.43651700  1
  C  676  1  0.53371800  0.66455300  0.09028500  1
  C  677  1  0.51883900  0.65224800  0.08796700  1
  C  678  1  0.52385500  0.64540300  0.09838400  1
  C  679  1  0.54189100  0.65325400  0.10782000  1
  C  680  1  0.55045700  0.64707300  0.11837700  1
  C  681  1  0.54059800  0.63330400  0.11932000  1
  C  682  1  0.52210600  0.62623500  0.11000600  1
  C  683  1  0.51376600  0.63204100  0.09937500  1
  C  684  1  0.50233500  0.64814800  0.07629600  1
  C  685  1  0.50131000  0.65607900  0.06614100  1
  C  686  1  0.51704800  0.66746300  0.06703800  1
  C  687  1  0.53290100  0.67208900  0.07962000  1
  C  688  1  0.57054300  0.66883000  0.10075100  1
  C  689  1  0.57756300  0.68571300  0.11170800  1
  C  690  1  0.56216100  0.69543400  0.12299900  1
  C  691  1  0.54459300  0.68517700  0.11993100  1
  C  692  1  0.56294800  0.71288200  0.13589500  1
  C  693  1  0.54563700  0.72014400  0.14640100  1
  C  694  1  0.52785000  0.71009900  0.14444000  1
  C  695  1  0.52705400  0.69266600  0.13075900  1
  C  696  1  0.58467400  0.65673500  0.08847900  1
  C  697  1  0.60516200  0.66197000  0.08734700  1
  C  698  1  0.61144100  0.67911700  0.09907800  1
  C  699  1  0.59774400  0.69111100  0.11114400  1
  C  712  1  0.54818700  0.66755600  0.10460200  1
  C  717  1  0.53371600  0.42525100  0.33432100  1
  C  718  1  0.51888400  0.43526000  0.34666500  1
  C  719  1  0.52390600  0.45251700  0.35347200  1
  C  720  1  0.54191200  0.45407400  0.34557500  1
  C  721  1  0.55046600  0.47080400  0.35168300  1
  C  722  1  0.54065100  0.48553600  0.36545800  1
  C  723  1  0.52223600  0.48330900  0.37263600  1
  C  724  1  0.51388600  0.46688400  0.36687900  1
  C  725  1  0.50238400  0.42771000  0.35079600  1
  C  726  1  0.50132800  0.40962600  0.34286800  1
  C  727  1  0.51703000  0.39911700  0.33144900  1
  C  728  1  0.53287500  0.40705300  0.32679000  1
  C  729  1  0.57053400  0.43140800  0.33000300  1
  C  730  1  0.57753600  0.42545200  0.31311100  1
  C  731  1  0.56213800  0.42704500  0.30340000  1
  C  732  1  0.54457600  0.43424100  0.31366300  1
  C  733  1  0.56291700  0.42250300  0.28595500  1
  C  734  1  0.54560600  0.42576600  0.27870700  1
  C  735  1  0.52782700  0.43385300  0.28876000  1
  C  736  1  0.52703800  0.43760100  0.30619200  1
  C  737  1  0.58467100  0.43125200  0.34210400  1
  C  738  1  0.60515400  0.42487800  0.33686500  1
  C  739  1  0.61142700  0.41944800  0.31971400  1
  C  740  1  0.59772200  0.41949900  0.30771400  1
  C  753  1  0.54818100  0.43654400  0.33128400  1
  C  758  1  0.53375000  0.90859600  0.57366600  1
  C  759  1  0.51892700  0.91092400  0.56364600  1
  C  760  1  0.52395300  0.90046500  0.54639300  1
  C  761  1  0.54194600  0.89099500  0.54484100  1
  C  762  1  0.55048400  0.88034300  0.52810900  1
  C  763  1  0.54070900  0.87942300  0.51337900  1
  C  764  1  0.52229400  0.88882600  0.51560000  1
  C  765  1  0.51394800  0.89950600  0.53202300  1
  C  766  1  0.50243400  0.92261400  0.57118100  1
  C  767  1  0.50137100  0.93278800  0.58926200  1
  C  768  1  0.51705400  0.93188000  0.59978500  1
  C  769  1  0.53290100  0.91928100  0.59186300  1
  C  770  1  0.57056800  0.89807400  0.56749800  1
  C  771  1  0.57756300  0.88710300  0.57341600  1
  C  772  1  0.56214000  0.87582500  0.57184200  1
  C  773  1  0.54457200  0.87893900  0.56468800  1
  C  774  1  0.56290800  0.86289000  0.57634100  1
  C  775  1  0.54558600  0.85238700  0.57306600  1
  C  776  1  0.52780700  0.85439600  0.56500800  1
  C  777  1  0.52703000  0.86810500  0.56129700  1
  C  778  1  0.58472300  0.91032600  0.56766400  1
  C  779  1  0.60524400  0.91136400  0.57393700  1
  C  780  1  0.61149700  0.89963100  0.57935500  1
  C  781  1  0.59776500  0.88760000  0.57931100  1
  C  794  1  0.54820500  0.89425000  0.56237900  1
  C  799  1  0.88111600  0.42652600  0.09028300  1
  C  800  1  0.89370300  0.43801000  0.08806900  1
  C  801  1  0.88733200  0.45471300  0.09894300  1
  C  802  1  0.87025000  0.45480700  0.10863200  1
  C  803  1  0.86088900  0.47100200  0.12007700  1
  C  804  1  0.86912200  0.48648500  0.12154500  1
  C  805  1  0.88693600  0.48563200  0.11199800  1
  C  806  1  0.89599300  0.46981800  0.10052900  1
  C  807  1  0.91019700  0.43254600  0.07632600  1
  C  808  1  0.91417400  0.41489700  0.06637000  1
  C  809  1  0.90166800  0.40265500  0.06770400  1
  C  810  1  0.88515500  0.40850200  0.07989900  1
  C  811  1  0.84379800  0.43064400  0.10019500  1
  C  812  1  0.83710500  0.42424100  0.11083400  1
  C  813  1  0.85249100  0.42609200  0.12225300  1
  C  814  1  0.86970700  0.43395600  0.11960400  1
  C  815  1  0.85184400  0.42147700  0.13510700  1
  C  816  1  0.86894400  0.42525900  0.14593300  1
  C  817  1  0.88636900  0.43394200  0.14434100  1
  C  818  1  0.88702600  0.43784800  0.13075800  1
  C  819  1  0.82935700  0.43086800  0.08829600  1
  C  820  1  0.80890400  0.42441400  0.08719200  1
  C  821  1  0.80303000  0.41839600  0.09852800  1
  C  822  1  0.81700200  0.41811700  0.11025300  1
  C  835  1  0.86586300  0.43661800  0.10454600  1
  C  840  1  0.88113500  0.90860600  0.33563900  1
  C  841  1  0.89372900  0.91082400  0.34933600  1
  C  842  1  0.88736000  0.89994900  0.35516700  1
  C  843  1  0.87026400  0.89027000  0.34558400  1
  C  844  1  0.86090900  0.87882800  0.35033900  1
  C  845  1  0.86917600  0.87733100  0.36432900  1
  C  846  1  0.88697600  0.88689200  0.37303100  1
  C  847  1  0.89602700  0.89836400  0.36868500  1
  C  848  1  0.91022700  0.92256500  0.35560500  1
  C  849  1  0.91420300  0.93251600  0.34790600  1
  C  850  1  0.90168900  0.93117900  0.33433400  1
  C  851  1  0.88517200  0.91898700  0.32799600  1
  C  852  1  0.84382300  0.89869900  0.32982900  1
  C  853  1  0.83713900  0.88804000  0.31278800  1
  C  854  1  0.85253400  0.87663200  0.30322600  1
  C  855  1  0.86973900  0.87927600  0.31374700  1
  C  856  1  0.85189400  0.86378400  0.28575500  1
  C  857  1  0.86898800  0.85295200  0.27871800  1
  C  858  1  0.88639900  0.85452800  0.28899900  1
  C  859  1  0.88705800  0.86811900  0.30648500  1
  C  860  1  0.82935700  0.91058500  0.34193700  1
  C  861  1  0.80893500  0.91172500  0.33655600  1
  C  862  1  0.80307700  0.90036800  0.31920000  1
  C  863  1  0.81705700  0.88863500  0.30721500  1
  C  876  1  0.86588200  0.89434200  0.33146900  1
  C  881  1  0.88111000  0.66328300  0.57241700  1
  C  882  1  0.89379100  0.64966600  0.56093000  1
  C  883  1  0.88745300  0.64386900  0.54422300  1
  C  884  1  0.87029700  0.65339600  0.54412900  1
  C  885  1  0.86094300  0.64863800  0.52792900  1
  C  886  1  0.86928900  0.63471400  0.51243600  1
  C  887  1  0.88718600  0.62610700  0.51329600  1
  C  888  1  0.89620900  0.63043000  0.52911600  1
  C  889  1  0.91032400  0.64342100  0.56639300  1
  C  890  1  0.91427000  0.65108200  0.58404500  1
  C  891  1  0.90169000  0.66458800  0.59628500  1
  C  892  1  0.88512500  0.67089400  0.59044100  1
  C  893  1  0.84378900  0.66906000  0.56827900  1
  C  894  1  0.83706000  0.68608800  0.57464900  1
  C  895  1  0.85244700  0.69568500  0.57284700  1
  C  896  1  0.86968800  0.68519900  0.56500900  1
  C  897  1  0.85176500  0.71315300  0.57745900  1
  C  898  1  0.86885800  0.72022300  0.57370000  1
  C  899  1  0.88629400  0.70996800  0.56501700  1
  C  900  1  0.88700000  0.69248900  0.56113900  1
  C  901  1  0.82934900  0.65692100  0.56802500  1
  C  902  1  0.80890700  0.66226300  0.57450800  1
  C  903  1  0.80299900  0.67960500  0.58049700  1
  C  904  1  0.81695500  0.69161900  0.58077600  1
  C  917  1  0.86586200  0.66746400  0.56232600  1
  C  922  1  0.38109200  0.57234500  0.90851300  1
  C  923  1  0.39372500  0.56086100  0.91069000  1
  C  924  1  0.38735100  0.54415600  0.89982500  1
  C  925  1  0.37023800  0.54406100  0.89016300  1
  C  926  1  0.36086100  0.52786700  0.87874500  1
  C  927  1  0.36914500  0.51237900  0.87722900  1
  C  928  1  0.38697100  0.51323300  0.88676000  1
  C  929  1  0.39603200  0.52904900  0.89822400  1
  C  930  1  0.41025500  0.56632600  0.92239700  1
  C  931  1  0.41423900  0.58397600  0.93234100  1
  C  932  1  0.40170500  0.59621700  0.93103000  1
  C  933  1  0.38515100  0.59036800  0.91887200  1
  C  934  1  0.34377800  0.56823000  0.89860200  1
  C  935  1  0.33706800  0.57458800  0.88792900  1
  C  936  1  0.35246300  0.57275500  0.87652300  1
  C  937  1  0.36968500  0.56490800  0.87918800  1
  C  938  1  0.35182300  0.57736700  0.86366800  1
  C  939  1  0.36893500  0.57359500  0.85285200  1
  C  940  1  0.38635700  0.56492000  0.85445800  1
  C  941  1  0.38701700  0.56103200  0.86805100  1
  C  942  1  0.32934200  0.56801700  0.91050800  1
  C  943  1  0.30890900  0.57451400  0.91164400  1
  C  944  1  0.30301500  0.58049700  0.90028300  1
  C  945  1  0.31697500  0.58074000  0.88853000  1
  C  958  1  0.36584100  0.56225000  0.89425000  1
  C  963  1  0.38117100  0.09030800  0.66324300  1
  C  964  1  0.39383600  0.08818400  0.64962000  1
  C  965  1  0.38748000  0.09909100  0.64382500  1
  C  966  1  0.37032000  0.10870200  0.65335600  1
  C  967  1  0.36093600  0.12013000  0.64859300  1
  C  968  1  0.36926700  0.12170500  0.63466800  1
  C  969  1  0.38716700  0.11224600  0.62605500  1
  C  970  1  0.39621700  0.10076200  0.63038200  1
  C  971  1  0.41036500  0.07647400  0.64335800  1
  C  972  1  0.41430700  0.06645900  0.65099200  1
  C  973  1  0.40171800  0.06769300  0.66448000  1
  C  974  1  0.38515700  0.07984800  0.67080700  1
  C  975  1  0.34383600  0.10020600  0.66903300  1
  C  976  1  0.33711900  0.11086700  0.68606500  1
  C  977  1  0.35250500  0.12227700  0.69565000  1
  C  978  1  0.36973400  0.11962100  0.68514900  1
  C  979  1  0.35183700  0.13515100  0.71311200  1
  C  980  1  0.36893000  0.14598700  0.72016000  1
  C  981  1  0.38636500  0.14438400  0.70989300  1
  C  982  1  0.38704500  0.13078400  0.69241500  1
  C  983  1  0.32939100  0.08831900  0.65690100  1
  C  984  1  0.30894400  0.08719500  0.66224700  1
  C  985  1  0.30305000  0.09854900  0.67959300  1
  C  986  1  0.31702500  0.11026000  0.69161000  1
  C  999  1  0.36590100  0.10456500  0.66742100  1
  C  1004  1  0.38116000  0.33563900  0.42645900  1
  C  1005  1  0.39382200  0.34926600  0.43795800  1
  C  1006  1  0.38745600  0.35507300  0.45466000  1
  C  1007  1  0.37029100  0.34554800  0.45473800  1
  C  1008  1  0.36089200  0.35033200  0.47092800  1
  C  1009  1  0.36921900  0.36426200  0.48642600  1
  C  1010  1  0.38712600  0.37286700  0.48558300  1
  C  1011  1  0.39618900  0.36852200  0.46977300  1
  C  1012  1  0.41035700  0.35552100  0.43251100  1
  C  1013  1  0.41430300  0.34787900  0.41486200  1
  C  1014  1  0.40172800  0.33437800  0.40260800  1
  C  1015  1  0.38516200  0.32805700  0.40843500  1
  C  1016  1  0.34381900  0.32986600  0.43055000  1
  C  1017  1  0.33709700  0.31283500  0.42417500  1
  C  1018  1  0.35247400  0.30324900  0.42600700  1
  C  1019  1  0.36969900  0.31374600  0.43386900  1
  C  1020  1  0.35178800  0.28578700  0.42141500  1
  C  1021  1  0.36887300  0.27872800  0.42519400  1
  C  1022  1  0.38632300  0.28897800  0.43384900  1
  C  1023  1  0.38701100  0.30646300  0.43774600  1
  C  1024  1  0.32937700  0.34199600  0.43078900  1
  C  1025  1  0.30894700  0.33664900  0.42426400  1
  C  1026  1  0.30305800  0.31929900  0.41827500  1
  C  1027  1  0.31701200  0.30728900  0.41800400  1
  C  1040  1  0.36587800  0.33147500  0.43653900  1
  C  1045  1  0.91377400  0.74232600  0.17699200  1
  C  1046  1  0.91368800  0.75975900  0.18049700  1
  C  1048  1  0.91582700  0.77070100  0.21113500  1
  C  1049  1  0.91593100  0.75367500  0.20844100  1
  C  1050  1  0.91522500  0.73966400  0.19131800  1
  C  1052  1  0.91519200  0.78507400  0.22806600  1
  C  1053  1  0.91153800  0.81555700  0.24660300  1
  C  1054  1  0.90939600  0.81389900  0.26147800  1
  C  1055  1  0.91117900  0.79706200  0.25911300  1
  C  1057  1  0.91412800  0.78251700  0.24249700  1
  C  1058  1  0.91458300  0.76552900  0.23973000  1
  C  1059  1  0.91564700  0.75125700  0.22287900  1
  C  1064  1  0.91101600  0.76570000  0.16781200  1
  C  1068  1  0.90894700  0.72851100  0.16072400  1
  C  1069  1  0.89935500  0.82670100  0.27605600  1
  C  1072  1  0.91383000  0.43421100  0.25655600  1
  C  1073  1  0.91372000  0.42027300  0.23912900  1
  C  1075  1  0.91584700  0.43996100  0.22817800  1
  C  1076  1  0.91599700  0.45429900  0.24520100  1
  C  1077  1  0.91532300  0.45119700  0.25921800  1
  C  1079  1  0.91519400  0.44250900  0.21380000  1
  C  1080  1  0.91153900  0.43056000  0.18332500  1
  C  1081  1  0.90943300  0.44708100  0.18493900  1
  C  1082  1  0.91117200  0.46154000  0.20179500  1
  C  1084  1  0.91415400  0.45949400  0.21634800  1
  C  1085  1  0.91462400  0.47372100  0.23333200  1
  C  1086  1  0.91570200  0.47115100  0.24760800  1
  C  1091  1  0.91101700  0.40165100  0.23319900  1
  C  1095  1  0.90905000  0.43175200  0.27037300  1
  C  1096  1  0.89937800  0.44884800  0.17214500  1
  C  1099  1  0.91378100  0.82183600  0.56457200  1
  C  1100  1  0.91355300  0.81837100  0.57852400  1
  C  1102  1  0.91577000  0.78772800  0.55887900  1
  C  1103  1  0.91597900  0.79038900  0.54452600  1
  C  1104  1  0.91532900  0.80749900  0.54759900  1
  C  1106  1  0.91512400  0.77080800  0.55635000  1
  C  1107  1  0.91139600  0.75230800  0.56833000  1
  C  1108  1  0.90934200  0.73739600  0.55180300  1
  C  1109  1  0.91117100  0.73975500  0.53733200  1
  C  1111  1  0.91414500  0.75635400  0.53937200  1
  C  1112  1  0.91466800  0.75909200  0.52513300  1
  C  1113  1  0.91574800  0.77593000  0.52768200  1
  C  1118  1  0.91078600  0.83109500  0.59713000  1
  C  1122  1  0.90907900  0.83811100  0.56696100  1
  C  1123  1  0.89925900  0.72286200  0.55007600  1
  C  1126  1  0.41368900  0.25642800  0.82182500  1
  C  1127  1  0.41376500  0.23897100  0.81825900  1
  C  1129  1  0.41585700  0.22812300  0.78763700  1
  C  1130  1  0.41585800  0.24516600  0.79038000  1
  C  1131  1  0.41511800  0.25914200  0.80752400  1
  C  1133  1  0.41521800  0.21377700  0.77069200  1
  C  1134  1  0.41162800  0.18329600  0.75211100  1
  C  1135  1  0.40940100  0.18498400  0.73725800  1
  C  1136  1  0.41111900  0.20184200  0.73966300  1
  C  1138  1  0.41406600  0.21637200  0.75628900  1
  C  1139  1  0.41442700  0.23337900  0.75910300  1
  C  1140  1  0.41548600  0.24762800  0.77597000  1
  C  1145  1  0.41120400  0.23291000  0.83086200  1
  C  1149  1  0.40863300  0.27017600  0.83809400  1
  C  1150  1  0.39938800  0.17219800  0.72263800  1
  C  1153  1  0.41371100  0.56482800  0.74239600  1
  C  1154  1  0.41368400  0.57873900  0.75984100  1
  C  1156  1  0.41581200  0.55899200  0.77072100  1
  C  1157  1  0.41590500  0.54468100  0.75368500  1
  C  1158  1  0.41518900  0.54782600  0.73969600  1
  C  1160  1  0.41516700  0.55641300  0.78507900  1
  C  1161  1  0.41147600  0.56831800  0.81554600  1
  C  1162  1  0.40938900  0.55178200  0.81389400  1
  C  1163  1  0.41114900  0.53733200  0.79703200  1
  C  1165  1  0.41410200  0.53941800  0.78249800  1
  C  1166  1  0.41454300  0.52521100  0.76549900  1
  C  1167  1  0.41559400  0.52781500  0.75124200  1
  C  1172  1  0.41103000  0.59738600  0.76585800  1
  C  1176  1  0.40876400  0.56734000  0.72862900  1
  C  1177  1  0.39941300  0.54992300  0.82667900  1
  C  1180  1  0.41383100  0.17706900  0.43419000  1
  C  1181  1  0.41373500  0.18054100  0.42024400  1
  C  1183  1  0.41587500  0.21118200  0.43991400  1
  C  1184  1  0.41598700  0.20851200  0.45426200  1
  C  1185  1  0.41529500  0.19139700  0.45117400  1
  C  1187  1  0.41524000  0.22810300  0.44244800  1
  C  1188  1  0.41161400  0.24660700  0.43046500  1
  C  1189  1  0.40944200  0.26150300  0.44697700  1
  C  1190  1  0.41115600  0.25914100  0.46145900  1
  C  1192  1  0.41415800  0.24254800  0.45942600  1
  C  1193  1  0.41459500  0.23980400  0.47366100  1
  C  1194  1  0.41569400  0.22296400  0.47110900  1
  C  1199  1  0.41102800  0.16782900  0.40162800  1
  C  1203  1  0.40908600  0.16079700  0.43175300  1
  C  1204  1  0.39935300  0.27604400  0.44873200  1
  C  1207  1  0.00000000  0.56481600  0.82172700  1
  C  1208  1  0.99987200  0.57873700  0.81819700  1
  C  1210  1  0.99777400  0.55901100  0.78756600  1
  C  1211  1  0.99778300  0.54468900  0.79027400  1
  C  1212  1  0.99857000  0.54781700  0.80740600  1
  C  1214  1  0.99836700  0.55646900  0.77064200  1
  C  1215  1  0.00196200  0.56843300  0.75211600  1
  C  1216  1  0.00410500  0.55191100  0.73721800  1
  C  1217  1  0.00232600  0.53744000  0.73959900  1
  C  1219  1  0.99943900  0.53948900  0.75621100  1
  C  1220  1  0.99907300  0.52526400  0.75897500  1
  C  1221  1  0.99810500  0.52783600  0.77582900  1
  C  1226  1  0.00235600  0.59741600  0.83079300  1
  C  1230  1  0.00484700  0.56737900  0.83805300  1
  C  1231  1  0.01406100  0.55002300  0.72254700  1
  C  1234  1  0.99988100  0.17716300  0.74201100  1
  C  1235  1  0.00029700  0.18054400  0.75940200  1
  C  1237  1  0.99799200  0.21120900  0.77056200  1
  C  1238  1  0.99762600  0.20863800  0.75358200  1
  C  1239  1  0.99824700  0.19155700  0.73947900  1
  C  1241  1  0.99861500  0.22809200  0.78501300  1
  C  1242  1  0.00245700  0.24648400  0.81550500  1
  C  1243  1  0.00431900  0.26145900  0.81397400  1
  C  1244  1  0.00229200  0.25918200  0.79718600  1
  C  1246  1  0.99938200  0.24260600  0.78258000  1
  C  1247  1  0.99870700  0.23996500  0.76564200  1
  C  1248  1  0.99767200  0.22315800  0.75129600  1
  C  1253  1  0.00316700  0.16776600  0.76520300  1
  C  1257  1  0.00415600  0.16083600  0.72802200  1
  C  1258  1  0.01428500  0.27608000  0.82680300  1
  C  1261  1  0.99986400  0.25667600  0.43424200  1
  C  1262  1  0.99989300  0.23925200  0.42028100  1
  C  1264  1  0.99774000  0.22822600  0.43990500  1
  C  1265  1  0.99769200  0.24523100  0.45427000  1
  C  1266  1  0.99844400  0.25928100  0.45121300  1
  C  1268  1  0.99833400  0.21380500  0.44238600  1
  C  1269  1  0.00196400  0.18330200  0.43032800  1
  C  1270  1  0.00414400  0.18489500  0.44682900  1
  C  1271  1  0.00233000  0.20170700  0.46134600  1
  C  1273  1  0.99939700  0.21629400  0.45934700  1
  C  1274  1  0.99897300  0.23326000  0.47361000  1
  C  1275  1  0.99796100  0.24757800  0.47109900  1
  C  1280  1  0.00251000  0.23329700  0.40164200  1
  C  1284  1  0.00450100  0.27052600  0.43177700  1
  C  1285  1  0.01423600  0.17209400  0.44857400  1
  C  1288  1  0.49981600  0.43433500  0.17704900  1
  C  1289  1  0.49986700  0.42036500  0.18049900  1
  C  1291  1  0.49771200  0.43998200  0.21114700  1
  C  1292  1  0.49761700  0.45435300  0.20851400  1
  C  1293  1  0.49834600  0.45130200  0.19141100  1
  C  1295  1  0.49831600  0.44246000  0.22804700  1
  C  1296  1  0.50193600  0.43040300  0.24648800  1
  C  1297  1  0.50406500  0.44689500  0.26142700  1
  C  1298  1  0.50229900  0.46139600  0.25909600  1
  C  1300  1  0.49934600  0.45941600  0.24252100  1
  C  1301  1  0.49890800  0.47368500  0.23982700  1
  C  1302  1  0.49788900  0.47117900  0.22300100  1
  C  1307  1  0.50251700  0.40173200  0.16781100  1
  C  1311  1  0.50443000  0.43186800  0.16073100  1
  C  1312  1  0.51416500  0.44863700  0.27596200  1
  C  1315  1  0.49986100  0.82179200  0.25665900  1
  C  1316  1  0.50007400  0.81835500  0.23924600  1
  C  1318  1  0.49780900  0.78770600  0.22818800  1
  C  1319  1  0.49761400  0.79032900  0.24518800  1
  C  1320  1  0.49831000  0.80742800  0.25925300  1
  C  1322  1  0.49840900  0.77080700  0.21376400  1
  C  1323  1  0.50213400  0.75236600  0.18327000  1
  C  1324  1  0.50415300  0.73742600  0.18483900  1
  C  1325  1  0.50225600  0.73973900  0.20164900  1
  C  1327  1  0.49932700  0.75632300  0.21624000  1
  C  1328  1  0.49880000  0.75901400  0.23319900  1
  C  1329  1  0.49778600  0.77583800  0.24752100  1
  C  1334  1  0.50282200  0.83107100  0.23334900  1
  C  1338  1  0.50436600  0.83811300  0.27057500  1
  C  1339  1  0.51422300  0.72287200  0.17203600  1
  C  1342  1  0.49995100  0.74241900  0.56473600  1
  C  1343  1  0.49986400  0.75986700  0.57865700  1
  C  1345  1  0.49774300  0.77079100  0.55894900  1
  C  1346  1  0.49775800  0.75376500  0.54462000  1
  C  1347  1  0.49853700  0.73975600  0.54774000  1
  C  1349  1  0.49833600  0.78517700  0.55641300  1
  C  1350  1  0.50191300  0.81567300  0.56840100  1
  C  1351  1  0.50410700  0.81404200  0.55188100  1
  C  1352  1  0.50233200  0.79720400  0.53739500  1
  C  1354  1  0.49943300  0.78263900  0.53943700  1
  C  1355  1  0.49907400  0.76565200  0.52520700  1
  C  1356  1  0.49808000  0.75136600  0.52777000  1
  C  1361  1  0.50239700  0.76593100  0.59732700  1
  C  1365  1  0.50480200  0.72862900  0.56726000  1
  C  1366  1  0.51410300  0.82683400  0.55003800  1
  C  1369  1  0.65282900  0.64661400  0.06405100  1
  C  1370  1  0.66750600  0.65188900  0.05563600  1
  C  1372  1  0.69599100  0.64065000  0.06438400  1
  C  1373  1  0.68213700  0.63453700  0.07241200  1
  C  1374  1  0.66074400  0.63739900  0.07192200  1
  C  1376  1  0.71761300  0.63936200  0.06595800  1
  C  1377  1  0.75196400  0.64690600  0.06217700  1
  C  1378  1  0.76068600  0.64034100  0.07227400  1
  C  1379  1  0.74693500  0.63246700  0.07859700  1
  C  1381  1  0.72541500  0.63197600  0.07566900  1
  C  1382  1  0.71150700  0.62548900  0.08321000  1
  C  1383  1  0.69005800  0.62674000  0.08157700  1
  C  1388  1  0.66223200  0.66167500  0.04679200  1
  C  1392  1  0.63261300  0.65327500  0.06763700  1
  C  1393  1  0.77989200  0.64592700  0.08018500  1
  C  1396  1  0.65278800  0.41692600  0.35227500  1
  C  1397  1  0.66745800  0.40323700  0.34699400  1
  C  1399  1  0.69593200  0.42322700  0.35828200  1
  C  1400  1  0.68207700  0.43737100  0.36441400  1
  C  1401  1  0.66068600  0.43401600  0.36153100  1
  C  1403  1  0.71755400  0.42609100  0.35955700  1
  C  1404  1  0.75189600  0.41474500  0.35195300  1
  C  1405  1  0.76058800  0.43140200  0.35845800  1
  C  1406  1  0.74686500  0.44561600  0.36635500  1
  C  1408  1  0.72535600  0.44318700  0.36692900  1
  C  1409  1  0.71144700  0.45721500  0.37344400  1
  C  1410  1  0.68999700  0.45433500  0.37224100  1
  C  1415  1  0.66218500  0.38460900  0.33715800  1
  C  1419  1  0.63258400  0.41387000  0.34560200  1
  C  1420  1  0.77969500  0.43368000  0.35272100  1
  C  1423  1  0.65290400  0.93470500  0.58191100  1
  C  1424  1  0.66757500  0.94319600  0.59558900  1
  C  1426  1  0.69604800  0.93447300  0.57559000  1
  C  1427  1  0.68218800  0.92637200  0.56145700  1
  C  1428  1  0.66080200  0.92682200  0.56482000  1
  C  1430  1  0.71766900  0.93293400  0.57271400  1
  C  1431  1  0.75204800  0.93680800  0.58401900  1
  C  1432  1  0.76075100  0.92666500  0.56735600  1
  C  1433  1  0.74698600  0.92032400  0.55316500  1
  C  1435  1  0.72546000  0.92320600  0.55561700  1
  C  1436  1  0.71154400  0.91560000  0.54160000  1
  C  1437  1  0.69009900  0.91718300  0.54449400  1
  C  1443  1  0.63272600  0.93105400  0.58500200  1
  C  1444  1  0.77997400  0.91875700  0.56499200  1
  C  1447  1  0.15284200  0.35220300  0.93466200  1
  C  1448  1  0.16753400  0.34693600  0.94307300  1
  C  1450  1  0.19600800  0.35817300  0.93431400  1
  C  1451  1  0.18214700  0.36425000  0.92625500  1
  C  1452  1  0.16075700  0.36138900  0.92675700  1
  C  1454  1  0.21762800  0.35951500  0.93277700  1
  C  1455  1  0.25201200  0.35212800  0.93670200  1
  C  1456  1  0.26070000  0.35865200  0.92655200  1
  C  1457  1  0.24694700  0.36650400  0.92021200  1
  C  1459  1  0.22542100  0.36691900  0.92308000  1
  C  1460  1  0.21150200  0.37334900  0.91549300  1
  C  1461  1  0.19005700  0.37204600  0.91708600  1
  C  1466  1  0.16226600  0.33720200  0.95197200  1
  C  1470  1  0.13257000  0.34562300  0.93121000  1
  C  1471  1  0.27999400  0.35318200  0.91874500  1
  C  1474  1  0.15273000  0.58198400  0.64652900  1
  C  1475  1  0.16741500  0.59566800  0.65181600  1
  C  1477  1  0.19589800  0.57568600  0.64054500  1
  C  1478  1  0.18204600  0.56154300  0.63442900  1
  C  1479  1  0.16065300  0.56489800  0.63730900  1
  C  1481  1  0.21752000  0.57282600  0.63927800  1
  C  1482  1  0.25186100  0.58418300  0.64687900  1
  C  1483  1  0.26053800  0.56752400  0.64039400  1
  C  1484  1  0.24683600  0.55330200  0.63249300  1
  C  1486  1  0.22532400  0.55573100  0.63192100  1
  C  1487  1  0.21141900  0.54170000  0.62539700  1
  C  1488  1  0.18996900  0.54458100  0.62661700  1
  C  1493  1  0.16213900  0.61429600  0.66163600  1
  C  1497  1  0.13253300  0.58505900  0.65321600  1
  C  1498  1  0.27968100  0.56526500  0.64609900  1
  C  1501  1  0.15273200  0.06403300  0.41690000  1
  C  1502  1  0.16741000  0.05567900  0.40320300  1
  C  1504  1  0.19590100  0.06439400  0.42317900  1
  C  1505  1  0.18204900  0.07236400  0.43732900  1
  C  1506  1  0.16065200  0.07185300  0.43398300  1
  C  1508  1  0.21752300  0.06599400  0.42603400  1
  C  1509  1  0.25185900  0.06225000  0.41468500  1
  C  1510  1  0.26057700  0.07236600  0.43134200  1
  C  1511  1  0.24684700  0.07867400  0.44555000  1
  C  1513  1  0.22533300  0.07568700  0.44313000  1
  C  1514  1  0.21143300  0.08317400  0.45716300  1
  C  1515  1  0.18998100  0.08150000  0.45428900  1
  C  1520  1  0.16213900  0.04690500  0.38457400  1
  C  1524  1  0.13249900  0.06757300  0.41381800  1
  C  1525  1  0.27969700  0.08035400  0.43360300  1
  C  1528  1  0.26081600  0.58197300  0.93443300  1
  C  1529  1  0.24613400  0.59565600  0.94287700  1
  C  1531  1  0.21760400  0.57569500  0.93401300  1
  C  1532  1  0.23145700  0.56155000  0.92595900  1
  C  1533  1  0.25287500  0.56489000  0.92647500  1
  C  1535  1  0.19596500  0.57285900  0.93240200  1
  C  1536  1  0.16161000  0.58424100  0.93618800  1
  C  1537  1  0.15289300  0.56759500  0.92599400  1
  C  1538  1  0.16660100  0.55337600  0.91961800  1
  C  1540  1  0.18812600  0.55577700  0.92262600  1
  C  1541  1  0.20203200  0.54174500  0.91509500  1
  C  1542  1  0.22349300  0.54460300  0.91676900  1
  C  1547  1  0.25141600  0.61429000  0.95185300  1
  C  1551  1  0.28117300  0.58511500  0.93113700  1
  C  1552  1  0.13371700  0.56547900  0.91811000  1
  C  1555  1  0.26082300  0.06435800  0.64681300  1
  C  1556  1  0.24613500  0.05592500  0.65206100  1
  C  1558  1  0.21759700  0.06479000  0.64097200  1
  C  1559  1  0.23145300  0.07283600  0.63487100  1
  C  1560  1  0.25287200  0.07231400  0.63768900  1
  C  1562  1  0.19595900  0.06644400  0.63979600  1
  C  1563  1  0.16161500  0.06271700  0.64746500  1
  C  1564  1  0.15291100  0.07293900  0.64105100  1
  C  1565  1  0.16660300  0.07932600  0.63320300  1
  C  1567  1  0.18811900  0.07625500  0.63252800  1
  C  1568  1  0.20202300  0.08375600  0.62599200  1
  C  1569  1  0.22348400  0.08203200  0.62712100  1
  C  1574  1  0.25141200  0.04700000  0.66176800  1
  C  1578  1  0.28111200  0.06777600  0.65335600  1
  C  1579  1  0.13374300  0.08085000  0.64682100  1
  C  1582  1  0.26075000  0.35201900  0.41690400  1
  C  1583  1  0.24607400  0.34678800  0.40321500  1
  C  1585  1  0.21753100  0.35786300  0.42316800  1
  C  1586  1  0.23138200  0.36394900  0.43731600  1
  C  1587  1  0.25279900  0.36112200  0.43398200  1
  C  1589  1  0.19589100  0.35907600  0.42599500  1
  C  1590  1  0.16154200  0.35146000  0.41461900  1
  C  1591  1  0.15279100  0.35795800  0.43125700  1
  C  1592  1  0.16652200  0.36577700  0.44547200  1
  C  1594  1  0.18805000  0.36637500  0.44307500  1
  C  1595  1  0.20194700  0.37287600  0.45711100  1
  C  1596  1  0.22341000  0.37169500  0.45426000  1
  C  1601  1  0.25135500  0.33711800  0.38458200  1
  C  1605  1  0.28105600  0.34550300  0.41378200  1
  C  1606  1  0.13358900  0.35226700  0.43344700  1
  C  1609  1  0.76082600  0.41693900  0.06430500  1
  C  1610  1  0.74616200  0.40325000  0.05583800  1
  C  1612  1  0.71762100  0.42320000  0.06466900  1
  C  1613  1  0.73146700  0.43735100  0.07272300  1
  C  1614  1  0.75288300  0.43402000  0.07224400  1
  C  1616  1  0.69597900  0.42602400  0.06628900  1
  C  1617  1  0.66164100  0.41462200  0.06254800  1
  C  1618  1  0.65291400  0.43125400  0.07275000  1
  C  1619  1  0.66661500  0.44548700  0.07914400  1
  C  1621  1  0.68813300  0.44310200  0.07608600  1
  C  1622  1  0.70202900  0.45714100  0.08360200  1
  C  1623  1  0.72349100  0.45429700  0.08189700  1
  C  1628  1  0.75145300  0.38462000  0.04691400  1
  C  1632  1  0.78111900  0.41382100  0.06772300  1
  C  1633  1  0.63379100  0.43340100  0.08071400  1
  C  1636  1  0.76072000  0.93447500  0.35192600  1
  C  1637  1  0.74604700  0.94295400  0.34671900  1
  C  1639  1  0.71751100  0.93411100  0.35783300  1
  C  1640  1  0.73136300  0.92602600  0.36389400  1
  C  1641  1  0.75277900  0.92651400  0.36104600  1
  C  1643  1  0.69586900  0.93251200  0.35906500  1
  C  1644  1  0.66151300  0.93629700  0.35148000  1
  C  1645  1  0.65277200  0.92613200  0.35795500  1
  C  1646  1  0.66650400  0.91975500  0.36579300  1
  C  1648  1  0.68803300  0.92273300  0.36636600  1
  C  1649  1  0.70193300  0.91517700  0.37284600  1
  C  1650  1  0.72339400  0.91682500  0.37163700  1
  C  1656  1  0.78099900  0.93104300  0.34536600  1
  C  1657  1  0.63358100  0.91822300  0.35226300  1
  C  1660  1  0.76078900  0.64693400  0.58191400  1
  C  1661  1  0.74609200  0.65219100  0.59559500  1
  C  1663  1  0.71756200  0.64111900  0.57563000  1
  C  1664  1  0.73142200  0.63502900  0.56148800  1
  C  1665  1  0.75284000  0.63784000  0.56483400  1
  C  1667  1  0.69592300  0.63988400  0.57278800  1
  C  1668  1  0.66155100  0.64742800  0.58415100  1
  C  1669  1  0.65283900  0.64095300  0.56749900  1
  C  1670  1  0.66656600  0.63311700  0.55328800  1
  C  1672  1  0.68809300  0.63255600  0.55570200  1
  C  1673  1  0.70200400  0.62606600  0.54167400  1
  C  1674  1  0.72346400  0.62727100  0.54453900  1
  C  1679  1  0.75136300  0.66183300  0.61423000  1
  C  1683  1  0.78114700  0.65336400  0.58508000  1
  C  1684  1  0.63359200  0.64659300  0.56531300  1
  C  1687  1  0.91964400  0.66740000  0.03251100  1
  C  1688  1  0.92814200  0.67606000  0.02413100  1
  C  1690  1  0.95084600  0.65215200  0.00666800  1
  C  1691  1  0.94293400  0.64298000  0.01457200  1
  C  1692  1  0.92699700  0.65050900  0.02691600  1
  C  1694  1  0.96651300  0.64471400  0.99390200  1
  C  1695  1  0.98847500  0.64558200  0.97262100  1
  C  1696  1  0.99732300  0.62941200  0.96802000  1
  C  1697  1  0.99047200  0.62111100  0.97707600  1
  C  1699  1  0.97482200  0.62835900  0.98970400  1
  C  1700  1  0.96712400  0.61948000  0.99786500  1
  C  1701  1  0.95105300  0.62659800  0.00997700  1
  C  1706  1  0.92263500  0.69360200  0.02758700  1
  C  1710  1  0.90382800  0.67436800  0.04484700  1
  C  1711  1  0.01105100  0.62067900  0.95443300  1
  C  1714  1  0.91969000  0.36464000  0.33153000  1
  C  1715  1  0.92815800  0.34759000  0.32286000  1
  C  1717  1  0.95087700  0.35400100  0.34675100  1
  C  1718  1  0.94301100  0.37109200  0.35592600  1
  C  1719  1  0.92709000  0.37593500  0.34840700  1
  C  1721  1  0.96653100  0.34864900  0.35417800  1
  C  1722  1  0.98846400  0.32647200  0.35327500  1
  C  1723  1  0.99734900  0.33802200  0.36943700  1
  C  1724  1  0.99051500  0.35538500  0.37775400  1
  C  1726  1  0.97487000  0.36079100  0.37052600  1
  C  1727  1  0.96720500  0.37784100  0.37941500  1
  C  1728  1  0.95116400  0.38286800  0.37229900  1
  C  1733  1  0.92262700  0.33351200  0.30531900  1
  C  1737  1  0.90389700  0.37003500  0.32456700  1
  C  1738  1  0.01116700  0.33311800  0.37809000  1
  C  1741  1  0.96649400  0.00493500  0.65013600  1
  C  1742  1  0.98845000  0.02622100  0.67228700  1
  C  1743  1  0.99728300  0.03083600  0.66072400  1
  C  1744  1  0.99043600  0.02177600  0.64336600  1
  C  1746  1  0.97479800  0.00913800  0.63798200  1
  C  1747  1  0.96709700  0.00097900  0.62094200  1
  C  1751  1  0.01101400  0.04442200  0.66558200  1
  C  1753  1  0.41959900  0.33147200  0.96623400  1
  C  1754  1  0.42814900  0.32282000  0.97460500  1
  C  1756  1  0.45080400  0.34676600  0.99207800  1
  C  1757  1  0.44283600  0.35592800  0.98418000  1
  C  1758  1  0.42690400  0.34837500  0.97183400  1
  C  1760  1  0.46646300  0.35423800  0.00485100  1
  C  1761  1  0.48849300  0.35342200  0.02612800  1
  C  1762  1  0.49728200  0.36961000  0.03072000  1
  C  1763  1  0.49032900  0.37791200  0.02169500  1
  C  1765  1  0.47469400  0.37062000  0.00906200  1
  C  1766  1  0.46693800  0.37949000  0.00091000  1
  C  1767  1  0.45088900  0.37233200  0.98878500  1
  C  1772  1  0.42268500  0.30526900  0.97114800  1
  C  1776  1  0.40376400  0.32449200  0.95391500  1
  C  1777  1  0.51099500  0.37845200  0.04430700  1
  C  1780  1  0.41967100  0.63426900  0.66727900  1
  C  1781  1  0.42818900  0.65130300  0.67594700  1
  C  1783  1  0.45085600  0.64487100  0.65201800  1
  C  1784  1  0.44292700  0.62780000  0.64284400  1
  C  1785  1  0.42701100  0.62297700  0.65038400  1
  C  1787  1  0.46651100  0.65019800  0.64456700  1
  C  1788  1  0.48853500  0.67231800  0.64543800  1
  C  1789  1  0.49736200  0.66074400  0.62925900  1
  C  1790  1  0.49040900  0.64341600  0.62092500  1
  C  1792  1  0.47476800  0.63804700  0.62818700  1
  C  1793  1  0.46703900  0.62101800  0.61929900  1
  C  1794  1  0.45101100  0.61601600  0.62644600  1
  C  1799  1  0.42270300  0.66538200  0.69350000  1
  C  1803  1  0.40388000  0.62888900  0.67425800  1
  C  1804  1  0.51118800  0.66554500  0.62051200  1
  C  1807  1  0.41966500  0.03252700  0.36457100  1
  C  1808  1  0.42818600  0.02416100  0.34754000  1
  C  1810  1  0.45084400  0.00666300  0.35397600  1
  C  1811  1  0.44291200  0.01456100  0.37104700  1
  C  1812  1  0.42699700  0.02692400  0.37586600  1
  C  1814  1  0.45098800  0.00994300  0.38283000  1
  C  1816  1  0.42270800  0.02763800  0.33346200  1
  C  1820  1  0.40387500  0.04488800  0.36995000  1
  C  1822  1  0.99567600  0.33088100  0.96691400  1
  C  1823  1  0.98581100  0.32185700  0.97439000  1
  C  1825  1  0.96333100  0.34593500  0.99176300  1
  C  1826  1  0.97250200  0.35545800  0.98468300  1
  C  1827  1  0.98910600  0.34805500  0.97294300  1
  C  1829  1  0.94715600  0.35326200  0.00408500  1
  C  1830  1  0.92333400  0.35185300  0.02406700  1
  C  1831  1  0.91484800  0.36816000  0.02872400  1
  C  1832  1  0.92321200  0.37695000  0.02061500  1
  C  1834  1  0.93950100  0.36987700  0.00857000  1
  C  1835  1  0.94835700  0.37910200  0.00117200  1
  C  1836  1  0.96497300  0.37209000  0.98958600  1
  C  1841  1  0.99054400  0.30403200  0.97047100  1
  C  1845  1  0.01271700  0.32404800  0.95581600  1
  C  1846  1  0.89986400  0.37666700  0.04137000  1
  C  1849  1  0.99556400  0.63549200  0.66783400  1
  C  1850  1  0.98574500  0.65200900  0.67688900  1
  C  1852  1  0.96325600  0.64538800  0.65283700  1
  C  1853  1  0.97237500  0.62876900  0.64328400  1
  C  1854  1  0.98896100  0.62437900  0.65066100  1
  C  1856  1  0.94709700  0.65043800  0.64554700  1
  C  1857  1  0.92328900  0.67189000  0.64708400  1
  C  1858  1  0.91479400  0.66031100  0.63075800  1
  C  1859  1  0.92310100  0.64338800  0.62191400  1
  C  1861  1  0.93939900  0.63835600  0.62893100  1
  C  1862  1  0.94821000  0.62171800  0.61967000  1
  C  1863  1  0.96480600  0.61708300  0.62665200  1
  C  1868  1  0.99051000  0.66588700  0.69471900  1
  C  1872  1  0.01260300  0.63119100  0.67464200  1
  C  1873  1  0.89958500  0.66454600  0.62246700  1
  C  1876  1  0.99560000  0.03190000  0.36335700  1
  C  1877  1  0.98576600  0.02442400  0.34684600  1
  C  1879  1  0.96330000  0.00700200  0.35349400  1
  C  1880  1  0.97244700  0.01406800  0.37010300  1
  C  1881  1  0.98903700  0.02582700  0.37447100  1
  C  1883  1  0.96491200  0.00912700  0.38180200  1
  C  1885  1  0.99051400  0.02836900  0.33296100  1
  C  1889  1  0.01265400  0.04298800  0.36764100  1
  C  1891  1  0.49563500  0.66799100  0.03186500  1
  C  1892  1  0.48578000  0.67701700  0.02438800  1
  C  1894  1  0.46330300  0.65293900  0.00700400  1
  C  1895  1  0.47246400  0.64341500  0.01408600  1
  C  1896  1  0.48906500  0.65081400  0.02582800  1
  C  1898  1  0.44713600  0.64561300  0.99467400  1
  C  1899  1  0.42332300  0.64702600  0.97468900  1
  C  1900  1  0.41483900  0.63071700  0.97002300  1
  C  1901  1  0.42320600  0.62191800  0.97812400  1
  C  1903  1  0.43947900  0.62899700  0.99018500  1
  C  1904  1  0.44832800  0.61976900  0.99758200  1
  C  1905  1  0.46493100  0.62678400  0.00918200  1
  C  1910  1  0.49051700  0.69484100  0.02830900  1
  C  1914  1  0.51266800  0.67482300  0.04297400  1
  C  1915  1  0.39986800  0.62220800  0.95736600  1
  C  1918  1  0.49563100  0.36337000  0.33088300  1
  C  1919  1  0.48579800  0.34685900  0.32184200  1
  C  1921  1  0.46327800  0.35353100  0.34589000  1
  C  1922  1  0.47241300  0.37014800  0.35542700  1
  C  1923  1  0.48902400  0.37450700  0.34805000  1
  C  1925  1  0.44709700  0.34851400  0.35319100  1
  C  1926  1  0.42329500  0.32708900  0.35173100  1
  C  1927  1  0.41479000  0.33871700  0.36803600  1
  C  1928  1  0.42308400  0.35564100  0.37683100  1
  C  1930  1  0.43939000  0.36063500  0.36979000  1
  C  1931  1  0.44821100  0.37727000  0.37902900  1
  C  1932  1  0.46483500  0.38186900  0.37204500  1
  C  1937  1  0.49056700  0.33296300  0.30402200  1
  C  1941  1  0.51265700  0.36767800  0.32407200  1
  C  1942  1  0.39973600  0.33457000  0.37646300  1
  C  1945  1  0.44707900  0.00427200  0.65040200  1
  C  1946  1  0.42327700  0.02420200  0.67184900  1
  C  1947  1  0.41475600  0.02891000  0.66024900  1
  C  1948  1  0.42303900  0.02080300  0.64331900  1
  C  1950  1  0.43935600  0.00877300  0.63830200  1
  C  1951  1  0.44816300  0.00138500  0.62166300  1
  C  1955  1  0.39958200  0.04143100  0.66445000  1
  C  1957  1  0.84979600  0.60979800  0.14011100  1
  C  1958  1  0.84383400  0.60654400  0.15361000  1
  C  1960  1  0.85360800  0.57657400  0.13684700  1
  C  1961  1  0.86113100  0.57933900  0.12350900  1
  C  1962  1  0.85877200  0.59583500  0.12520900  1
  C  1964  1  0.85352900  0.55974900  0.13470100  1
  C  1965  1  0.84286500  0.54012300  0.14428400  1
  C  1966  1  0.85003500  0.52568000  0.12895500  1
  C  1967  1  0.85991400  0.52888300  0.11669300  1
  C  1969  1  0.86161700  0.54574600  0.11926800  1
  C  1970  1  0.87024000  0.54877600  0.10652100  1
  C  1971  1  0.86978500  0.56539500  0.10854000  1
  C  1976  1  0.83514100  0.61936800  0.17060100  1
  C  1980  1  0.84475200  0.62520800  0.14042900  1
  C  1981  1  0.84730300  0.50861900  0.12485000  1
  C  1984  1  0.84973300  0.52980600  0.38899200  1
  C  1985  1  0.84377400  0.54657400  0.39229200  1
  C  1987  1  0.85356300  0.55971300  0.42225500  1
  C  1988  1  0.86107800  0.54359000  0.41944100  1
  C  1989  1  0.85869900  0.52882100  0.40293100  1
  C  1991  1  0.85351400  0.57436400  0.43910200  1
  C  1992  1  0.84298500  0.60359700  0.45881500  1
  C  1993  1  0.85015100  0.60263000  0.47321500  1
  C  1994  1  0.85997300  0.58712700  0.46994700  1
  C  1996  1  0.86162400  0.57287400  0.45306400  1
  C  1997  1  0.87023200  0.55707500  0.44998200  1
  C  1998  1  0.86976300  0.54251000  0.43334500  1
  C  2003  1  0.83507600  0.55078300  0.37949800  1
  C  2007  1  0.84474800  0.51472800  0.37355000  1
  C  2008  1  0.84767900  0.61554200  0.49029300  1
  C  2011  1  0.84980700  0.85878100  0.46899900  1
  C  2012  1  0.84387700  0.84526400  0.45224600  1
  C  2014  1  0.85365700  0.86200600  0.43901800  1
  C  2015  1  0.86115100  0.87536500  0.45512300  1
  C  2016  1  0.85879100  0.87367600  0.46992800  1
  C  2018  1  0.85356300  0.86414000  0.42433100  1
  C  2019  1  0.84288300  0.85451800  0.39511900  1
  C  2020  1  0.84999300  0.86985600  0.39599400  1
  C  2021  1  0.85986300  0.88214400  0.41145300  1
  C  2023  1  0.86160300  0.87958100  0.42574800  1
  C  2024  1  0.87020700  0.89234800  0.44152700  1
  C  2025  1  0.86976700  0.89034100  0.45613500  1
  C  2030  1  0.83518600  0.82827500  0.44809100  1
  C  2034  1  0.84471800  0.85848100  0.48409200  1
  C  2035  1  0.84714400  0.87393800  0.38303100  1
  C  2038  1  0.34982500  0.38918100  0.85870300  1
  C  2039  1  0.34388200  0.39242200  0.84519300  1
  C  2041  1  0.35362900  0.42239600  0.86194800  1
  C  2042  1  0.36113400  0.41965100  0.87530400  1
  C  2043  1  0.35878400  0.40315400  0.87360900  1
  C  2045  1  0.35352500  0.43921800  0.86408900  1
  C  2046  1  0.34285100  0.45880400  0.85446000  1
  C  2047  1  0.34993700  0.47327000  0.86980800  1
  C  2048  1  0.35980600  0.47010200  0.88209800  1
  C  2050  1  0.36156400  0.45324300  0.87952900  1
  C  2051  1  0.37017500  0.45023000  0.89229300  1
  C  2052  1  0.36975100  0.43361200  0.89027900  1
  C  2057  1  0.33522000  0.37958400  0.82819300  1
  C  2061  1  0.34475900  0.37378100  0.85839600  1
  C  2062  1  0.34710000  0.49031100  0.87388000  1
  C  2065  1  0.34981000  0.46906900  0.60976800  1
  C  2066  1  0.34384300  0.45231000  0.60648600  1
  C  2068  1  0.35360100  0.43913900  0.57651300  1
  C  2069  1  0.36110200  0.45525500  0.57929900  1
  C  2070  1  0.35873900  0.47003600  0.59580600  1
  C  2072  1  0.35351200  0.42447900  0.55967400  1
  C  2073  1  0.34288900  0.39526400  0.54000900  1
  C  2074  1  0.35000200  0.39620400  0.52558200  1
  C  2075  1  0.35984500  0.41168800  0.52880900  1
  C  2077  1  0.36156400  0.42594800  0.54568400  1
  C  2078  1  0.37019600  0.44173200  0.54874000  1
  C  2079  1  0.36974300  0.45631200  0.56536900  1
  C  2084  1  0.33515400  0.44812200  0.61929700  1
  C  2088  1  0.34477900  0.48415500  0.62518400  1
  C  2089  1  0.34738400  0.38328800  0.50852600  1
  C  2092  1  0.34976100  0.14021900  0.52975000  1
  C  2093  1  0.34378300  0.15368300  0.54651500  1
  C  2095  1  0.35355500  0.13685900  0.55965900  1
  C  2096  1  0.36108800  0.12355500  0.54354100  1
  C  2097  1  0.35873100  0.12530000  0.52877200  1
  C  2099  1  0.35349000  0.13466300  0.57431000  1
  C  2100  1  0.34295000  0.14418600  0.60354000  1
  C  2101  1  0.35011900  0.12882300  0.60258000  1
  C  2102  1  0.35995100  0.11659000  0.58708200  1
  C  2104  1  0.36160600  0.11921500  0.57282500  1
  C  2105  1  0.37022700  0.10650100  0.55703200  1
  C  2106  1  0.36975600  0.10856700  0.54246300  1
  C  2111  1  0.33508300  0.17068400  0.55072200  1
  C  2115  1  0.34476900  0.14058300  0.51467300  1
  C  2116  1  0.34764700  0.12466100  0.61549400  1
  C  2119  1  0.06519900  0.46905100  0.85855800  1
  C  2120  1  0.06952700  0.45194100  0.84488500  1
  C  2122  1  0.05981100  0.43946900  0.86231900  1
  C  2123  1  0.05373000  0.45599000  0.87588000  1
  C  2124  1  0.05710500  0.47060300  0.87399400  1
  C  2126  1  0.05924400  0.42489700  0.86464900  1
  C  2127  1  0.06813900  0.39529200  0.85494200  1
  C  2128  1  0.06125100  0.39656200  0.87051300  1
  C  2129  1  0.05262300  0.41250600  0.88307400  1
  C  2131  1  0.05166400  0.42679700  0.88042300  1
  C  2132  1  0.04425600  0.44300900  0.89336700  1
  C  2133  1  0.04558300  0.45751800  0.89122500  1
  C  2138  1  0.07738300  0.44722900  0.82749500  1
  C  2142  1  0.07195600  0.48359400  0.85782300  1
  C  2143  1  0.06318600  0.38341300  0.87439900  1
  C  2146  1  0.06509900  0.14025600  0.60981200  1
  C  2147  1  0.06943600  0.15394200  0.60639500  1
  C  2149  1  0.05974500  0.13655000  0.57648200  1
  C  2150  1  0.05367000  0.12296500  0.57940500  1
  C  2151  1  0.05701900  0.12482900  0.59590000  1
  C  2153  1  0.05922200  0.13424900  0.55959000  1
  C  2154  1  0.06818700  0.14402300  0.53976200  1
  C  2155  1  0.06133700  0.12846400  0.52542200  1
  C  2156  1  0.05271100  0.11586200  0.52874800  1
  C  2158  1  0.05170000  0.11847600  0.54567800  1
  C  2159  1  0.04428900  0.10550500  0.54890700  1
  C  2160  1  0.04556500  0.10762400  0.56555300  1
  C  2165  1  0.07732900  0.17131200  0.61908800  1
  C  2169  1  0.07195000  0.14094300  0.62504300  1
  C  2170  1  0.06342100  0.12465100  0.50840800  1
  C  2173  1  0.06509100  0.38908700  0.52979500  1
  C  2174  1  0.06944700  0.39248900  0.54689100  1
  C  2176  1  0.05975800  0.42240700  0.55942900  1
  C  2177  1  0.05365300  0.41948800  0.54292800  1
  C  2178  1  0.05700000  0.40300100  0.52829200  1
  C  2180  1  0.05922500  0.43929200  0.57402800  1
  C  2181  1  0.06822500  0.45911600  0.60361800  1
  C  2182  1  0.06132000  0.47345500  0.60241900  1
  C  2183  1  0.05266800  0.47012700  0.58649900  1
  C  2185  1  0.05166100  0.45320000  0.57217900  1
  C  2186  1  0.04423000  0.44997900  0.55598800  1
  C  2187  1  0.04551800  0.43333900  0.54145200  1
  C  2192  1  0.07733100  0.37978900  0.55156300  1
  C  2196  1  0.07188100  0.37383300  0.51524600  1
  C  2197  1  0.06342100  0.49047900  0.61562100  1
  C  2200  1  0.56512400  0.52988000  0.14019600  1
  C  2201  1  0.56946700  0.54697800  0.15388700  1
  C  2203  1  0.55978500  0.55949700  0.13649000  1
  C  2204  1  0.55368300  0.54299400  0.12291200  1
  C  2205  1  0.55703700  0.52836300  0.12477400  1
  C  2207  1  0.55925600  0.57408900  0.13419100  1
  C  2208  1  0.56822500  0.60368700  0.14396300  1
  C  2209  1  0.56134300  0.60247600  0.12841500  1
  C  2210  1  0.55272500  0.58654700  0.11581200  1
  C  2212  1  0.55170600  0.57223300  0.11842700  1
  C  2213  1  0.54428100  0.55603600  0.10546000  1
  C  2214  1  0.54554400  0.54151000  0.10758300  1
  C  2219  1  0.57735100  0.55165800  0.17126200  1
  C  2223  1  0.57186000  0.51532500  0.14091500  1
  C  2224  1  0.56342300  0.61568000  0.12460600  1
  C  2227  1  0.56514700  0.85859300  0.38890100  1
  C  2228  1  0.56953000  0.84494500  0.39236700  1
  C  2230  1  0.55977200  0.86238100  0.42226600  1
  C  2231  1  0.55365100  0.87591400  0.41927700  1
  C  2232  1  0.55702000  0.87401600  0.40277400  1
  C  2234  1  0.55919100  0.86473100  0.43917900  1
  C  2235  1  0.56810200  0.85511100  0.45914800  1
  C  2236  1  0.56115200  0.87068400  0.47341600  1
  C  2237  1  0.55245700  0.88318100  0.46997200  1
  C  2239  1  0.55154500  0.88049700  0.45301900  1
  C  2240  1  0.54409900  0.89341100  0.44972300  1
  C  2241  1  0.54545800  0.89125200  0.43306800  1
  C  2246  1  0.57745000  0.82757000  0.37971300  1
  C  2250  1  0.57187100  0.85784200  0.37360800  1
  C  2251  1  0.56300700  0.87467200  0.49049800  1
  C  2254  1  0.56511900  0.60987100  0.46899100  1
  C  2255  1  0.56949500  0.60643800  0.45188700  1
  C  2257  1  0.55978500  0.57652800  0.43938800  1
  C  2258  1  0.55367100  0.57947700  0.45589800  1
  C  2259  1  0.55702800  0.59597300  0.47051800  1
  C  2261  1  0.55923100  0.55963000  0.42481000  1
  C  2262  1  0.56817100  0.53974500  0.39521400  1
  C  2263  1  0.56127200  0.52543600  0.39646800  1
  C  2264  1  0.55260000  0.52881300  0.41239600  1
  C  2266  1  0.55163000  0.54575100  0.42669200  1
  C  2267  1  0.54419300  0.54900800  0.44289200  1
  C  2268  1  0.54550900  0.56565500  0.45740800  1
  C  2273  1  0.57736000  0.61912200  0.44718800  1
  C  2277  1  0.57185900  0.62515000  0.48353900  1
  C  2278  1  0.56323900  0.50838700  0.38329700  1
  N  11  1  0.94293200  0.98707300  0.65561200  1
  N  28  1  0.47380200  0.98521600  0.33213000  1
  N  39  1  0.93872400  0.98673300  0.33229900  1
  N  48  1  0.47051600  0.98649700  0.65606200  1
  N  98  1  0.89216700  0.72039600  0.15979100  1
  N  99  1  0.89984900  0.67100300  0.05695800  1
  N  100  1  0.85315800  0.63156100  0.13180900  1
  N  101  1  0.79442400  0.65080300  0.07368300  1
  N  139  1  0.89223500  0.43888200  0.27845300  1
  N  140  1  0.89997000  0.38552400  0.32795300  1
  N  141  1  0.85315300  0.49975600  0.36721300  1
  N  142  1  0.79442000  0.42248200  0.34805600  1
  N  180  1  0.89218200  0.83906300  0.55994500  1
  N  181  1  0.89980000  0.94188700  0.61338600  1
  N  182  1  0.85310900  0.86708800  0.49907400  1
  N  183  1  0.79438600  0.92515500  0.57649000  1
  N  221  1  0.39219900  0.27866300  0.83900400  1
  N  222  1  0.39972400  0.32783400  0.94179700  1
  N  223  1  0.35313900  0.36743700  0.86703500  1
  N  224  1  0.29432100  0.34800300  0.92514300  1
  N  262  1  0.39221300  0.55992900  0.72025300  1
  N  263  1  0.39991700  0.61340400  0.67086900  1
  N  264  1  0.35317800  0.49913000  0.63151900  1
  N  265  1  0.29437800  0.57648900  0.65077100  1
  N  303  1  0.39220000  0.15981900  0.43878200  1
  N  304  1  0.39991900  0.05698700  0.38543600  1
  N  305  1  0.35317300  0.13195000  0.49970100  1
  N  306  1  0.29440400  0.07380600  0.42239100  1
  N  344  1  0.02088900  0.55950900  0.83920400  1
  N  345  1  0.00264100  0.60761600  0.94148800  1
  N  346  1  0.06530300  0.49925100  0.86524600  1
  N  347  1  0.11868200  0.57629700  0.92513700  1
  N  385  1  0.02093200  0.15966900  0.71980400  1
  N  386  1  0.00260200  0.05737700  0.66548600  1
  N  387  1  0.06531500  0.13356700  0.63333000  1
  N  388  1  0.11862900  0.07379300  0.65048400  1
  N  426  1  0.02091200  0.27915800  0.43926700  1
  N  427  1  0.00266600  0.33322600  0.39111900  1
  N  428  1  0.06522900  0.36559400  0.49959000  1
  N  429  1  0.11859400  0.34844600  0.42259600  1
  N  467  1  0.52087500  0.43932200  0.15959300  1
  N  468  1  0.50251100  0.39117200  0.05751200  1
  N  469  1  0.56519300  0.49967100  0.13348400  1
  N  470  1  0.61865600  0.42269000  0.07371200  1
  N  508  1  0.52094200  0.83926500  0.27901400  1
  N  509  1  0.50264100  0.94131400  0.33285900  1
  N  510  1  0.56520700  0.86528700  0.36539700  1
  N  511  1  0.61864600  0.92519900  0.34831000  1
  N  549  1  0.52091400  0.71969700  0.55945700  1
  N  550  1  0.50265000  0.66598800  0.60778800  1
  N  551  1  0.56519600  0.63334600  0.49919500  1
  N  552  1  0.61870000  0.65055600  0.57627900  1
  N  590  1  0.01306500  0.28029700  0.84285400  1
  N  591  1  0.01846100  0.32570700  0.94291600  1
  N  592  1  0.04710800  0.37390300  0.87149000  1
  N  593  1  0.12059300  0.34745400  0.92064600  1
  N  631  1  0.01292300  0.56191900  0.71840800  1
  N  632  1  0.01831200  0.61662000  0.67297200  1
  N  633  1  0.04721700  0.49706000  0.62495000  1
  N  634  1  0.12050800  0.57268600  0.65138400  1
  N  672  1  0.01304400  0.15600600  0.43682300  1
  N  673  1  0.01838100  0.05589400  0.38220200  1
  N  674  1  0.04716000  0.12727300  0.50178800  1
  N  675  1  0.12051700  0.07817000  0.42619300  1
  N  713  1  0.51304500  0.71860200  0.15596200  1
  N  714  1  0.51839300  0.67316300  0.05587700  1
  N  715  1  0.54715100  0.62490900  0.12721900  1
  N  716  1  0.62052300  0.65140000  0.07811200  1
  N  754  1  0.51300200  0.43686000  0.28026400  1
  N  755  1  0.51835300  0.38225700  0.32575400  1
  N  756  1  0.54719300  0.50183500  0.37375100  1
  N  757  1  0.62052300  0.42622000  0.34743000  1
  N  795  1  0.51299300  0.84287200  0.56194100  1
  N  796  1  0.51838300  0.94308300  0.61663700  1
  N  797  1  0.54721300  0.87135900  0.49706300  1
  N  798  1  0.62057300  0.92066300  0.57265900  1
  N  836  1  0.90105200  0.43726600  0.15603700  1
  N  837  1  0.90748000  0.38659400  0.05646800  1
  N  838  1  0.86159100  0.50246300  0.13023800  1
  N  839  1  0.79327100  0.42605700  0.07832800  1
  N  877  1  0.90107200  0.84281700  0.28062100  1
  N  878  1  0.90748800  0.94239200  0.32947700  1
  N  879  1  0.86161900  0.86867900  0.37164900  1
  N  880  1  0.79325100  0.92052700  0.34704500  1
  N  918  1  0.90094100  0.71836600  0.56168500  1
  N  919  1  0.90744300  0.66938400  0.61235000  1
  N  920  1  0.86172500  0.62731100  0.49645400  1
  N  921  1  0.79325200  0.65176200  0.57283400  1
  N  959  1  0.40104300  0.56158200  0.84276100  1
  N  960  1  0.40750300  0.61227700  0.94227800  1
  N  961  1  0.36157300  0.49641400  0.86859900  1
  N  962  1  0.29325700  0.57285800  0.92048200  1
  N  1000  1  0.40101200  0.15612000  0.71825800  1
  N  1001  1  0.40746700  0.05636900  0.66920700  1
  N  1002  1  0.36168900  0.13028000  0.62726700  1
  N  1003  1  0.29328200  0.07838100  0.65174300  1
  N  1041  1  0.40099300  0.28057700  0.43715000  1
  N  1042  1  0.40750100  0.32965700  0.38656300  1
  N  1043  1  0.36162400  0.37167900  0.50239400  1
  N  1044  1  0.29327800  0.34715600  0.42598200  1
  N  1047  1  0.91471800  0.77281600  0.19716700  1
  N  1056  1  0.91393800  0.80140500  0.23077100  1
  N  1074  1  0.91473100  0.42387900  0.22606600  1
  N  1083  1  0.91393000  0.42888100  0.19747600  1
  N  1101  1  0.91458200  0.80171300  0.57494900  1
  N  1110  1  0.91379700  0.76813100  0.56998900  1
  N  1128  1  0.41482900  0.22595600  0.80157400  1
  N  1137  1  0.41403700  0.19743200  0.76795300  1
  N  1155  1  0.41472800  0.57508800  0.77287000  1
  N  1164  1  0.41390700  0.57002500  0.80141500  1
  N  1182  1  0.41476200  0.19720400  0.42383500  1
  N  1191  1  0.41400800  0.23078400  0.42880800  1
  N  1209  1  0.99879500  0.57509600  0.80152300  1
  N  1218  1  0.99958300  0.57010100  0.76794400  1
  N  1236  1  0.99930200  0.19717300  0.77254900  1
  N  1245  1  0.00009300  0.23068900  0.80129400  1
  N  1263  1  0.99883500  0.22616500  0.42384500  1
  N  1272  1  0.99956700  0.19749700  0.42871900  1
  N  1290  1  0.49881900  0.42392400  0.19714900  1
  N  1299  1  0.49955800  0.42879100  0.23068300  1
  N  1317  1  0.49901800  0.80171000  0.22614200  1
  N  1326  1  0.49975300  0.76817200  0.19746300  1
  N  1344  1  0.49878000  0.77290900  0.57502900  1
  N  1353  1  0.49952800  0.80150400  0.57005400  1
  N  1371  1  0.68799900  0.64878500  0.05632800  1
  N  1380  1  0.73121600  0.64639400  0.05961100  1
  N  1398  1  0.68794800  0.40703400  0.35011500  1
  N  1407  1  0.73114800  0.41270500  0.35249400  1
  N  1425  1  0.68806200  0.94254700  0.59178400  1
  N  1434  1  0.73129000  0.93933100  0.58608200  1
  N  1449  1  0.18802500  0.35005100  0.94238400  1
  N  1458  1  0.23125200  0.35255500  0.93918500  1
  N  1476  1  0.18790600  0.59187600  0.64870400  1
  N  1485  1  0.23111100  0.58621500  0.64633100  1
  N  1503  1  0.18790600  0.05638200  0.40699000  1
  N  1512  1  0.23111000  0.05968000  0.41264500  1
  N  1530  1  0.22562800  0.59187200  0.94213500  1
  N  1539  1  0.18236900  0.58625100  0.93876700  1
  N  1557  1  0.22562700  0.05667400  0.64903100  1
  N  1566  1  0.18236900  0.06009600  0.64684600  1
  N  1584  1  0.22556500  0.34982100  0.40699300  1
  N  1593  1  0.18229700  0.35204300  0.41260200  1
  N  1611  1  0.72565500  0.40702400  0.05656000  1
  N  1620  1  0.68239700  0.41262200  0.05994100  1
  N  1638  1  0.72554300  0.94223300  0.34978000  1
  N  1647  1  0.68227000  0.93887700  0.35204100  1
  N  1662  1  0.72558500  0.64916500  0.59180800  1
  N  1671  1  0.68231500  0.64689600  0.58617100  1
  N  1689  1  0.94294800  0.66804900  0.01176100  1
  N  1698  1  0.97376100  0.65255900  0.98520900  1
  N  1716  1  0.94295700  0.34321100  0.33086000  1
  N  1725  1  0.97375100  0.33210400  0.34631900  1
  N  1745  1  0.97374300  0.01362900  0.66667500  1
  N  1755  1  0.44295200  0.33085200  0.98697400  1
  N  1764  1  0.47377700  0.34641000  0.01354100  1
  N  1782  1  0.44298500  0.65566500  0.66792900  1
  N  1791  1  0.47380900  0.66672100  0.65242100  1
  N  1809  1  0.44298000  0.01178100  0.34318100  1
  N  1824  1  0.97055400  0.32978100  0.98633500  1
  N  1833  1  0.93872800  0.34506300  0.01204900  1
  N  1851  1  0.97050400  0.65607800  0.66899200  1
  N  1860  1  0.93869100  0.66660600  0.65381300  1
  N  1878  1  0.97052700  0.01245900  0.34279300  1
  N  1893  1  0.47053000  0.66909400  0.01243600  1
  N  1902  1  0.43871200  0.65381500  0.98671300  1
  N  1920  1  0.47053800  0.34281600  0.32974500  1
  N  1929  1  0.43869900  0.33234200  0.34497200  1
  N  1949  1  0.43868600  0.01219600  0.66657500  1
  N  1959  1  0.84563300  0.59028800  0.15116500  1
  N  1968  1  0.84468100  0.55629300  0.14649500  1
  N  1986  1  0.84558100  0.56035900  0.40856400  1
  N  1995  1  0.84472500  0.58965500  0.44262000  1
  N  2013  1  0.84569100  0.84769200  0.43842600  1
  N  2022  1  0.84472500  0.85232500  0.40908700  1
  N  2040  1  0.34567900  0.40867200  0.84762700  1
  N  2049  1  0.34469200  0.44264500  0.85227000  1
  N  2067  1  0.34563500  0.43851300  0.59021900  1
  N  2076  1  0.34469700  0.40920900  0.55619400  1
  N  2094  1  0.34557500  0.15119300  0.56029900  1
  N  2103  1  0.34469200  0.14643700  0.58959800  1
  N  2121  1  0.06712600  0.43833200  0.84757600  1
  N  2130  1  0.06701800  0.40924200  0.85265600  1
  N  2148  1  0.06705000  0.15128200  0.59010600  1
  N  2157  1  0.06701200  0.14627300  0.55598100  1
  N  2175  1  0.06707300  0.40877800  0.56052400  1
  N  2184  1  0.06704900  0.44290100  0.58965000  1
  N  2202  1  0.56709500  0.56060400  0.15122100  1
  N  2211  1  0.56706000  0.58971700  0.14621000  1
  N  2229  1  0.56713700  0.84764800  0.40867500  1
  N  2238  1  0.56700400  0.85278300  0.44289100  1
  N  2256  1  0.56711200  0.59013900  0.43826800  1
  N  2265  1  0.56703900  0.55597700  0.40916800  1
