# generated using pymatgen
data_H22C43(N3O)2
_symmetry_space_group_name_H-M   'P 1'
_cell_length_a   31.18710000
_cell_length_b   44.41080000
_cell_length_c   44.41080000
_cell_angle_alpha   90.00000000
_cell_angle_beta   89.99630000
_cell_angle_gamma   90.00000000
_symmetry_Int_Tables_number   1
_chemical_formula_structural   H22C43(N3O)2
_chemical_formula_sum   'H352 C688 N96 O32'
_cell_volume   61510.91464179
_cell_formula_units_Z   16
loop_
 _symmetry_equiv_pos_site_id
 _symmetry_equiv_pos_as_xyz
  1  'x, y, z'
loop_
 _atom_site_type_symbol
 _atom_site_label
 _atom_site_symmetry_multiplicity
 _atom_site_fract_x
 _atom_site_fract_y
 _atom_site_fract_z
 _atom_site_occupancy
  H  25  1  0.02717100  0.20915000  0.02153000  1
  H  26  1  0.02905100  0.16012800  0.04283000  1
  H  27  1  0.03026000  0.11462700  0.07099300  1
  H  28  1  0.02883700  0.07364600  0.10568200  1
  H  29  1  0.01212100  0.13430600  0.17800900  1
  H  30  1  0.01047200  0.24694700  0.10829900  1
  H  31  1  0.10600100  0.20590300  0.13305000  1
  H  32  1  0.12092200  0.22709100  0.22533600  1
  H  33  1  0.04827800  0.21461300  0.23448400  1
  H  34  1  0.92250700  0.20289800  0.13082100  1
  H  35  1  0.97361700  0.20872100  0.23437600  1
  H  36  1  0.89988800  0.21724200  0.22378500  1
  H  66  1  0.02719800  0.81538700  0.87327300  1
  H  67  1  0.02917300  0.86440200  0.85195800  1
  H  68  1  0.03043100  0.90989500  0.82378200  1
  H  69  1  0.02901000  0.95087000  0.78908600  1
  H  70  1  0.01215300  0.89020400  0.71678000  1
  H  71  1  0.01038900  0.77758300  0.78651900  1
  H  72  1  0.10601800  0.81858900  0.76170800  1
  H  73  1  0.12083400  0.79733500  0.66941500  1
  H  74  1  0.04816900  0.80989000  0.66029700  1
  H  75  1  0.92251000  0.82168700  0.76404000  1
  H  76  1  0.97350800  0.81580600  0.66045500  1
  H  77  1  0.89975700  0.80735100  0.67109300  1
  H  107  1  0.02720300  0.93813200  0.14437800  1
  H  108  1  0.02921100  0.91684000  0.09535500  1
  H  109  1  0.03047600  0.88869300  0.04984800  1
  H  110  1  0.02901300  0.85402600  0.00885000  1
  H  111  1  0.01214000  0.78168800  0.06946300  1
  H  112  1  0.01032800  0.85136000  0.18213500  1
  H  113  1  0.10587700  0.82654200  0.14144900  1
  H  114  1  0.12065600  0.73414100  0.16226000  1
  H  115  1  0.04810000  0.72504600  0.14941100  1
  H  116  1  0.92264800  0.82892000  0.13836600  1
  H  117  1  0.97345100  0.72526500  0.14364200  1
  H  118  1  0.89979500  0.73594200  0.15241600  1
  H  148  1  0.02715700  0.08639100  0.75046000  1
  H  149  1  0.02903500  0.10767400  0.79948700  1
  H  150  1  0.03021400  0.13581100  0.84499800  1
  H  151  1  0.02875000  0.17047900  0.88599700  1
  H  152  1  0.01210800  0.24283500  0.82537500  1
  H  153  1  0.01046600  0.17317400  0.71269100  1
  H  154  1  0.10583200  0.19794300  0.75332800  1
  H  155  1  0.12070400  0.29034100  0.73255300  1
  H  156  1  0.04814700  0.29945400  0.74537700  1
  H  157  1  0.92265100  0.19562900  0.75642300  1
  H  158  1  0.97351200  0.29926500  0.75111300  1
  H  159  1  0.89987900  0.28860500  0.74230300  1
  H  189  1  0.52516000  0.70880700  0.52107900  1
  H  190  1  0.52430700  0.65976700  0.54233100  1
  H  191  1  0.52468500  0.61428700  0.57052700  1
  H  192  1  0.52438700  0.57343200  0.60535800  1
  H  193  1  0.51436700  0.63451000  0.67796500  1
  H  194  1  0.51475800  0.74705200  0.60813500  1
  H  195  1  0.60872900  0.70187800  0.63171100  1
  H  196  1  0.62855200  0.71914900  0.72446900  1
  H  197  1  0.55440900  0.71123700  0.73419300  1
  H  198  1  0.42452200  0.70469100  0.63142600  1
  H  199  1  0.47975900  0.71598100  0.73328600  1
  H  200  1  0.40708500  0.72736600  0.72317500  1
  H  230  1  0.52509500  0.31574500  0.37370500  1
  H  231  1  0.52428400  0.36478300  0.35244900  1
  H  232  1  0.52470400  0.41026300  0.32424900  1
  H  233  1  0.52444800  0.45111300  0.28941300  1
  H  234  1  0.51440200  0.39003100  0.21681200  1
  H  235  1  0.51467400  0.27749800  0.28665200  1
  H  236  1  0.60872300  0.32273700  0.26306200  1
  H  237  1  0.62853200  0.30541200  0.17031000  1
  H  238  1  0.55437400  0.31329500  0.16059000  1
  H  239  1  0.42446700  0.31995400  0.26336700  1
  H  240  1  0.47968900  0.30857300  0.16151800  1
  H  241  1  0.40700800  0.29728800  0.17161700  1
  H  271  1  0.52527200  0.43854200  0.64385800  1
  H  272  1  0.52429700  0.41725900  0.59483400  1
  H  273  1  0.52457000  0.38903100  0.54937900  1
  H  274  1  0.52426200  0.35417300  0.50854800  1
  H  275  1  0.51428600  0.28160300  0.56968300  1
  H  276  1  0.51491200  0.35151600  0.68217300  1
  H  277  1  0.60884500  0.32790900  0.63669600  1
  H  278  1  0.62868300  0.23520600  0.65426700  1
  H  279  1  0.55447900  0.22549200  0.64662800  1
  H  280  1  0.42439000  0.32818600  0.63946500  1
  H  281  1  0.47974300  0.22639800  0.65135300  1
  H  282  1  0.40702100  0.23650800  0.66255200  1
  H  312  1  0.52527800  0.58599900  0.25093500  1
  H  313  1  0.52420100  0.60728400  0.29996000  1
  H  314  1  0.52446100  0.63551400  0.34541200  1
  H  315  1  0.52417800  0.67037500  0.38623600  1
  H  316  1  0.51428300  0.74294500  0.32509300  1
  H  317  1  0.51501800  0.67302500  0.21261100  1
  H  318  1  0.60885100  0.69664100  0.25814200  1
  H  319  1  0.62868300  0.78933000  0.24050800  1
  H  320  1  0.55447600  0.79903500  0.24807200  1
  H  321  1  0.42432900  0.69637300  0.25536900  1
  H  322  1  0.47979500  0.79813200  0.24333100  1
  H  323  1  0.40705000  0.78802900  0.23215700  1
  H  335  1  0.05945300  0.03074300  0.19372100  1
  H  336  1  0.06759500  0.98080800  0.21333600  1
  H  340  1  0.88265000  0.97022300  0.14983100  1
  H  342  1  0.97331600  0.05231000  0.14211200  1
  H  344  1  0.01373300  0.93359500  0.23142300  1
  H  351  1  0.05960600  0.99379400  0.70111700  1
  H  352  1  0.06776100  0.04373200  0.68151600  1
  H  356  1  0.88270500  0.05426900  0.74488500  1
  H  358  1  0.97345100  0.97221800  0.75269400  1
  H  360  1  0.01391700  0.09094000  0.66339900  1
  H  367  1  0.05955200  0.76604500  0.96589500  1
  H  368  1  0.06769100  0.74643500  0.91595900  1
  H  372  1  0.88268900  0.80987200  0.90542000  1
  H  374  1  0.97345100  0.81765700  0.98745900  1
  H  376  1  0.01382900  0.72832700  0.86876500  1
  H  383  1  0.05952400  0.25844200  0.92889500  1
  H  384  1  0.06775600  0.27804700  0.97882600  1
  H  388  1  0.88262800  0.21481000  0.98947800  1
  H  390  1  0.97327400  0.20692900  0.90738400  1
  H  392  1  0.01399700  0.29621600  0.02605200  1
  H  399  1  0.56206300  0.53097200  0.69211000  1
  H  400  1  0.57194800  0.48103800  0.71132100  1
  H  404  1  0.38229000  0.47014900  0.65513600  1
  H  406  1  0.47192900  0.55236300  0.64393200  1
  H  408  1  0.51968600  0.43365100  0.73142000  1
  H  415  1  0.56218800  0.49357100  0.20270800  1
  H  416  1  0.57211200  0.54350500  0.18350600  1
  H  420  1  0.38234700  0.55439200  0.23953200  1
  H  422  1  0.47199000  0.47218900  0.25082700  1
  H  424  1  0.51992000  0.59089400  0.16336800  1
  H  431  1  0.56185400  0.26739900  0.46609100  1
  H  432  1  0.57168200  0.24822300  0.41613400  1
  H  436  1  0.38208800  0.30454100  0.40536400  1
  H  438  1  0.47178500  0.31561700  0.48754700  1
  H  440  1  0.51932100  0.22819200  0.36875400  1
  H  447  1  0.56186700  0.75715100  0.42867400  1
  H  448  1  0.57174000  0.77632000  0.47862800  1
  H  452  1  0.38212900  0.72003800  0.48947800  1
  H  454  1  0.47175300  0.70895800  0.40725100  1
  H  456  1  0.51942600  0.79635800  0.52603100  1
  H  463  1  0.73981900  0.31357900  0.18869800  1
  H  464  1  0.81003100  0.29987300  0.17203400  1
  H  468  1  0.74744100  0.17565800  0.23283300  1
  H  470  1  0.66021900  0.26174300  0.20727600  1
  H  472  1  0.87122300  0.26276000  0.18822900  1
  H  479  1  0.73969100  0.71105900  0.70626100  1
  H  480  1  0.80987000  0.72477200  0.72297900  1
  H  484  1  0.74758200  0.84885200  0.66176200  1
  H  486  1  0.66019300  0.76283400  0.68754400  1
  H  488  1  0.87106500  0.76183200  0.70662900  1
  H  495  1  0.73985400  0.77107600  0.24889000  1
  H  496  1  0.81004000  0.78781000  0.23519900  1
  H  500  1  0.74796300  0.72642900  0.11114800  1
  H  502  1  0.66043000  0.75216100  0.19703000  1
  H  504  1  0.87133800  0.77135500  0.19809400  1
  H  511  1  0.73987700  0.25349500  0.64589000  1
  H  512  1  0.81007900  0.23677600  0.65955900  1
  H  516  1  0.74797900  0.29806000  0.78365800  1
  H  518  1  0.66044900  0.27235300  0.69778200  1
  H  520  1  0.87137600  0.25322000  0.69666500  1
  H  527  1  0.32315300  0.72870800  0.18261300  1
  H  528  1  0.26514300  0.73750700  0.14901700  1
  H  532  1  0.20566100  0.81613200  0.26360700  1
  H  534  1  0.33749200  0.76928300  0.25358100  1
  H  536  1  0.19141300  0.75276000  0.14262900  1
  H  543  1  0.32315900  0.29578400  0.71219700  1
  H  544  1  0.26516100  0.28694600  0.74580000  1
  H  548  1  0.20560200  0.20849400  0.63111900  1
  H  550  1  0.33744400  0.25528500  0.64120200  1
  H  552  1  0.19148500  0.27163400  0.75225000  1
  H  559  1  0.32344100  0.24716000  0.23075300  1
  H  560  1  0.26551900  0.21350000  0.22186400  1
  H  564  1  0.20544200  0.32836400  0.14387200  1
  H  566  1  0.33729000  0.31844700  0.19061400  1
  H  568  1  0.19166500  0.20719400  0.20679500  1
  H  575  1  0.32342200  0.77743400  0.66400800  1
  H  576  1  0.26544100  0.81105500  0.67287100  1
  H  580  1  0.20557600  0.69622000  0.75099700  1
  H  582  1  0.33737700  0.70617700  0.70419800  1
  H  584  1  0.19151500  0.81727600  0.68789800  1
  H  609  1  0.25162300  0.50187200  0.71955800  1
  H  610  1  0.25350300  0.45285000  0.74085800  1
  H  611  1  0.25471200  0.40734900  0.76902100  1
  H  612  1  0.25328900  0.36636800  0.80371000  1
  H  613  1  0.23657300  0.42702800  0.87603700  1
  H  614  1  0.23492400  0.53966900  0.80632700  1
  H  615  1  0.33045300  0.49862500  0.83107800  1
  H  616  1  0.34537400  0.51981300  0.92336400  1
  H  617  1  0.27273000  0.50733500  0.93251200  1
  H  618  1  0.14695900  0.49562000  0.82884900  1
  H  619  1  0.19806900  0.50144300  0.93240400  1
  H  620  1  0.12434000  0.50996400  0.92181300  1
  H  650  1  0.25165000  0.10810900  0.57130100  1
  H  651  1  0.25362500  0.15712400  0.54998600  1
  H  652  1  0.25488300  0.20261700  0.52181000  1
  H  653  1  0.25346200  0.24359200  0.48711400  1
  H  654  1  0.23660500  0.18292600  0.41480800  1
  H  655  1  0.23484100  0.07030460  0.48454700  1
  H  656  1  0.33047000  0.11131100  0.45973600  1
  H  657  1  0.34528600  0.09005660  0.36744300  1
  H  658  1  0.27262100  0.10261200  0.35832500  1
  H  659  1  0.14696200  0.11440900  0.46206800  1
  H  660  1  0.19796000  0.10852800  0.35848300  1
  H  661  1  0.12420900  0.10007300  0.36912100  1
  H  691  1  0.25165500  0.23085400  0.84240600  1
  H  692  1  0.25366300  0.20956200  0.79338300  1
  H  693  1  0.25492800  0.18141500  0.74787600  1
  H  694  1  0.25346500  0.14674800  0.70687800  1
  H  695  1  0.23659200  0.07440960  0.76749100  1
  H  696  1  0.23478000  0.14408200  0.88016300  1
  H  697  1  0.33032900  0.11926400  0.83947700  1
  H  698  1  0.34510800  0.02686260  0.86028800  1
  H  699  1  0.27255200  0.01776760  0.84743900  1
  H  700  1  0.14710000  0.12164200  0.83639400  1
  H  701  1  0.19790300  0.01798660  0.84167000  1
  H  702  1  0.12424700  0.02866360  0.85044400  1
  H  732  1  0.25160900  0.37911300  0.44848800  1
  H  733  1  0.25348700  0.40039600  0.49751500  1
  H  734  1  0.25466600  0.42853300  0.54302600  1
  H  735  1  0.25320200  0.46320100  0.58402500  1
  H  736  1  0.23656000  0.53555700  0.52340300  1
  H  737  1  0.23491800  0.46589600  0.41071900  1
  H  738  1  0.33028400  0.49066500  0.45135600  1
  H  739  1  0.34515600  0.58306300  0.43058100  1
  H  740  1  0.27259900  0.59217600  0.44340500  1
  H  741  1  0.14710300  0.48835100  0.45445100  1
  H  742  1  0.19796400  0.59198700  0.44914100  1
  H  743  1  0.12433100  0.58132700  0.44033100  1
  H  773  1  0.74961200  0.00152859  0.21910700  1
  H  774  1  0.74875900  0.95248900  0.24035900  1
  H  775  1  0.74913700  0.90700900  0.26855500  1
  H  776  1  0.74883900  0.86615400  0.30338600  1
  H  777  1  0.73881900  0.92723200  0.37599300  1
  H  778  1  0.73921000  0.03977360  0.30616300  1
  H  779  1  0.83318100  0.99460000  0.32973900  1
  H  780  1  0.85300400  0.01187060  0.42249700  1
  H  781  1  0.77886100  0.00395859  0.43222100  1
  H  782  1  0.64897400  0.99741300  0.32945400  1
  H  783  1  0.70421100  0.00870259  0.43131400  1
  H  784  1  0.63153700  0.02008760  0.42120300  1
  H  814  1  0.74954700  0.60846700  0.07173340  1
  H  815  1  0.74873600  0.65750500  0.05047740  1
  H  816  1  0.74915600  0.70298500  0.02227740  1
  H  817  1  0.74890000  0.74383500  0.98744100  1
  H  818  1  0.73885400  0.68275300  0.91484000  1
  H  819  1  0.73912600  0.57022000  0.98468000  1
  H  820  1  0.83317500  0.61545900  0.96109000  1
  H  821  1  0.85298400  0.59813400  0.86833800  1
  H  822  1  0.77882600  0.60601700  0.85861800  1
  H  823  1  0.64891900  0.61267600  0.96139500  1
  H  824  1  0.70414100  0.60129500  0.85954600  1
  H  825  1  0.63146000  0.59001000  0.86964500  1
  H  855  1  0.74972400  0.73126400  0.34188600  1
  H  856  1  0.74874900  0.70998100  0.29286200  1
  H  857  1  0.74902200  0.68175300  0.24740700  1
  H  858  1  0.74871400  0.64689500  0.20657600  1
  H  859  1  0.73873800  0.57432500  0.26771100  1
  H  860  1  0.73936400  0.64423800  0.38020100  1
  H  861  1  0.83329700  0.62063100  0.33472400  1
  H  862  1  0.85313500  0.52792800  0.35229500  1
  H  863  1  0.77893100  0.51821400  0.34465600  1
  H  864  1  0.64884200  0.62090800  0.33749300  1
  H  865  1  0.70419500  0.51912000  0.34938100  1
  H  866  1  0.63147300  0.52923000  0.36058000  1
  H  896  1  0.74973000  0.87872100  0.94896300  1
  H  897  1  0.74865300  0.90000600  0.99798800  1
  H  898  1  0.74891300  0.92823600  0.04344040  1
  H  899  1  0.74863000  0.96309700  0.08426440  1
  H  900  1  0.73873500  0.03566660  0.02312140  1
  H  901  1  0.73947000  0.96574700  0.91063900  1
  H  902  1  0.83330300  0.98936300  0.95617000  1
  H  903  1  0.85313500  0.08205160  0.93853600  1
  H  904  1  0.77892800  0.09175660  0.94610000  1
  H  905  1  0.64878100  0.98909500  0.95339700  1
  H  906  1  0.70424700  0.09085360  0.94135900  1
  H  907  1  0.63150200  0.08075060  0.93018500  1
  H  919  1  0.28390500  0.32346500  0.89174900  1
  H  920  1  0.29204700  0.27353000  0.91136400  1
  H  924  1  0.10710200  0.26294500  0.84785900  1
  H  926  1  0.19776800  0.34503200  0.84014000  1
  H  928  1  0.23818500  0.22631700  0.92945100  1
  H  935  1  0.28405800  0.28651600  0.39914500  1
  H  936  1  0.29221300  0.33645400  0.37954400  1
  H  940  1  0.10715700  0.34699100  0.44291300  1
  H  942  1  0.19790300  0.26494000  0.45072200  1
  H  944  1  0.23836900  0.38366200  0.36142700  1
  H  951  1  0.28400400  0.05876660  0.66392300  1
  H  952  1  0.29214300  0.03915660  0.61398700  1
  H  956  1  0.10714100  0.10259400  0.60344800  1
  H  958  1  0.19790300  0.11037900  0.68548700  1
  H  960  1  0.23828100  0.02104860  0.56679300  1
  H  967  1  0.28397600  0.55116400  0.62692300  1
  H  968  1  0.29220800  0.57076900  0.67685400  1
  H  972  1  0.10708000  0.50753200  0.68750600  1
  H  974  1  0.19772600  0.49965100  0.60541200  1
  H  976  1  0.23844900  0.58893800  0.72408000  1
  H  983  1  0.78651500  0.82369400  0.39013800  1
  H  984  1  0.79640000  0.77376000  0.40934900  1
  H  988  1  0.60674200  0.76287100  0.35316400  1
  H  990  1  0.69638100  0.84508500  0.34196000  1
  H  992  1  0.74413800  0.72637300  0.42944800  1
  H  999  1  0.78664000  0.78629300  0.90073600  1
  H  1000  1  0.79656400  0.83622700  0.88153400  1
  H  1004  1  0.60679900  0.84711400  0.93756000  1
  H  1006  1  0.69644200  0.76491100  0.94885500  1
  H  1008  1  0.74437200  0.88361600  0.86139600  1
  H  1015  1  0.78630600  0.56012100  0.16411900  1
  H  1016  1  0.79613400  0.54094500  0.11416200  1
  H  1020  1  0.60654000  0.59726300  0.10339200  1
  H  1022  1  0.69623700  0.60833900  0.18557500  1
  H  1024  1  0.74377300  0.52091400  0.06678240  1
  H  1031  1  0.78631900  0.04987260  0.12670200  1
  H  1032  1  0.79619200  0.06904160  0.17665600  1
  H  1036  1  0.60658100  0.01275960  0.18750600  1
  H  1038  1  0.69620500  0.00167959  0.10527900  1
  H  1040  1  0.74387800  0.08907960  0.22405900  1
  H  1047  1  0.96427100  0.60630100  0.88672600  1
  H  1048  1  0.03448280  0.59259500  0.87006200  1
  H  1052  1  0.97189300  0.46838000  0.93086100  1
  H  1054  1  0.88467100  0.55446500  0.90530400  1
  H  1056  1  0.09567480  0.55548200  0.88625700  1
  H  1063  1  0.96414300  0.00378059  0.40428900  1
  H  1064  1  0.03432180  0.01749360  0.42100700  1
  H  1068  1  0.97203400  0.14157400  0.35979000  1
  H  1070  1  0.88464500  0.05555560  0.38557200  1
  H  1072  1  0.09551680  0.05455360  0.40465700  1
  H  1079  1  0.96430600  0.06379760  0.94691800  1
  H  1080  1  0.03449180  0.08053160  0.93322700  1
  H  1084  1  0.97241500  0.01915060  0.80917600  1
  H  1086  1  0.88488200  0.04488260  0.89505800  1
  H  1088  1  0.09578980  0.06407660  0.89612200  1
  H  1095  1  0.96432900  0.54621700  0.34391800  1
  H  1096  1  0.03453080  0.52949800  0.35758700  1
  H  1100  1  0.97243100  0.59078200  0.48168600  1
  H  1102  1  0.88490100  0.56507500  0.39581000  1
  H  1104  1  0.09582780  0.54594200  0.39469300  1
  H  1111  1  0.54760500  0.02142960  0.88064100  1
  H  1112  1  0.48959500  0.03022860  0.84704500  1
  H  1116  1  0.43011300  0.10885400  0.96163500  1
  H  1118  1  0.56194400  0.06200460  0.95160900  1
  H  1120  1  0.41586500  0.04548160  0.84065700  1
  H  1127  1  0.54761100  0.58850600  0.41022500  1
  H  1128  1  0.48961300  0.57966800  0.44382800  1
  H  1132  1  0.43005400  0.50121600  0.32914700  1
  H  1134  1  0.56189600  0.54800700  0.33923000  1
  H  1136  1  0.41593700  0.56435600  0.45027800  1
  H  1143  1  0.54789300  0.53988200  0.92878100  1
  H  1144  1  0.48997100  0.50622200  0.91989200  1
  H  1148  1  0.42989400  0.62108600  0.84190000  1
  H  1150  1  0.56174200  0.61116900  0.88864200  1
  H  1152  1  0.41611700  0.49991600  0.90482300  1
  H  1159  1  0.54787400  0.07015560  0.36203600  1
  H  1160  1  0.48989300  0.10377700  0.37089900  1
  H  1164  1  0.43002800  0.98894200  0.44902500  1
  H  1166  1  0.56182900  0.99889900  0.40222600  1
  H  1168  1  0.41596700  0.10999800  0.38592600  1
  C  1  1  0.97689800  0.19686400  0.15899900  1
  C  2  1  0.99089400  0.20013100  0.18884100  1
  C  3  1  0.03514000  0.20116900  0.18947800  1
  C  4  1  0.05087600  0.19827200  0.16005100  1
  C  5  1  0.09443400  0.20621100  0.15456900  1
  C  6  1  0.12132400  0.21599000  0.17864900  1
  C  7  1  0.10353600  0.21812800  0.20794900  1
  C  8  1  0.06081900  0.21066100  0.21361500  1
  C  9  1  0.96288900  0.20626700  0.21279200  1
  C  10  1  0.91976800  0.21156700  0.20631400  1
  C  11  1  0.90480700  0.21222600  0.17620800  1
  C  12  1  0.93308100  0.20324800  0.15258500  1
  C  13  1  0.01607000  0.19949300  0.10753100  1
  C  14  1  0.02101700  0.17494700  0.08798100  1
  C  15  1  0.02166000  0.14847800  0.10426800  1
  C  16  1  0.01696500  0.15493100  0.13492300  1
  C  17  1  0.02619500  0.11895200  0.09339400  1
  C  18  1  0.02510200  0.09502100  0.11388900  1
  C  19  1  0.01838800  0.09994600  0.14506500  1
  C  20  1  0.01568500  0.13025100  0.15551000  1
  C  21  1  0.01397300  0.22869700  0.09449300  1
  C  22  1  0.01673600  0.23278100  0.06262100  1
  C  23  1  0.02307000  0.20720000  0.04419800  1
  C  24  1  0.02471000  0.17827100  0.05662600  1
  C  37  1  0.01480700  0.18859700  0.13970600  1
  C  42  1  0.97687800  0.82767700  0.73582600  1
  C  43  1  0.99083900  0.82437300  0.70597900  1
  C  44  1  0.03508200  0.82328400  0.70532200  1
  C  45  1  0.05085000  0.82618200  0.73474000  1
  C  46  1  0.09443100  0.81828500  0.74019600  1
  C  47  1  0.12122500  0.80837700  0.71611100  1
  C  48  1  0.10345300  0.80628500  0.68681000  1
  C  49  1  0.06071600  0.81371800  0.68118500  1
  C  50  1  0.96280900  0.81821000  0.68205400  1
  C  51  1  0.91967200  0.81300200  0.68855200  1
  C  52  1  0.90474300  0.81235800  0.71866900  1
  C  53  1  0.93305900  0.82132500  0.74227000  1
  C  54  1  0.01608500  0.82503100  0.78727200  1
  C  55  1  0.02110100  0.84957700  0.80681200  1
  C  56  1  0.02177600  0.87604100  0.79051600  1
  C  57  1  0.01705800  0.86958300  0.75986400  1
  C  58  1  0.02634800  0.90556800  0.80138300  1
  C  59  1  0.02525300  0.92949400  0.78088500  1
  C  60  1  0.01849500  0.92456700  0.74971300  1
  C  61  1  0.01575600  0.89426200  0.73927700  1
  C  62  1  0.01394000  0.79583300  0.80031800  1
  C  63  1  0.01671200  0.79175500  0.83219100  1
  C  64  1  0.02310200  0.81733500  0.85060500  1
  C  65  1  0.02481100  0.84625500  0.83816600  1
  C  78  1  0.01482200  0.83592000  0.75509500  1
  C  83  1  0.97687800  0.80066500  0.13197400  1
  C  84  1  0.99078200  0.77076900  0.13497500  1
  C  85  1  0.03503500  0.77013400  0.13621700  1
  C  86  1  0.05081400  0.79957100  0.13349200  1
  C  87  1  0.09430700  0.80502000  0.14162800  1
  C  88  1  0.12107000  0.78090400  0.15148800  1
  C  89  1  0.10331500  0.75158300  0.15336700  1
  C  90  1  0.06064000  0.74596900  0.14574800  1
  C  91  1  0.96277000  0.74687400  0.14130800  1
  C  92  1  0.91969100  0.75339500  0.14671900  1
  C  93  1  0.90482600  0.78352300  0.14751100  1
  C  94  1  0.93313600  0.80713200  0.13855800  1
  C  95  1  0.01610600  0.85213200  0.13469000  1
  C  96  1  0.02113100  0.87168600  0.11015600  1
  C  97  1  0.02180700  0.85540900  0.08368100  1
  C  98  1  0.01707400  0.82475400  0.09012100  1
  C  99  1  0.02638000  0.86629300  0.05416200  1
  C  100  1  0.02525900  0.84581200  0.03021900  1
  C  101  1  0.01846400  0.81464200  0.03512600  1
  C  102  1  0.01575500  0.80418500  0.06542500  1
  C  103  1  0.01391000  0.86516800  0.16389100  1
  C  104  1  0.01668500  0.89703800  0.16798700  1
  C  105  1  0.02311100  0.91546400  0.14241900  1
  C  106  1  0.02484600  0.90303900  0.11349200  1
  C  119  1  0.01481800  0.81995800  0.12378700  1
  C  124  1  0.97688800  0.22386900  0.76284700  1
  C  125  1  0.99081000  0.25376200  0.75984400  1
  C  126  1  0.03506600  0.25438600  0.75863400  1
  C  127  1  0.05084600  0.22495400  0.76142300  1
  C  128  1  0.09429200  0.21947100  0.75318200  1
  C  129  1  0.12109400  0.24358300  0.74337000  1
  C  130  1  0.10335600  0.27290900  0.74145900  1
  C  131  1  0.06068100  0.27853600  0.74907400  1
  C  132  1  0.96281200  0.27766900  0.75351800  1
  C  133  1  0.91975200  0.27114800  0.74803300  1
  C  134  1  0.90487100  0.24102500  0.74724600  1
  C  135  1  0.93315200  0.21741300  0.75622900  1
  C  136  1  0.01608100  0.17239200  0.76014500  1
  C  137  1  0.02103000  0.15283300  0.78468200  1
  C  138  1  0.02165600  0.16910500  0.81116000  1
  C  139  1  0.01698000  0.19976300  0.80471800  1
  C  140  1  0.02615900  0.15821500  0.84068400  1
  C  141  1  0.02503900  0.17869700  0.86462600  1
  C  142  1  0.01832300  0.20987400  0.85971300  1
  C  143  1  0.01568600  0.22033400  0.82941200  1
  C  144  1  0.01398200  0.15936400  0.73093900  1
  C  145  1  0.01675600  0.12749300  0.72684300  1
  C  146  1  0.02307700  0.10905900  0.75241500  1
  C  147  1  0.02473300  0.12148000  0.78134700  1
  C  160  1  0.01480400  0.20456700  0.77105000  1
  C  165  1  0.47908600  0.69781400  0.65917800  1
  C  166  1  0.49413400  0.70184200  0.68867300  1
  C  167  1  0.53839900  0.70143500  0.68867500  1
  C  168  1  0.55322900  0.69756600  0.65913900  1
  C  169  1  0.59739800  0.70320200  0.65325100  1
  C  170  1  0.62512700  0.71253800  0.67702800  1
  C  171  1  0.60914000  0.71309400  0.70687200  1
  C  172  1  0.56572800  0.70830000  0.71281900  1
  C  173  1  0.46778300  0.71153600  0.71235300  1
  C  174  1  0.42499300  0.71821700  0.70614400  1
  C  175  1  0.40792800  0.71535900  0.67669300  1
  C  176  1  0.43554900  0.70538700  0.65307400  1
  C  177  1  0.51677500  0.69946000  0.60725000  1
  C  178  1  0.51916300  0.67479300  0.58762200  1
  C  179  1  0.51918300  0.64833100  0.60392900  1
  C  180  1  0.51662100  0.65491200  0.63468000  1
  C  181  1  0.52201700  0.61871900  0.59301200  1
  C  182  1  0.52162600  0.59486400  0.61360400  1
  C  183  1  0.51729400  0.59996000  0.64496400  1
  C  184  1  0.51607200  0.63032200  0.65538000  1
  C  185  1  0.51629000  0.72871700  0.59426200  1
  C  186  1  0.51821100  0.73274700  0.56235500  1
  C  187  1  0.52178300  0.70699000  0.54381000  1
  C  188  1  0.52178000  0.67802200  0.55620400  1
  C  201  1  0.51610800  0.68859100  0.63943600  1
  C  206  1  0.47904100  0.32675800  0.23560600  1
  C  207  1  0.49411500  0.32267600  0.20612200  1
  C  208  1  0.53836400  0.32308100  0.20611700  1
  C  209  1  0.55318700  0.32693400  0.23565400  1
  C  210  1  0.59738200  0.32136800  0.24152700  1
  C  211  1  0.62511100  0.31202500  0.21775200  1
  C  212  1  0.60908800  0.31138600  0.18791900  1
  C  213  1  0.56568600  0.31620000  0.18196900  1
  C  214  1  0.46768400  0.31315800  0.18241300  1
  C  215  1  0.42491600  0.30642500  0.18865300  1
  C  216  1  0.40785500  0.30928000  0.21810500  1
  C  217  1  0.43549400  0.31922600  0.24171900  1
  C  218  1  0.51672300  0.32509000  0.28753500  1
  C  219  1  0.51913500  0.34975700  0.30716100  1
  C  220  1  0.51918300  0.37621700  0.29085200  1
  C  221  1  0.51663000  0.36963500  0.26009800  1
  C  222  1  0.52202400  0.40582900  0.30176500  1
  C  223  1  0.52167100  0.42968100  0.28116900  1
  C  224  1  0.51734200  0.42458300  0.24981000  1
  C  225  1  0.51609800  0.39422100  0.23939600  1
  C  226  1  0.51621700  0.29583300  0.30052500  1
  C  227  1  0.51813700  0.29180500  0.33243200  1
  C  228  1  0.52172200  0.31756200  0.35097400  1
  C  229  1  0.52174500  0.34652800  0.33857900  1
  C  242  1  0.51607900  0.33595400  0.25534900  1
  C  247  1  0.47913100  0.30047600  0.63311200  1
  C  248  1  0.49420400  0.27100400  0.63723900  1
  C  249  1  0.53844100  0.27099000  0.63675500  1
  C  250  1  0.55327400  0.30050100  0.63271500  1
  C  251  1  0.59750000  0.30638000  0.63815100  1
  C  252  1  0.62526200  0.28262700  0.64750100  1
  C  253  1  0.60923900  0.25279600  0.64824300  1
  C  254  1  0.56579500  0.24685400  0.64360600  1
  C  255  1  0.46778600  0.24732500  0.64684800  1
  C  256  1  0.42495800  0.25353100  0.65342100  1
  C  257  1  0.40789600  0.28296500  0.65044300  1
  C  258  1  0.43546200  0.30655600  0.64032900  1
  C  259  1  0.51681300  0.35237100  0.63457900  1
  C  260  1  0.51914400  0.37198100  0.60989600  1
  C  261  1  0.51910900  0.35565200  0.58344500  1
  C  262  1  0.51654700  0.32490300  0.59004900  1
  C  263  1  0.52190500  0.36655000  0.55382600  1
  C  264  1  0.52151100  0.34594000  0.52998700  1
  C  265  1  0.51723000  0.31458100  0.53510500  1
  C  266  1  0.51597300  0.30418500  0.56547600  1
  C  267  1  0.51639600  0.36537700  0.66382900  1
  C  268  1  0.51834300  0.39728600  0.66783400  1
  C  269  1  0.52186700  0.41581100  0.64205900  1
  C  270  1  0.52176400  0.40340200  0.61310000  1
  C  283  1  0.51612100  0.32017900  0.62373200  1
  C  288  1  0.47912400  0.72404900  0.26163800  1
  C  289  1  0.49419800  0.75350600  0.25744600  1
  C  290  1  0.53843700  0.75355300  0.25801600  1
  C  291  1  0.55327400  0.72404400  0.26209100  1
  C  292  1  0.59750700  0.71816700  0.25668300  1
  C  293  1  0.62527100  0.74192100  0.24733300  1
  C  294  1  0.60925500  0.77175300  0.24659300  1
  C  295  1  0.56580800  0.77769800  0.25122900  1
  C  296  1  0.46780900  0.77722700  0.24790500  1
  C  297  1  0.42501600  0.77099900  0.24125100  1
  C  298  1  0.40790600  0.74158300  0.24429100  1
  C  299  1  0.43545300  0.71798700  0.25443200  1
  C  300  1  0.51681300  0.67217000  0.26020600  1
  C  301  1  0.51908700  0.65256200  0.28489400  1
  C  302  1  0.51899700  0.66889100  0.31134200  1
  C  303  1  0.51648900  0.69964000  0.30473600  1
  C  304  1  0.52179900  0.65799500  0.34096300  1
  C  305  1  0.52142400  0.67860700  0.36479700  1
  C  306  1  0.51717200  0.70996900  0.35967700  1
  C  307  1  0.51593100  0.72036300  0.32930400  1
  C  308  1  0.51646000  0.65916400  0.23095600  1
  C  309  1  0.51838100  0.62725500  0.22695300  1
  C  310  1  0.52184100  0.60872800  0.25273200  1
  C  311  1  0.52170300  0.62113900  0.28169200  1
  C  324  1  0.51611100  0.70436200  0.27105300  1
  C  329  1  0.99770100  0.02440500  0.17451800  1
  C  330  1  0.96604100  0.00183000  0.17045600  1
  C  331  1  0.97140200  0.97257800  0.18141800  1
  C  332  1  0.00864800  0.96346300  0.19693700  1
  C  333  1  0.04007600  0.98601600  0.20191300  1
  C  334  1  0.03501000  0.01569200  0.19062800  1
  C  339  1  0.91161100  0.97631600  0.15865000  1
  C  341  1  0.99375100  0.05195400  0.15938100  1
  C  343  1  0.01276900  0.93463000  0.20912300  1
  C  345  1  0.99781700  0.00011400  0.72027300  1
  C  346  1  0.96614000  0.02268200  0.72431400  1
  C  347  1  0.97150800  0.05193600  0.71335900  1
  C  348  1  0.00877600  0.06106300  0.69787200  1
  C  349  1  0.04022300  0.03851700  0.69291500  1
  C  350  1  0.03514900  0.00883700  0.70419200  1
  C  355  1  0.91168200  0.04818400  0.73608600  1
  C  357  1  0.99386300  0.97256700  0.73541100  1
  C  359  1  0.01291300  0.08989900  0.68569700  1
  C  361  1  0.99778800  0.78523400  0.95957000  1
  C  362  1  0.96611400  0.78928500  0.93700300  1
  C  363  1  0.97147200  0.77832400  0.90775100  1
  C  364  1  0.00872500  0.76281600  0.89862700  1
  C  365  1  0.04016700  0.75785100  0.92117300  1
  C  366  1  0.03510300  0.76913500  0.95084800  1
  C  371  1  0.91166200  0.80106800  0.91150300  1
  C  373  1  0.99383400  0.80035400  0.98712900  1
  C  375  1  0.01284500  0.75062800  0.86979700  1
  C  377  1  0.99772400  0.23932000  0.93525900  1
  C  378  1  0.96606300  0.23530500  0.95784500  1
  C  379  1  0.97147600  0.24626400  0.98709400  1
  C  380  1  0.00877300  0.26173100  0.99619400  1
  C  381  1  0.04020100  0.26666000  0.97363100  1
  C  382  1  0.03508300  0.25538100  0.94395800  1
  C  387  1  0.91161100  0.22358400  0.98337700  1
  C  389  1  0.99370000  0.22420400  0.90770000  1
  C  391  1  0.01294900  0.27391700  0.02502100  1
  C  393  1  0.49887600  0.52454100  0.67539000  1
  C  394  1  0.46701400  0.50192000  0.67257600  1
  C  395  1  0.47335000  0.47267300  0.68328300  1
  C  396  1  0.51182700  0.46361200  0.69728000  1
  C  397  1  0.54352600  0.48621300  0.70103000  1
  C  398  1  0.53745000  0.51588600  0.68999500  1
  C  403  1  0.41185600  0.47630100  0.66285200  1
  C  405  1  0.49367200  0.55205900  0.66039600  1
  C  407  1  0.51706600  0.43476300  0.70918900  1
  C  409  1  0.49897200  0.50000200  0.21937400  1
  C  410  1  0.46710000  0.52262300  0.22216100  1
  C  411  1  0.47345500  0.55186800  0.21145800  1
  C  412  1  0.51196200  0.56092900  0.19749600  1
  C  413  1  0.54366700  0.53833100  0.19377100  1
  C  414  1  0.53757200  0.50865500  0.20480200  1
  C  419  1  0.41192700  0.54824300  0.23184200  1
  C  421  1  0.49374600  0.47248600  0.23436900  1
  C  423  1  0.51723000  0.58978000  0.18559500  1
  C  425  1  0.49868100  0.28416000  0.45969900  1
  C  426  1  0.46680800  0.28701600  0.43709100  1
  C  427  1  0.47311600  0.27633100  0.40783000  1
  C  428  1  0.51156700  0.26231900  0.39874500  1
  C  429  1  0.54327600  0.25852700  0.42133000  1
  C  430  1  0.53723500  0.26954200  0.45101700  1
  C  435  1  0.41164800  0.29680200  0.41149600  1
  C  437  1  0.49351500  0.29914300  0.48722800  1
  C  439  1  0.51676500  0.25042500  0.36988200  1
  C  441  1  0.49869300  0.74040100  0.43509200  1
  C  442  1  0.46683400  0.73755000  0.45771400  1
  C  443  1  0.47316700  0.74823000  0.48697300  1
  C  444  1  0.51163200  0.76223300  0.49604300  1
  C  445  1  0.54332400  0.76602100  0.47344300  1
  C  446  1  0.53725700  0.75501000  0.44376000  1
  C  451  1  0.41169000  0.72777300  0.48333200  1
  C  453  1  0.49349900  0.72542000  0.40756300  1
  C  455  1  0.51685200  0.77412400  0.52490300  1
  C  457  1  0.72391500  0.27141800  0.20850900  1
  C  458  1  0.73997600  0.24185800  0.21209500  1
  C  459  1  0.78053100  0.23377200  0.20151000  1
  C  460  1  0.80733100  0.25411600  0.18584900  1
  C  461  1  0.79154500  0.28385200  0.18234500  1
  C  462  1  0.75043900  0.29218600  0.19292600  1
  C  467  1  0.75127600  0.19677700  0.22415500  1
  C  469  1  0.68091900  0.27748900  0.21407600  1
  C  471  1  0.85026200  0.24770300  0.18039200  1
  C  473  1  0.72389200  0.75317000  0.68630700  1
  C  474  1  0.73999200  0.78271000  0.68266100  1
  C  475  1  0.78052800  0.79080300  0.69327300  1
  C  476  1  0.80726300  0.77048800  0.70902500  1
  C  477  1  0.79143300  0.74077200  0.71259500  1
  C  478  1  0.75034600  0.73243200  0.70198200  1
  C  483  1  0.75137200  0.82775300  0.67049600  1
  C  485  1  0.68090000  0.74710200  0.68072000  1
  C  487  1  0.85018200  0.77690800  0.71454200  1
  C  489  1  0.72412300  0.75106200  0.20679400  1
  C  490  1  0.74027400  0.74739000  0.17726700  1
  C  491  1  0.78080700  0.75801800  0.16918500  1
  C  492  1  0.80750100  0.77380900  0.18949600  1
  C  493  1  0.79163500  0.77739600  0.21920100  1
  C  494  1  0.75054100  0.76677700  0.22752800  1
  C  499  1  0.75171800  0.73518600  0.13224100  1
  C  501  1  0.68112100  0.74545300  0.21281600  1
  C  503  1  0.85042200  0.77934600  0.18309300  1
  C  505  1  0.72414200  0.27347400  0.68800200  1
  C  506  1  0.74029300  0.27713700  0.71752800  1
  C  507  1  0.78083600  0.26651800  0.72559700  1
  C  508  1  0.80753600  0.25075000  0.70527100  1
  C  509  1  0.79166700  0.24717400  0.67556800  1
  C  510  1  0.75056700  0.25778400  0.66725400  1
  C  515  1  0.75173700  0.28931700  0.76256000  1
  C  517  1  0.68113100  0.27907400  0.68199200  1
  C  519  1  0.85046100  0.24522000  0.71166400  1
  C  521  1  0.29912200  0.75472100  0.21911600  1
  C  522  1  0.26433000  0.77380500  0.22671700  1
  C  523  1  0.23079100  0.77946500  0.20663200  1
  C  524  1  0.22948000  0.76689900  0.17739600  1
  C  525  1  0.26432100  0.74778400  0.16964900  1
  C  526  1  0.29843100  0.74203100  0.18981700  1
  C  531  1  0.22019800  0.80269400  0.24799300  1
  C  533  1  0.33495300  0.75325300  0.23795600  1
  C  535  1  0.19370900  0.76858500  0.15847600  1
  C  537  1  0.29909400  0.26983700  0.67566200  1
  C  538  1  0.26428700  0.25077700  0.66804400  1
  C  539  1  0.23075700  0.24508900  0.68813100  1
  C  540  1  0.22946800  0.25760800  0.71738700  1
  C  541  1  0.26431900  0.27671000  0.72514900  1
  C  542  1  0.29842100  0.28248500  0.70497900  1
  C  547  1  0.22014400  0.22191400  0.64674300  1
  C  549  1  0.33494600  0.27131000  0.65684100  1
  C  551  1  0.19372800  0.25587500  0.73633500  1
  C  553  1  0.29922300  0.28373500  0.20493300  1
  C  554  1  0.26436800  0.29136100  0.18592100  1
  C  555  1  0.23088600  0.27124700  0.18020600  1
  C  556  1  0.22970500  0.24195200  0.19264000  1
  C  557  1  0.26461800  0.23417300  0.21167600  1
  C  558  1  0.29867200  0.25437500  0.21748300  1
  C  563  1  0.22007800  0.31270800  0.15720300  1
  C  565  1  0.33496200  0.30265100  0.20649700  1
  C  567  1  0.19394500  0.22302500  0.19094800  1
  C  569  1  0.29927300  0.74086900  0.68987500  1
  C  570  1  0.26443600  0.73323300  0.70890600  1
  C  571  1  0.23092100  0.75332500  0.71460400  1
  C  572  1  0.22968400  0.78260700  0.70213600  1
  C  573  1  0.26458000  0.79039500  0.68308500  1
  C  574  1  0.29866800  0.77021500  0.67729500  1
  C  579  1  0.22018500  0.71187800  0.73764800  1
  C  581  1  0.33503600  0.72197300  0.68831300  1
  C  583  1  0.19388900  0.80150500  0.70379500  1
  C  585  1  0.20135000  0.48958600  0.85702700  1
  C  586  1  0.21534600  0.49285300  0.88686900  1
  C  587  1  0.25959200  0.49389100  0.88750600  1
  C  588  1  0.27532800  0.49099400  0.85807900  1
  C  589  1  0.31888600  0.49893300  0.85259700  1
  C  590  1  0.34577600  0.50871200  0.87667700  1
  C  591  1  0.32798800  0.51085000  0.90597700  1
  C  592  1  0.28527100  0.50338300  0.91164300  1
  C  593  1  0.18734100  0.49898900  0.91082000  1
  C  594  1  0.14422000  0.50428900  0.90434200  1
  C  595  1  0.12925900  0.50494800  0.87423600  1
  C  596  1  0.15753300  0.49597000  0.85061300  1
  C  597  1  0.24052200  0.49221500  0.80555900  1
  C  598  1  0.24546900  0.46766900  0.78600900  1
  C  599  1  0.24611200  0.44120000  0.80229600  1
  C  600  1  0.24141700  0.44765300  0.83295100  1
  C  601  1  0.25064700  0.41167400  0.79142200  1
  C  602  1  0.24955400  0.38774300  0.81191700  1
  C  603  1  0.24284000  0.39266800  0.84309300  1
  C  604  1  0.24013700  0.42297300  0.85353800  1
  C  605  1  0.23842500  0.52141900  0.79252100  1
  C  606  1  0.24118800  0.52550300  0.76064900  1
  C  607  1  0.24752200  0.49992200  0.74222600  1
  C  608  1  0.24916200  0.47099300  0.75465400  1
  C  621  1  0.23925900  0.48131900  0.83773400  1
  C  626  1  0.20133000  0.12039900  0.43385400  1
  C  627  1  0.21529100  0.11709500  0.40400700  1
  C  628  1  0.25953400  0.11600600  0.40335000  1
  C  629  1  0.27530200  0.11890400  0.43276800  1
  C  630  1  0.31888300  0.11100700  0.43822400  1
  C  631  1  0.34567700  0.10109900  0.41413900  1
  C  632  1  0.32790500  0.09900660  0.38483800  1
  C  633  1  0.28516800  0.10644000  0.37921300  1
  C  634  1  0.18726100  0.11093200  0.38008200  1
  C  635  1  0.14412400  0.10572400  0.38658000  1
  C  636  1  0.12919500  0.10508000  0.41669700  1
  C  637  1  0.15751100  0.11404700  0.44029800  1
  C  638  1  0.24053700  0.11775300  0.48530000  1
  C  639  1  0.24555300  0.14229900  0.50484000  1
  C  640  1  0.24622800  0.16876300  0.48854400  1
  C  641  1  0.24151000  0.16230500  0.45789200  1
  C  642  1  0.25080000  0.19829000  0.49941100  1
  C  643  1  0.24970500  0.22221600  0.47891300  1
  C  644  1  0.24294700  0.21728900  0.44774100  1
  C  645  1  0.24020800  0.18698400  0.43730500  1
  C  646  1  0.23839200  0.08855460  0.49834600  1
  C  647  1  0.24116400  0.08447660  0.53021900  1
  C  648  1  0.24755400  0.11005700  0.54863300  1
  C  649  1  0.24926300  0.13897700  0.53619400  1
  C  662  1  0.23927400  0.12864200  0.45312300  1
  C  667  1  0.20133000  0.09338660  0.83000200  1
  C  668  1  0.21523400  0.06349060  0.83300300  1
  C  669  1  0.25948700  0.06285560  0.83424500  1
  C  670  1  0.27526600  0.09229260  0.83152000  1
  C  671  1  0.31875900  0.09774160  0.83965600  1
  C  672  1  0.34552200  0.07362560  0.84951600  1
  C  673  1  0.32776700  0.04430460  0.85139500  1
  C  674  1  0.28509200  0.03869060  0.84377600  1
  C  675  1  0.18722200  0.03959560  0.83933600  1
  C  676  1  0.14414300  0.04611660  0.84474700  1
  C  677  1  0.12927800  0.07624460  0.84553900  1
  C  678  1  0.15758800  0.09985360  0.83658600  1
  C  679  1  0.24055800  0.14485400  0.83271800  1
  C  680  1  0.24558300  0.16440800  0.80818400  1
  C  681  1  0.24625900  0.14813100  0.78170900  1
  C  682  1  0.24152600  0.11747600  0.78814900  1
  C  683  1  0.25083200  0.15901500  0.75219000  1
  C  684  1  0.24971100  0.13853400  0.72824700  1
  C  685  1  0.24291600  0.10736400  0.73315400  1
  C  686  1  0.24020700  0.09690660  0.76345300  1
  C  687  1  0.23836200  0.15789000  0.86191900  1
  C  688  1  0.24113700  0.18976000  0.86601500  1
  C  689  1  0.24756300  0.20818600  0.84044700  1
  C  690  1  0.24929800  0.19576100  0.81152000  1
  C  703  1  0.23927000  0.11268000  0.82181500  1
  C  708  1  0.20134000  0.51659100  0.46087500  1
  C  709  1  0.21526200  0.54648400  0.45787200  1
  C  710  1  0.25951800  0.54710800  0.45666200  1
  C  711  1  0.27529800  0.51767600  0.45945100  1
  C  712  1  0.31874400  0.51219300  0.45121000  1
  C  713  1  0.34554600  0.53630500  0.44139800  1
  C  714  1  0.32780800  0.56563100  0.43948700  1
  C  715  1  0.28513300  0.57125800  0.44710200  1
  C  716  1  0.18726400  0.57039100  0.45154600  1
  C  717  1  0.14420400  0.56387000  0.44606100  1
  C  718  1  0.12932300  0.53374700  0.44527400  1
  C  719  1  0.15760400  0.51013500  0.45425700  1
  C  720  1  0.24053300  0.46511400  0.45817300  1
  C  721  1  0.24548200  0.44555500  0.48271000  1
  C  722  1  0.24610800  0.46182700  0.50918800  1
  C  723  1  0.24143200  0.49248500  0.50274600  1
  C  724  1  0.25061100  0.45093700  0.53871200  1
  C  725  1  0.24949100  0.47141900  0.56265400  1
  C  726  1  0.24277500  0.50259600  0.55774100  1
  C  727  1  0.24013800  0.51305600  0.52744000  1
  C  728  1  0.23843400  0.45208600  0.42896700  1
  C  729  1  0.24120800  0.42021500  0.42487100  1
  C  730  1  0.24752900  0.40178100  0.45044300  1
  C  731  1  0.24918500  0.41420200  0.47937500  1
  C  744  1  0.23925600  0.49728900  0.46907800  1
  C  749  1  0.70353800  0.99053600  0.35720600  1
  C  750  1  0.71858600  0.99456400  0.38670100  1
  C  751  1  0.76285100  0.99415700  0.38670300  1
  C  752  1  0.77768100  0.99028800  0.35716700  1
  C  753  1  0.82185000  0.99592400  0.35127900  1
  C  754  1  0.84957900  0.00525959  0.37505600  1
  C  755  1  0.83359200  0.00581559  0.40490000  1
  C  756  1  0.79018000  0.00102159  0.41084700  1
  C  757  1  0.69223500  0.00425759  0.41038100  1
  C  758  1  0.64944500  0.01093860  0.40417200  1
  C  759  1  0.63238000  0.00808059  0.37472100  1
  C  760  1  0.66000100  0.99810900  0.35110200  1
  C  761  1  0.74122700  0.99218200  0.30527800  1
  C  762  1  0.74361500  0.96751500  0.28565000  1
  C  763  1  0.74363500  0.94105300  0.30195700  1
  C  764  1  0.74107300  0.94763400  0.33270800  1
  C  765  1  0.74646900  0.91144100  0.29104000  1
  C  766  1  0.74607800  0.88758600  0.31163200  1
  C  767  1  0.74174600  0.89268200  0.34299200  1
  C  768  1  0.74052400  0.92304400  0.35340800  1
  C  769  1  0.74074200  0.02143860  0.29229000  1
  C  770  1  0.74266300  0.02546860  0.26038300  1
  C  771  1  0.74623500  0.99971200  0.24183800  1
  C  772  1  0.74623200  0.97074400  0.25423200  1
  C  785  1  0.74056000  0.98131300  0.33746400  1
  C  790  1  0.70349300  0.61948000  0.93363400  1
  C  791  1  0.71856700  0.61539800  0.90415000  1
  C  792  1  0.76281600  0.61580300  0.90414500  1
  C  793  1  0.77763900  0.61965600  0.93368200  1
  C  794  1  0.82183400  0.61409000  0.93955500  1
  C  795  1  0.84956300  0.60474700  0.91578000  1
  C  796  1  0.83354000  0.60410800  0.88594700  1
  C  797  1  0.79013800  0.60892200  0.87999700  1
  C  798  1  0.69213600  0.60588000  0.88044100  1
  C  799  1  0.64936800  0.59914700  0.88668100  1
  C  800  1  0.63230700  0.60200200  0.91613300  1
  C  801  1  0.65994600  0.61194800  0.93974700  1
  C  802  1  0.74117500  0.61781200  0.98556300  1
  C  803  1  0.74358700  0.64247900  0.00518941  1
  C  804  1  0.74363500  0.66893900  0.98888000  1
  C  805  1  0.74108200  0.66235700  0.95812600  1
  C  806  1  0.74647600  0.69855100  0.99979300  1
  C  807  1  0.74612300  0.72240300  0.97919700  1
  C  808  1  0.74179400  0.71730500  0.94783800  1
  C  809  1  0.74055000  0.68694300  0.93742400  1
  C  810  1  0.74066900  0.58855500  0.99855300  1
  C  811  1  0.74258900  0.58452700  0.03046040  1
  C  812  1  0.74617400  0.61028400  0.04900240  1
  C  813  1  0.74619700  0.63925000  0.03660740  1
  C  826  1  0.74053100  0.62867600  0.95337700  1
  C  831  1  0.70358300  0.59319800  0.33114000  1
  C  832  1  0.71865600  0.56372600  0.33526700  1
  C  833  1  0.76289300  0.56371200  0.33478300  1
  C  834  1  0.77772600  0.59322300  0.33074300  1
  C  835  1  0.82195200  0.59910200  0.33617900  1
  C  836  1  0.84971400  0.57534900  0.34552900  1
  C  837  1  0.83369100  0.54551800  0.34627100  1
  C  838  1  0.79024700  0.53957600  0.34163400  1
  C  839  1  0.69223800  0.54004700  0.34487600  1
  C  840  1  0.64941000  0.54625300  0.35144900  1
  C  841  1  0.63234800  0.57568700  0.34847100  1
  C  842  1  0.65991400  0.59927800  0.33835700  1
  C  843  1  0.74126500  0.64509300  0.33260700  1
  C  844  1  0.74359600  0.66470300  0.30792400  1
  C  845  1  0.74356100  0.64837400  0.28147300  1
  C  846  1  0.74099900  0.61762500  0.28807700  1
  C  847  1  0.74635700  0.65927200  0.25185400  1
  C  848  1  0.74596300  0.63866200  0.22801500  1
  C  849  1  0.74168200  0.60730300  0.23313300  1
  C  850  1  0.74042500  0.59690700  0.26350400  1
  C  851  1  0.74084800  0.65809900  0.36185700  1
  C  852  1  0.74279500  0.69000800  0.36586200  1
  C  853  1  0.74631900  0.70853300  0.34008700  1
  C  854  1  0.74621600  0.69612400  0.31112800  1
  C  867  1  0.74057300  0.61290100  0.32176000  1
  C  872  1  0.70357600  0.01677060  0.95966600  1
  C  873  1  0.71865000  0.04622760  0.95547400  1
  C  874  1  0.76288900  0.04627460  0.95604400  1
  C  875  1  0.77772600  0.01676560  0.96011900  1
  C  876  1  0.82195900  0.01088860  0.95471100  1
  C  877  1  0.84972300  0.03464260  0.94536100  1
  C  878  1  0.83370700  0.06447460  0.94462100  1
  C  879  1  0.79026000  0.07041960  0.94925700  1
  C  880  1  0.69226100  0.06994860  0.94593300  1
  C  881  1  0.64946800  0.06372060  0.93927900  1
  C  882  1  0.63235800  0.03430460  0.94231900  1
  C  883  1  0.65990500  0.01070860  0.95246000  1
  C  884  1  0.74126500  0.96489200  0.95823400  1
  C  885  1  0.74353900  0.94528400  0.98292200  1
  C  886  1  0.74344900  0.96161300  0.00937041  1
  C  887  1  0.74094100  0.99236200  0.00276441  1
  C  888  1  0.74625100  0.95071700  0.03899140  1
  C  889  1  0.74587600  0.97132900  0.06282540  1
  C  890  1  0.74162400  0.00269059  0.05770540  1
  C  891  1  0.74038300  0.01308460  0.02733240  1
  C  892  1  0.74091200  0.95188600  0.92898400  1
  C  893  1  0.74283300  0.91997700  0.92498100  1
  C  894  1  0.74629300  0.90145000  0.95076000  1
  C  895  1  0.74615500  0.91386100  0.97972000  1
  C  908  1  0.74056300  0.99708400  0.96908100  1
  C  913  1  0.22215300  0.31712700  0.87254600  1
  C  914  1  0.19049300  0.29455200  0.86848400  1
  C  915  1  0.19585400  0.26530000  0.87944600  1
  C  916  1  0.23310000  0.25618500  0.89496500  1
  C  917  1  0.26452800  0.27873800  0.89994100  1
  C  918  1  0.25946200  0.30841400  0.88865600  1
  C  923  1  0.13606300  0.26903800  0.85667800  1
  C  925  1  0.21820300  0.34467600  0.85740900  1
  C  927  1  0.23722100  0.22735200  0.90715100  1
  C  929  1  0.22226900  0.29283600  0.41830100  1
  C  930  1  0.19059200  0.31540400  0.42234200  1
  C  931  1  0.19596000  0.34465800  0.41138700  1
  C  932  1  0.23322800  0.35378500  0.39590000  1
  C  933  1  0.26467500  0.33123900  0.39094300  1
  C  934  1  0.25960100  0.30155900  0.40222000  1
  C  939  1  0.13613400  0.34090600  0.43411400  1
  C  941  1  0.21831500  0.26528900  0.43343900  1
  C  943  1  0.23736500  0.38262100  0.38372500  1
  C  945  1  0.22224000  0.07795560  0.65759800  1
  C  946  1  0.19056600  0.08200660  0.63503100  1
  C  947  1  0.19592400  0.07104560  0.60577900  1
  C  948  1  0.23317700  0.05553760  0.59665500  1
  C  949  1  0.26461900  0.05057260  0.61920100  1
  C  950  1  0.25955500  0.06185660  0.64887600  1
  C  955  1  0.13611400  0.09378960  0.60953100  1
  C  957  1  0.21828600  0.09307560  0.68515700  1
  C  959  1  0.23729700  0.04334960  0.56782500  1
  C  961  1  0.22217600  0.53204200  0.63328700  1
  C  962  1  0.19051500  0.52802700  0.65587300  1
  C  963  1  0.19592800  0.53898600  0.68512200  1
  C  964  1  0.23322500  0.55445300  0.69422200  1
  C  965  1  0.26465300  0.55938200  0.67165900  1
  C  966  1  0.25953500  0.54810300  0.64198600  1
  C  971  1  0.13606300  0.51630600  0.68140500  1
  C  973  1  0.21815200  0.51692600  0.60572800  1
  C  975  1  0.23740100  0.56663900  0.72304900  1
  C  977  1  0.72332800  0.81726300  0.37341800  1
  C  978  1  0.69146600  0.79464200  0.37060400  1
  C  979  1  0.69780200  0.76539500  0.38131100  1
  C  980  1  0.73627900  0.75633400  0.39530800  1
  C  981  1  0.76797800  0.77893500  0.39905800  1
  C  982  1  0.76190200  0.80860800  0.38802300  1
  C  987  1  0.63630800  0.76902300  0.36088000  1
  C  989  1  0.71812400  0.84478100  0.35842400  1
  C  991  1  0.74151800  0.72748500  0.40721700  1
  C  993  1  0.72342400  0.79272400  0.91740200  1
  C  994  1  0.69155200  0.81534500  0.92018900  1
  C  995  1  0.69790700  0.84459000  0.90948600  1
  C  996  1  0.73641400  0.85365100  0.89552400  1
  C  997  1  0.76811900  0.83105300  0.89179900  1
  C  998  1  0.76202400  0.80137700  0.90283000  1
  C  1003  1  0.63637900  0.84096500  0.92987000  1
  C  1005  1  0.71819800  0.76520800  0.93239700  1
  C  1007  1  0.74168200  0.88250200  0.88362300  1
  C  1009  1  0.72313300  0.57688200  0.15772700  1
  C  1010  1  0.69126000  0.57973800  0.13511900  1
  C  1011  1  0.69756800  0.56905300  0.10585800  1
  C  1012  1  0.73601900  0.55504100  0.09677340  1
  C  1013  1  0.76772800  0.55124900  0.11935800  1
  C  1014  1  0.76168700  0.56226400  0.14904500  1
  C  1019  1  0.63610000  0.58952400  0.10952400  1
  C  1021  1  0.71796700  0.59186500  0.18525600  1
  C  1023  1  0.74121700  0.54314700  0.06791040  1
  C  1025  1  0.72314500  0.03312260  0.13312000  1
  C  1026  1  0.69128600  0.03027160  0.15574200  1
  C  1027  1  0.69761900  0.04095160  0.18500100  1
  C  1028  1  0.73608400  0.05495460  0.19407100  1
  C  1029  1  0.76777600  0.05874260  0.17147100  1
  C  1030  1  0.76170900  0.04773160  0.14178800  1
  C  1035  1  0.63614200  0.02049460  0.18136000  1
  C  1037  1  0.71795100  0.01814160  0.10559100  1
  C  1039  1  0.74130400  0.06684560  0.22293100  1
  C  1041  1  0.94836700  0.56414000  0.90653700  1
  C  1042  1  0.96442800  0.53458000  0.91012300  1
  C  1043  1  0.00498278  0.52649400  0.89953800  1
  C  1044  1  0.03178280  0.54683800  0.88387700  1
  C  1045  1  0.01599680  0.57657400  0.88037300  1
  C  1046  1  0.97489100  0.58490800  0.89095400  1
  C  1051  1  0.97572800  0.48949900  0.92218300  1
  C  1053  1  0.90537100  0.57021100  0.91210400  1
  C  1055  1  0.07471380  0.54042500  0.87842000  1
  C  1057  1  0.94834400  0.04589160  0.38433500  1
  C  1058  1  0.96444400  0.07543160  0.38068900  1
  C  1059  1  0.00497978  0.08352460  0.39130100  1
  C  1060  1  0.03171480  0.06320960  0.40705300  1
  C  1061  1  0.01588480  0.03349360  0.41062300  1
  C  1062  1  0.97479800  0.02515360  0.40001000  1
  C  1067  1  0.97582400  0.12047500  0.36852400  1
  C  1069  1  0.90535200  0.03982360  0.37874800  1
  C  1071  1  0.07463380  0.06962960  0.41257000  1
  C  1073  1  0.94857500  0.04378360  0.90482200  1
  C  1074  1  0.96472600  0.04011160  0.87529500  1
  C  1075  1  0.00525878  0.05073960  0.86721300  1
  C  1076  1  0.03195280  0.06653060  0.88752400  1
  C  1077  1  0.01608680  0.07011760  0.91722900  1
  C  1078  1  0.97499300  0.05949860  0.92555600  1
  C  1083  1  0.97617000  0.02790760  0.83026900  1
  C  1085  1  0.90557300  0.03817460  0.91084400  1
  C  1087  1  0.07487380  0.07206760  0.88112100  1
  C  1089  1  0.94859400  0.56619600  0.38603000  1
  C  1090  1  0.96474500  0.56985900  0.41555600  1
  C  1091  1  0.00528778  0.55924000  0.42362500  1
  C  1092  1  0.03198780  0.54347200  0.40329900  1
  C  1093  1  0.01611880  0.53989600  0.37359600  1
  C  1094  1  0.97501900  0.55050600  0.36528200  1
  C  1099  1  0.97618900  0.58203900  0.46058800  1
  C  1101  1  0.90558300  0.57179600  0.38002000  1
  C  1103  1  0.07491280  0.53794200  0.40969200  1
  C  1105  1  0.52357400  0.04744260  0.91714400  1
  C  1106  1  0.48878200  0.06652660  0.92474500  1
  C  1107  1  0.45524300  0.07218660  0.90466000  1
  C  1108  1  0.45393200  0.05962060  0.87542400  1
  C  1109  1  0.48877300  0.04050560  0.86767700  1
  C  1110  1  0.52288300  0.03475260  0.88784500  1
  C  1115  1  0.44465000  0.09541560  0.94602100  1
  C  1117  1  0.55940500  0.04597460  0.93598400  1
  C  1119  1  0.41816100  0.06130660  0.85650400  1
  C  1121  1  0.52354600  0.56255900  0.37369000  1
  C  1122  1  0.48873900  0.54349900  0.36607200  1
  C  1123  1  0.45520900  0.53781100  0.38615900  1
  C  1124  1  0.45392000  0.55033000  0.41541500  1
  C  1125  1  0.48877100  0.56943200  0.42317700  1
  C  1126  1  0.52287300  0.57520700  0.40300700  1
  C  1131  1  0.44459600  0.51463600  0.34477100  1
  C  1133  1  0.55939800  0.56403200  0.35486900  1
  C  1135  1  0.41818000  0.54859700  0.43436300  1
  C  1137  1  0.52367500  0.57645700  0.90296100  1
  C  1138  1  0.48882000  0.58408300  0.88394900  1
  C  1139  1  0.45533800  0.56396900  0.87823400  1
  C  1140  1  0.45415700  0.53467400  0.89066800  1
  C  1141  1  0.48907000  0.52689500  0.90970400  1
  C  1142  1  0.52312400  0.54709700  0.91551100  1
  C  1147  1  0.44453000  0.60543000  0.85523100  1
  C  1149  1  0.55941400  0.59537300  0.90452500  1
  C  1151  1  0.41839700  0.51574700  0.88897600  1
  C  1153  1  0.52372500  0.03359060  0.38790300  1
  C  1154  1  0.48888800  0.02595460  0.40693400  1
  C  1155  1  0.45537300  0.04604660  0.41263200  1
  C  1156  1  0.45413600  0.07532860  0.40016400  1
  C  1157  1  0.48903200  0.08311660  0.38111300  1
  C  1158  1  0.52312000  0.06293660  0.37532300  1
  C  1163  1  0.44463700  0.00459959  0.43567600  1
  C  1165  1  0.55948800  0.01469460  0.38634100  1
  C  1167  1  0.41834100  0.09422660  0.40182300  1
  N  38  1  0.01759600  0.07556200  0.16316800  1
  N  39  1  0.86408200  0.22123300  0.17293700  1
  N  40  1  0.16011300  0.22855700  0.17500100  1
  N  41  1  0.01563400  0.26047300  0.05079800  1
  N  79  1  0.01769300  0.94895100  0.73160900  1
  N  80  1  0.86401400  0.80337600  0.72197200  1
  N  81  1  0.16009300  0.79593200  0.71977000  1
  N  82  1  0.01554500  0.76406600  0.84401700  1
  N  120  1  0.01766300  0.79654700  0.01074000  1
  N  121  1  0.86415200  0.78683100  0.15661200  1
  N  122  1  0.15987700  0.78452500  0.16404200  1
  N  123  1  0.01548800  0.90885500  0.19567900  1
  N  161  1  0.01755800  0.22797400  0.88409700  1
  N  162  1  0.86419700  0.23772100  0.73814100  1
  N  163  1  0.15986100  0.23998200  0.73074100  1
  N  164  1  0.01560800  0.11567300  0.69914900  1
  N  202  1  0.51782000  0.57565200  0.66316400  1
  N  203  1  0.36904000  0.72766300  0.67257900  1
  N  204  1  0.66628800  0.72063100  0.67410100  1
  N  205  1  0.51887500  0.76047500  0.55059900  1
  N  243  1  0.51788700  0.44888800  0.23160700  1
  N  244  1  0.36897300  0.29697000  0.22222400  1
  N  245  1  0.66628500  0.30396000  0.22067600  1
  N  246  1  0.51878500  0.26407800  0.34418800  1
  N  284  1  0.51769500  0.29637100  0.51080500  1
  N  285  1  0.36887100  0.28713000  0.66252000  1
  N  286  1  0.66645800  0.28555900  0.65550400  1
  N  287  1  0.51906400  0.40905800  0.69555300  1
  N  325  1  0.51766900  0.72818100  0.38397800  1
  N  326  1  0.36886700  0.73742600  0.23224400  1
  N  327  1  0.66646500  0.73898400  0.23931500  1
  N  328  1  0.51918600  0.61548500  0.19923400  1
  N  337  1  0.93664400  0.95695100  0.17375200  1
  N  353  1  0.93673000  0.06755500  0.72100300  1
  N  369  1  0.93669800  0.78597500  0.89213200  1
  N  385  1  0.93670200  0.23865100  0.00273100  1
  N  401  1  0.43811700  0.45697600  0.67694400  1
  N  417  1  0.43821300  0.56756400  0.21776900  1
  N  433  1  0.43788000  0.28270800  0.39215000  1
  N  449  1  0.43794100  0.74185700  0.50266600  1
  N  465  1  0.78706000  0.20528600  0.20971900  1
  N  481  1  0.78710800  0.81926400  0.68500000  1
  N  497  1  0.78742800  0.74971800  0.14073600  1
  N  513  1  0.78745400  0.27480200  0.75405100  1
  N  529  1  0.20325500  0.79756000  0.22072800  1
  N  545  1  0.20321500  0.22701200  0.67402000  1
  N  561  1  0.20324500  0.28538500  0.16222700  1
  N  577  1  0.20330500  0.73918000  0.73259800  1
  N  622  1  0.24204800  0.36828400  0.86119600  1
  N  623  1  0.08853380  0.51395500  0.87096500  1
  N  624  1  0.38456500  0.52127900  0.87302900  1
  N  625  1  0.24008600  0.55319500  0.74882600  1
  N  663  1  0.24214500  0.24167300  0.42963700  1
  N  664  1  0.08846580  0.09609760  0.42000000  1
  N  665  1  0.38454500  0.08865360  0.41779800  1
  N  666  1  0.23999700  0.05678760  0.54204500  1
  N  704  1  0.24211500  0.08926860  0.70876800  1
  N  705  1  0.08860380  0.07955260  0.85464000  1
  N  706  1  0.38432900  0.07724660  0.86207000  1
  N  707  1  0.23994000  0.20157700  0.89370700  1
  N  745  1  0.24201000  0.52069600  0.58212500  1
  N  746  1  0.08864880  0.53044300  0.43616900  1
  N  747  1  0.38431300  0.53270400  0.42876900  1
  N  748  1  0.24006000  0.40839500  0.39717700  1
  N  786  1  0.74227200  0.86837400  0.36119200  1
  N  787  1  0.59349200  0.02038460  0.37060700  1
  N  788  1  0.89074000  0.01335260  0.37212900  1
  N  789  1  0.74332700  0.05319660  0.24862700  1
  N  827  1  0.74233900  0.74161000  0.92963500  1
  N  828  1  0.59342500  0.58969200  0.92025200  1
  N  829  1  0.89073700  0.59668200  0.91870400  1
  N  830  1  0.74323700  0.55680000  0.04221640  1
  N  868  1  0.74214700  0.58909300  0.20883300  1
  N  869  1  0.59332300  0.57985200  0.36054800  1
  N  870  1  0.89091000  0.57828100  0.35353200  1
  N  871  1  0.74351600  0.70178000  0.39358100  1
  N  909  1  0.74212100  0.02090260  0.08200640  1
  N  910  1  0.59331900  0.03014760  0.93027200  1
  N  911  1  0.89091700  0.03170560  0.93734300  1
  N  912  1  0.74363800  0.90820700  0.89726200  1
  N  921  1  0.16109600  0.24967300  0.87178000  1
  N  937  1  0.16118200  0.36027700  0.41903100  1
  N  953  1  0.16115000  0.07869660  0.59016000  1
  N  969  1  0.16115400  0.53137300  0.70075900  1
  N  985  1  0.66256900  0.74969800  0.37497200  1
  N  1001  1  0.66266500  0.86028600  0.91579700  1
  N  1017  1  0.66233200  0.57543000  0.09017840  1
  N  1033  1  0.66239300  0.03457860  0.20069400  1
  N  1049  1  0.01151180  0.49800800  0.90774700  1
  N  1065  1  0.01155980  0.11198600  0.38302800  1
  N  1081  1  0.01187980  0.04243960  0.83876400  1
  N  1097  1  0.01190580  0.56752400  0.45207900  1
  N  1113  1  0.42770700  0.09028160  0.91875600  1
  N  1129  1  0.42766700  0.51973400  0.37204800  1
  N  1145  1  0.42769700  0.57810700  0.86025500  1
  N  1161  1  0.42775700  0.03190160  0.43062600  1
  O  338  1  0.92810500  0.00466300  0.15542800  1
  O  354  1  0.92818200  0.01983900  0.73931600  1
  O  370  1  0.92816600  0.80429700  0.93984600  1
  O  386  1  0.92807900  0.22033500  0.95502500  1
  O  402  1  0.42795600  0.50468300  0.65902500  1
  O  418  1  0.42802000  0.51985800  0.23568200  1
  O  434  1  0.42777000  0.30059100  0.43987800  1
  O  450  1  0.42778900  0.72398100  0.45494200  1
  O  466  1  0.72012500  0.21836800  0.22609700  1
  O  482  1  0.72020200  0.80617500  0.66857500  1
  O  498  1  0.72052900  0.73326900  0.15380600  1
  O  514  1  0.72054200  0.29123800  0.74100100  1
  O  530  1  0.25859700  0.78882800  0.25320600  1
  O  546  1  0.25854200  0.23578500  0.64153700  1
  O  562  1  0.25849300  0.31791800  0.17104300  1
  O  578  1  0.25860800  0.70668600  0.72380800  1
  O  922  1  0.15255700  0.29738500  0.85345600  1
  O  938  1  0.15263400  0.31256100  0.43734400  1
  O  954  1  0.15261800  0.09701860  0.63787400  1
  O  970  1  0.15253100  0.51305700  0.65305300  1
  O  986  1  0.65240800  0.79740500  0.35705300  1
  O  1002  1  0.65247200  0.81258000  0.93371000  1
  O  1018  1  0.65222200  0.59331300  0.13790600  1
  O  1034  1  0.65224100  0.01670260  0.15297000  1
  O  1050  1  0.94457700  0.51109000  0.92412500  1
  O  1066  1  0.94465400  0.09889660  0.36660300  1
  O  1082  1  0.94498100  0.02599060  0.85183400  1
  O  1098  1  0.94499400  0.58396000  0.43902900  1
  O  1114  1  0.48304900  0.08154960  0.95123400  1
  O  1130  1  0.48299400  0.52850700  0.33956500  1
  O  1146  1  0.48294500  0.61064000  0.86907100  1
  O  1162  1  0.48306000  0.99940800  0.42183600  1
