# generated using pymatgen
data_H7C14N2O
_symmetry_space_group_name_H-M   'P 1'
_cell_length_a   38.72675080
_cell_length_b   38.72675080
_cell_length_c   38.72675080
_cell_angle_alpha   109.47122063
_cell_angle_beta   109.47122063
_cell_angle_gamma   109.47122063
_symmetry_Int_Tables_number   1
_chemical_formula_structural   H7C14N2O
_chemical_formula_sum   'H336 C672 N96 O48'
_cell_volume   44710.68174994
_cell_formula_units_Z   48
loop_
 _symmetry_equiv_pos_site_id
 _symmetry_equiv_pos_as_xyz
  1  'x, y, z'
loop_
 _atom_site_type_symbol
 _atom_site_label
 _atom_site_symmetry_multiplicity
 _atom_site_fract_x
 _atom_site_fract_y
 _atom_site_fract_z
 _atom_site_occupancy
  C  1  1  0.42562750  0.91876450  0.77880800  1
  C  2  1  0.40959000  0.89605450  0.79683850  1
  C  3  1  0.37117000  0.88947250  0.79617250  1
  C  4  1  0.34869400  0.90620050  0.77717050  1
  C  5  1  0.36417150  0.92943300  0.75906350  1
  C  6  1  0.40286050  0.93571000  0.76043850  1
  C  10  1  0.46361950  0.92383500  0.77876350  1
  C  11  1  0.46797750  0.88849400  0.76038250  1
  C  12  1  0.50525200  0.89335450  0.75893750  1
  C  13  1  0.53883400  0.93467500  0.77697400  1
  C  14  1  0.53539100  0.97043050  0.79596050  1
  C  15  1  0.49767600  0.96455550  0.79670450  1
  C  19  1  0.74857850  0.44037400  0.58043650  1
  C  20  1  0.76471350  0.47444500  0.57379950  1
  C  21  1  0.80316350  0.51215850  0.60566000  1
  C  22  1  0.82556150  0.51558850  0.64486200  1
  C  23  1  0.80999400  0.48199550  0.65258150  1
  C  24  1  0.77128250  0.44472700  0.62014350  1
  C  28  1  0.71056700  0.40237100  0.54748100  1
  C  29  1  0.70619900  0.37967550  0.50776550  1
  C  30  1  0.66891800  0.34097400  0.47532200  1
  C  31  1  0.63533400  0.32540950  0.48305250  1
  C  32  1  0.63877100  0.34780950  0.52225350  1
  C  33  1  0.67649500  0.38624800  0.55412200  1
  C  37  1  0.94702700  0.20891700  0.54737200  1
  C  38  1  0.98773750  0.23168650  0.55400900  1
  C  39  1  0.99358700  0.23827650  0.52214650  1
  C  40  1  0.95781600  0.22149000  0.48295300  1
  C  41  1  0.91650600  0.19819450  0.47523250  1
  C  42  1  0.91167100  0.19193500  0.50767600  1
  C  46  1  0.94198150  0.20385150  0.58032400  1
  C  47  1  0.95896150  0.23919800  0.62002550  1
  C  48  1  0.95272950  0.23435100  0.65247750  1
  C  49  1  0.92946350  0.19303300  0.64475150  1
  C  50  1  0.91270700  0.15727150  0.60556350  1
  C  51  1  0.91925950  0.16313300  0.57369150  1
  C  55  1  0.22724750  0.68741400  0.34879950  1
  C  56  1  0.18653250  0.65333250  0.33083100  1
  C  57  1  0.18067850  0.61560100  0.33152250  1
  C  58  1  0.21644500  0.61217200  0.35050600  1
  C  59  1  0.25776100  0.64575900  0.36852900  1
  C  60  1  0.26259600  0.68304900  0.36712900  1
  C  64  1  0.23230100  0.72544350  0.34885550  1
  C  65  1  0.21527450  0.74810850  0.36721600  1
  C  66  1  0.22152050  0.78682150  0.36867500  1
  C  67  1  0.24483400  0.80245450  0.35070050  1
  C  68  1  0.26165400  0.78009000  0.33172300  1
  C  69  1  0.25509050  0.74163200  0.33095650  1
  C  73  1  0.71068550  0.34887550  0.20390600  1
  C  74  1  0.67662650  0.33085500  0.16316450  1
  C  75  1  0.63886900  0.33151100  0.15724500  1
  C  76  1  0.63539600  0.35052300  0.19297300  1
  C  77  1  0.66897750  0.36863250  0.23431700  1
  C  78  1  0.70628500  0.36724300  0.23921900  1
  C  82  1  0.74871450  0.34890200  0.20901950  1
  C  83  1  0.77148550  0.36731350  0.19210000  1
  C  84  1  0.81020150  0.36874450  0.19842200  1
  C  85  1  0.82569150  0.35062200  0.22162850  1
  C  86  1  0.80321000  0.33159150  0.23833550  1
  C  87  1  0.76477650  0.33089700  0.23174750  1
  C  91  1  0.23203900  0.54737000  0.92386400  1
  C  92  1  0.25476100  0.55404500  0.96460300  1
  C  93  1  0.26134350  0.52220400  0.97050850  1
  C  94  1  0.24465900  0.48301750  0.93478050  1
  C  95  1  0.22143500  0.47527700  0.89344400  1
  C  96  1  0.21512350  0.50767350  0.88854300  1
  C  100  1  0.22695850  0.58029100  0.91875850  1
  C  101  1  0.26229500  0.61999600  0.93572600  1
  C  102  1  0.25742400  0.65241500  0.92944200  1
  C  103  1  0.21610150  0.64468150  0.90617700  1
  C  104  1  0.18035050  0.60549050  0.88944200  1
  C  105  1  0.18623200  0.57363450  0.89601550  1
  C  109  1  0.46344650  0.58046150  0.72524700  1
  C  110  1  0.49750950  0.57378000  0.74127450  1
  C  111  1  0.53526800  0.60561100  0.77969500  1
  C  112  1  0.53875500  0.64481950  0.80217850  1
  C  113  1  0.50515850  0.65256350  0.78672300  1
  C  114  1  0.46784250  0.62016800  0.74803050  1
  C  118  1  0.42540150  0.54753700  0.68726550  1
  C  119  1  0.40267700  0.50784000  0.68291500  1
  C  120  1  0.36395500  0.47541550  0.64564550  1
  C  121  1  0.34839200  0.48315100  0.61206600  1
  C  122  1  0.37082150  0.52234150  0.61549400  1
  C  123  1  0.40927500  0.55419350  0.65320550  1
  C  127  1  0.94182000  0.77881350  0.40217550  1
  C  128  1  0.91903750  0.79674650  0.38604800  1
  C  129  1  0.91244650  0.79601550  0.34759900  1
  C  130  1  0.92921050  0.77701650  0.32517000  1
  C  131  1  0.95251200  0.75900950  0.34074250  1
  C  132  1  0.95880100  0.76044750  0.37945650  1
  C  136  1  0.94693800  0.77886950  0.44021750  1
  C  137  1  0.91162100  0.76046850  0.44460150  1
  C  138  1  0.91653250  0.75909000  0.48191550  1
  C  139  1  0.95787200  0.77720300  0.51550400  1
  C  140  1  0.99359800  0.79622150  0.51203250  1
  C  141  1  0.98768000  0.79689150  0.47427950  1
  C  145  1  0.57069200  0.92398350  0.20893550  1
  C  146  1  0.57730600  0.96468150  0.23171650  1
  C  147  1  0.54542150  0.97049750  0.23828300  1
  C  148  1  0.50622550  0.93471150  0.22145600  1
  C  149  1  0.49852700  0.89341350  0.19814650  1
  C  150  1  0.53099050  0.88861250  0.19190700  1
  C  154  1  0.60366600  0.91896150  0.20390050  1
  C  155  1  0.64337500  0.93598800  0.23926300  1
  C  156  1  0.67581950  0.92972400  0.23443550  1
  C  157  1  0.66811100  0.90642450  0.19313250  1
  C  158  1  0.62891250  0.88961400  0.15735750  1
  C  159  1  0.59703900  0.89618600  0.16319700  1
  C  163  1  0.37207200  0.20365300  0.68728900  1
  C  164  1  0.35413950  0.16294500  0.65321650  1
  C  165  1  0.35484950  0.15710100  0.61549350  1
  C  166  1  0.37382200  0.19287250  0.61206850  1
  C  167  1  0.39184350  0.23418200  0.64566450  1
  C  168  1  0.39041250  0.23901000  0.68293850  1
  C  172  1  0.37201700  0.20869750  0.72527050  1
  C  173  1  0.39039600  0.19175700  0.74804000  1
  C  174  1  0.39179650  0.19805800  0.78674250  1
  C  175  1  0.37367950  0.22128000  0.80221950  1
  C  176  1  0.35465050  0.23798000  0.77972650  1
  C  177  1  0.35399500  0.23141300  0.74131500  1
  C  181  1  0.80195150  0.40222100  0.91867850  1
  C  182  1  0.81990950  0.38611800  0.89591450  1
  C  183  1  0.81918200  0.34766700  0.88931300  1
  C  184  1  0.80018850  0.32523200  0.90607350  1
  C  185  1  0.78214250  0.34077250  0.92934600  1
  C  186  1  0.78356600  0.37948050  0.93563450  1
  C  190  1  0.80200550  0.44026250  0.92380900  1
  C  191  1  0.78360600  0.44466400  0.88850500  1
  C  192  1  0.78222600  0.48198000  0.89343200  1
  C  193  1  0.80035300  0.51556250  0.93477750  1
  C  194  1  0.81937450  0.51207850  0.97049400  1
  C  195  1  0.82003950  0.47432050  0.96455900  1
  C  199  1  0.60368050  0.72556600  0.44045750  1
  C  200  1  0.59702650  0.74166050  0.47452600  1
  C  201  1  0.62887500  0.78010450  0.51225050  1
  C  202  1  0.66806750  0.80254500  0.51568950  1
  C  203  1  0.67580600  0.78701350  0.48210350  1
  C  204  1  0.64338050  0.74830600  0.44481750  1
  C  208  1  0.57076300  0.68753050  0.40246250  1
  C  209  1  0.53105650  0.68313850  0.37968200  1
  C  210  1  0.49864650  0.64582650  0.34098800  1
  C  211  1  0.50641550  0.61225000  0.32551550  1
  C  212  1  0.54561350  0.61571700  0.34800750  1
  C  213  1  0.57744450  0.65347000  0.38642750  1
  C  433  1  0.72505550  0.18453750  0.30256900  1
  C  434  1  0.74496400  0.20986850  0.28850750  1
  C  435  1  0.78691800  0.22143900  0.29747000  1
  C  436  1  0.80917300  0.20724900  0.32065000  1
  C  437  1  0.78971950  0.18101950  0.33436900  1
  C  438  1  0.74759550  0.16967050  0.32483600  1
  C  442  1  0.68749650  0.18166900  0.30268850  1
  C  443  1  0.68726450  0.21883300  0.32493050  1
  C  444  1  0.65473750  0.21712550  0.33453600  1
  C  445  1  0.62157900  0.17720800  0.32091700  1
  C  446  1  0.62060450  0.13979150  0.29778000  1
  C  447  1  0.65351250  0.14231000  0.28869150  1
  C  451  1  0.44893850  0.66439500  0.54645450  1
  C  452  1  0.42893550  0.63044200  0.55186550  1
  C  453  1  0.38693950  0.59753550  0.52148300  1
  C  454  1  0.36479250  0.59844900  0.48499150  1
  C  455  1  0.38437300  0.63157800  0.47821000  1
  C  456  1  0.42650350  0.66410750  0.50901100  1
  C  460  1  0.48658800  0.70198300  0.58115300  1
  C  461  1  0.48683650  0.72448350  0.61855800  1
  C  462  1  0.51938850  0.76662000  0.64935150  1
  C  463  1  0.55256150  0.78612050  0.64259000  1
  C  464  1  0.55349900  0.76390600  0.60614000  1
  C  465  1  0.52055900  0.72193500  0.57575300  1
  C  469  1  0.20501500  0.94294100  0.58121800  1
  C  470  1  0.16560200  0.91768100  0.57580900  1
  C  471  1  0.16299000  0.90605800  0.60616700  1
  C  472  1  0.20035950  0.92017100  0.64257050  1
  C  473  1  0.24031750  0.94641600  0.64937350  1
  C  474  1  0.24213600  0.95773850  0.61858650  1
  C  478  1  0.20794550  0.94589350  0.54653800  1
  C  479  1  0.19308850  0.90873500  0.50916050  1
  C  480  1  0.20437250  0.91046050  0.47832600  1
  C  481  1  0.23067600  0.95040100  0.48513100  1
  C  482  1  0.24489650  0.98780900  0.52155050  1
  C  483  1  0.23329750  0.98526000  0.55193250  1
  C  487  1  0.96911750  0.46326300  0.82524250  1
  C  488  1  0.00848750  0.49724300  0.83927350  1
  C  489  1  0.01103000  0.53015950  0.83020650  1
  C  490  1  0.97363250  0.52919650  0.80703700  1
  C  491  1  0.93368900  0.49605650  0.79340150  1
  C  492  1  0.93196250  0.46350250  0.80297200  1
  C  496  1  0.96616400  0.42560700  0.82516200  1
  C  497  1  0.98106700  0.40313000  0.80289900  1
  C  498  1  0.96977300  0.36101250  0.79333150  1
  C  499  1  0.94344550  0.34145350  0.80691900  1
  C  500  1  0.92920700  0.36365050  0.83008450  1
  C  501  1  0.94082900  0.40565450  0.83920050  1
  C  505  1  0.48654500  0.82513400  0.94611200  1
  C  506  1  0.52051250  0.83915800  0.98548450  1
  C  507  1  0.55346550  0.83014350  0.98803700  1
  C  508  1  0.55253500  0.80701200  0.95064900  1
  C  509  1  0.51935700  0.79331200  0.91070300  1
  C  510  1  0.48679450  0.80287800  0.90896150  1
  C  514  1  0.44891050  0.82510750  0.94315500  1
  C  515  1  0.42638050  0.80287700  0.95804550  1
  C  516  1  0.38425300  0.79331500  0.94669600  1
  C  517  1  0.36478700  0.80699500  0.92041500  1
  C  518  1  0.38701100  0.83012100  0.90616700  1
  C  519  1  0.42900550  0.83917500  0.91782450  1
  C  523  1  0.96631050  0.58125450  0.18186700  1
  C  524  1  0.94097700  0.57580200  0.14245900  1
  C  525  1  0.92933150  0.60614450  0.13984600  1
  C  526  1  0.94353950  0.64260000  0.17721950  1
  C  527  1  0.96986100  0.64944850  0.21718250  1
  C  528  1  0.98118150  0.61866000  0.21898550  1
  C  532  1  0.96930650  0.54659700  0.18481550  1
  C  533  1  0.93218050  0.50923050  0.17004600  1
  C  534  1  0.93397950  0.47844150  0.18138000  1
  C  535  1  0.97395750  0.48526050  0.20761400  1
  C  536  1  0.01131850  0.52166900  0.22172450  1
  C  537  1  0.00871617  0.55201400  0.21010217  1
  C  541  1  0.68773500  0.54645000  0.42574000  1
  C  542  1  0.65376300  0.55189700  0.40587400  1
  C  543  1  0.62078350  0.52156050  0.36388900  1
  C  544  1  0.62168750  0.48511100  0.34160450  1
  C  545  1  0.65483900  0.47830650  0.36104350  1
  C  546  1  0.68743100  0.50904050  0.40316750  1
  C  550  1  0.72536400  0.58111650  0.46336250  1
  C  551  1  0.74789400  0.61849150  0.46358450  1
  C  552  1  0.79002400  0.64929400  0.49614400  1
  C  553  1  0.80949750  0.64252800  0.52931750  1
  C  554  1  0.78729000  0.60609500  0.53028600  1
  C  555  1  0.74531350  0.57571250  0.49733200  1
  C  559  1  0.20776200  0.30259200  0.70190800  1
  C  560  1  0.23302050  0.28841650  0.72171300  1
  C  561  1  0.24466050  0.29738600  0.76367950  1
  C  562  1  0.23061050  0.32066550  0.78603700  1
  C  563  1  0.20440300  0.33445550  0.76667850  1
  C  564  1  0.19304400  0.32496800  0.72456300  1
  C  568  1  0.20484550  0.30272400  0.66434350  1
  C  569  1  0.24198850  0.32504950  0.66412700  1
  C  570  1  0.24019600  0.33458950  0.63155050  1
  C  571  1  0.20026550  0.32094450  0.59840400  1
  C  572  1  0.16288550  0.29773000  0.59744550  1
  C  573  1  0.16544650  0.28865450  0.63036900  1
  C  577  1  0.60435350  0.18159450  0.94285900  1
  C  578  1  0.59894050  0.14223000  0.91746450  1
  C  579  1  0.62934100  0.13970850  0.90587850  1
  C  580  1  0.66578950  0.17710750  0.92013500  1
  C  581  1  0.67253700  0.21701550  0.94643650  1
  C  582  1  0.64173600  0.21876250  0.95776050  1
  C  586  1  0.56968500  0.18451350  0.94585650  1
  C  587  1  0.53228800  0.16971000  0.90875000  1
  C  588  1  0.50151350  0.18105550  0.91057200  1
  C  589  1  0.50835000  0.20731000  0.95055100  1
  C  590  1  0.54478550  0.22145400  0.98790550  1
  C  591  1  0.57512300  0.20981800  0.98526800  1
  C  595  1  0.84848200  0.94603650  0.46333750  1
  C  596  1  0.86256650  0.98542700  0.49732850  1
  C  597  1  0.85351450  0.98799650  0.53025900  1
  C  598  1  0.83036750  0.95061950  0.52934200  1
  C  599  1  0.81671050  0.91067250  0.49619100  1
  C  600  1  0.82625350  0.90889800  0.46361750  1
  C  604  1  0.84842600  0.94310050  0.42569350  1
  C  605  1  0.82625000  0.95810450  0.40327450  1
  C  606  1  0.81663600  0.94680950  0.36114350  1
  C  607  1  0.83017400  0.92043850  0.34155250  1
  C  608  1  0.85324600  0.90608600  0.36367500  1
  C  609  1  0.86237450  0.91770200  0.40567750  1
  C  613  1  0.32598150  0.70222750  0.18493000  1
  C  614  1  0.31199150  0.72221750  0.21029800  1
  C  615  1  0.32105500  0.76420550  0.22187550  1
  C  616  1  0.34420850  0.78636500  0.20760550  1
  C  617  1  0.35781800  0.76682100  0.18130600  1
  C  618  1  0.34824250  0.72469900  0.17001750  1
  C  622  1  0.32589800  0.66456650  0.18195250  1
  C  623  1  0.34825950  0.66430450  0.21905700  1
  C  624  1  0.35776300  0.63169000  0.21719300  1
  C  625  1  0.34398050  0.59851850  0.17721800  1
  C  626  1  0.32068900  0.59757000  0.13987300  1
  C  627  1  0.31169750  0.63055500  0.14252250  1
  C  631  1  0.56969300  0.42558500  0.66443100  1
  C  632  1  0.57511550  0.40561900  0.63048250  1
  C  633  1  0.54474600  0.36362950  0.59755250  1
  C  634  1  0.50828750  0.34144100  0.59849150  1
  C  635  1  0.50147800  0.36094550  0.63162350  1
  C  636  1  0.53228700  0.40307500  0.66416900  1
  C  640  1  0.60435200  0.46323500  0.70203700  1
  C  641  1  0.64172850  0.46350550  0.72463700  1
  C  642  1  0.67250150  0.49612250  0.76674700  1
  C  643  1  0.66569000  0.52929450  0.78614250  1
  C  644  1  0.62926050  0.53021650  0.76383400  1
  C  645  1  0.59891000  0.49721350  0.72187250  1
  C  865  1  0.36609150  0.83803050  0.87462100  1
  C  866  1  0.36553000  0.87659600  0.88556200  1
  C  867  1  0.36141850  0.89161900  0.85629250  1
  C  868  1  0.35790800  0.86848150  0.81699850  1
  C  869  1  0.35335250  0.82787400  0.80495350  1
  C  870  1  0.35744500  0.81281000  0.83346000  1
  C  872  1  0.36896350  0.95416900  0.90614450  1
  C  873  1  0.37254350  0.93934300  0.93491650  1
  C  880  1  0.80822350  0.59555000  0.55919050  1
  C  881  1  0.80874600  0.60706950  0.59830250  1
  C  882  1  0.81290000  0.58197850  0.61751250  1
  C  883  1  0.81651700  0.54625800  0.59795400  1
  C  884  1  0.82111400  0.53872500  0.56192700  1
  C  885  1  0.81696100  0.56308000  0.54271000  1
  C  887  1  0.80521500  0.62425700  0.67240000  1
  C  888  1  0.80159600  0.64938850  0.65392550  1
  C  895  1  0.12342050  0.28978150  0.56857400  1
  C  896  1  0.09583950  0.25116100  0.52949250  1
  C  897  1  0.05154350  0.23612200  0.51029250  1
  C  898  1  0.03539400  0.25931700  0.52985100  1
  C  899  1  0.06389900  0.29994900  0.56586800  1
  C  900  1  0.10747800  0.31505400  0.58505800  1
  C  902  1  0.03891050  0.17352450  0.45541400  1
  C  903  1  0.08251450  0.18837100  0.47387850  1
  C  910  1  0.05078800  0.53230150  0.25323250  1
  C  911  1  0.07834750  0.52070350  0.24223000  1
  C  912  1  0.12264900  0.54574200  0.27147500  1
  C  913  1  0.13888350  0.58151700  0.31079950  1
  C  914  1  0.11038500  0.58903800  0.32293700  1
  C  915  1  0.06680250  0.56468800  0.29448950  1
  C  917  1  0.13519400  0.50336100  0.22151400  1
  C  918  1  0.09158300  0.47826300  0.19277700  1
  C  925  1  0.55548800  0.25303800  0.02737500  1
  C  926  1  0.54395700  0.24210550  0.05499550  1
  C  927  1  0.56906650  0.27141550  0.09928300  1
  C  928  1  0.60482500  0.31072950  0.11541450  1
  C  929  1  0.61226300  0.32277350  0.08684150  1
  C  930  1  0.58786200  0.29425850  0.04327350  1
  C  932  1  0.52679100  0.22154900  0.11199400  1
  C  933  1  0.50163300  0.19274900  0.06840100  1
  C  940  1  0.31274850  0.56879800  0.10037050  1
  C  941  1  0.27416750  0.52967000  0.07277850  1
  C  942  1  0.25917250  0.51046100  0.02848650  1
  C  943  1  0.28240950  0.53000350  0.01234300  1
  C  944  1  0.32307550  0.56596100  0.04087350  1
  C  945  1  0.33799600  0.58526700  0.08441400  1
  C  947  1  0.19656350  0.45555200  0.01580750  1
  C  948  1  0.21137200  0.47401350  0.05940450  1
  C  955  1  0.61859300  0.55904450  0.78467450  1
  C  956  1  0.63010650  0.59812250  0.78511300  1
  C  957  1  0.60502350  0.61734550  0.78927000  1
  C  958  1  0.56932800  0.59783750  0.79294950  1
  C  959  1  0.56180800  0.56181200  0.79755000  1
  C  960  1  0.58622350  0.54264450  0.79354200  1
  C  962  1  0.64725450  0.67217350  0.78148800  1
  C  963  1  0.67238000  0.65369100  0.77787100  1
  C  970  1  0.86107600  0.87452700  0.34264200  1
  C  971  1  0.89959950  0.88540800  0.34199850  1
  C  972  1  0.91457900  0.85610050  0.33780550  1
  C  973  1  0.89143450  0.81680250  0.33428800  1
  C  974  1  0.85083600  0.80478850  0.32974250  1
  C  975  1  0.83582350  0.83333800  0.33391950  1
  C  977  1  0.97712300  0.90593000  0.34532100  1
  C  978  1  0.96233500  0.93473500  0.34896900  1
  C  985  1  0.59174050  0.10035550  0.28988700  1
  C  986  1  0.55264350  0.07276650  0.25129000  1
  C  987  1  0.53350550  0.02846550  0.23622400  1
  C  988  1  0.55311000  0.01228500  0.25935300  1
  C  989  1  0.58911050  0.04082000  0.29999650  1
  C  990  1  0.60827450  0.08440050  0.31510700  1
  C  992  1  0.47856550  0.01581850  0.17365700  1
  C  993  1  0.49697600  0.05942650  0.18852950  1
  C  1000  1  0.27641950  0.02724050  0.53212200  1
  C  1001  1  0.26546900  0.05484600  0.52058200  1
  C  1002  1  0.29474950  0.09913750  0.54566100  1
  C  1003  1  0.33408800  0.11530550  0.58139050  1
  C  1004  1  0.34617800  0.08677050  0.58887850  1
  C  1005  1  0.31764150  0.04320300  0.56453750  1
  C  1007  1  0.24482950  0.11179200  0.50338450  1
  C  1008  1  0.21604650  0.06819550  0.47826400  1
  C  1015  1  0.89764250  0.34265550  0.83794600  1
  C  1016  1  0.90862350  0.34215150  0.87654100  1
  C  1017  1  0.87932800  0.33797500  0.89153100  1
  C  1018  1  0.84000400  0.33437500  0.86832800  1
  C  1019  1  0.82794300  0.32980000  0.82771400  1
  C  1020  1  0.85644650  0.33388650  0.81264600  1
  C  1022  1  0.92921400  0.34562700  0.95413100  1
  C  1023  1  0.95801000  0.34926100  0.93933200  1
  C  1030  1  0.58231200  0.78486050  0.59552450  1
  C  1031  1  0.62147200  0.78546550  0.60708450  1
  C  1032  1  0.64073550  0.78976850  0.58206500  1
  C  1033  1  0.62117400  0.79340450  0.54635850  1
  C  1034  1  0.58513400  0.79797550  0.53885250  1
  C  1035  1  0.56590950  0.79378550  0.56319300  1
  C  1037  1  0.69567150  0.78212550  0.62433200  1
  C  1038  1  0.67716500  0.77839600  0.64941700  1
  C  1045  1  0.36592750  0.56876600  0.53211150  1
  C  1046  1  0.36531100  0.52960400  0.52057900  1
  C  1047  1  0.36107200  0.51043250  0.54568650  1
  C  1048  1  0.35749700  0.53008300  0.58142400  1
  C  1049  1  0.35289900  0.56609700  0.58885000  1
  C  1050  1  0.35705300  0.58525950  0.56445250  1
  C  1052  1  0.36867650  0.45543050  0.50345200  1
  C  1053  1  0.37235450  0.47386050  0.47829700  1
  C  1060  1  0.80782200  0.25301900  0.28959400  1
  C  1061  1  0.80841600  0.24206050  0.25103250  1
  C  1062  1  0.81271850  0.27140150  0.23608900  1
  C  1063  1  0.81647700  0.31080050  0.25937250  1
  C  1064  1  0.82116650  0.32291900  0.30002950  1
  C  1065  1  0.81668750  0.29424850  0.31488700  1
  C  1067  1  0.80497850  0.22147550  0.17345000  1
  C  1068  1  0.80123900  0.19264400  0.18820600  1
  C  1075  1  0.12349200  0.87452150  0.59547850  1
  C  1076  1  0.09591150  0.88558600  0.60696450  1
  C  1077  1  0.05160450  0.85635350  0.58182400  1
  C  1078  1  0.03542500  0.81700800  0.54608800  1
  C  1079  1  0.06395650  0.80491350  0.53859700  1
  C  1080  1  0.10754200  0.83331600  0.56306600  1
  C  1082  1  0.03897800  0.90632500  0.62407300  1
  C  1083  1  0.08258700  0.93505550  0.64925350  1
  C  1090  1  0.05045100  0.55900550  0.83808650  1
  C  1091  1  0.07809250  0.59817950  0.87661000  1
  C  1092  1  0.12237950  0.61737450  0.89158900  1
  C  1093  1  0.13854450  0.59777400  0.86844050  1
  C  1094  1  0.10996450  0.56172600  0.82783650  1
  C  1095  1  0.06640550  0.54252200  0.81283050  1
  C  1097  1  0.13507900  0.67238550  0.95413350  1
  C  1098  1  0.09148600  0.65392850  0.93934650  1
  C  1105  1  0.55532250  0.34268050  0.56869100  1
  C  1106  1  0.54376750  0.34209700  0.52954950  1
  C  1107  1  0.56888650  0.33797300  0.51036850  1
  C  1108  1  0.60467850  0.33445950  0.52995700  1
  C  1109  1  0.61219000  0.32987500  0.56599600  1
  C  1110  1  0.58781200  0.33398300  0.58519400  1
  C  1112  1  0.52653500  0.34552650  0.45539750  1
  C  1113  1  0.50137750  0.34911500  0.47384750  1
  C  1120  1  0.31314150  0.78518200  0.25338950  1
  C  1121  1  0.27453700  0.78567450  0.24238950  1
  C  1122  1  0.25950950  0.78983700  0.27165650  1
  C  1123  1  0.28272650  0.79348450  0.31100300  1
  C  1124  1  0.32336450  0.79812600  0.32312550  1
  C  1125  1  0.33840600  0.79396200  0.29459900  1
  C  1127  1  0.19689200  0.78209600  0.22170000  1
  C  1128  1  0.21172200  0.77847000  0.19292800  1
  C  1135  1  0.61879350  0.10027400  0.87435250  1
  C  1136  1  0.63029600  0.07267250  0.88534750  1
  C  1137  1  0.60520400  0.02838100  0.85607400  1
  C  1138  1  0.56948700  0.01224200  0.81674100  1
  C  1139  1  0.56197050  0.04076000  0.80464350  1
  C  1140  1  0.58635900  0.08433400  0.83313900  1
  C  1142  1  0.64746700  0.01572450  0.90600050  1
  C  1143  1  0.67260000  0.05932600  0.93477900  1
  C  1150  1  0.86137250  0.02742900  0.55906250  1
  C  1151  1  0.89992650  0.05503350  0.59822100  1
  C  1152  1  0.91489550  0.09931800  0.61745950  1
  C  1153  1  0.89172250  0.11547200  0.59788550  1
  C  1154  1  0.85110550  0.08692500  0.56184950  1
  C  1155  1  0.83605450  0.04335650  0.54264200  1
  C  1157  1  0.97746500  0.11199600  0.67241700  1
  C  1158  1  0.96267850  0.06840300  0.65393350  1
  C  1165  1  0.59202850  0.53228800  0.34301950  1
  C  1166  1  0.55291400  0.52079300  0.34249200  1
  C  1167  1  0.53376300  0.54593100  0.33832500  1
  C  1168  1  0.55340100  0.58167200  0.33474800  1
  C  1169  1  0.58940000  0.58909900  0.33012100  1
  C  1170  1  0.60853900  0.56466850  0.33419750  1
  C  1172  1  0.47880500  0.50370750  0.34598050  1
  C  1173  1  0.49721350  0.47852300  0.34959050  1
  C  1180  1  0.27618950  0.28941500  0.78450650  1
  C  1181  1  0.26524000  0.25087050  0.78512450  1
  C  1182  1  0.29453150  0.23586750  0.78935400  1
  C  1183  1  0.33389600  0.25905750  0.79300150  1
  C  1184  1  0.34601850  0.29970850  0.79767100  1
  C  1185  1  0.31739750  0.31462700  0.79326050  1
  C  1187  1  0.24461700  0.17331200  0.78174600  1
  C  1188  1  0.21583450  0.18812850  0.77807800  1
  C  1195  1  0.89777650  0.59548400  0.10037750  1
  C  1196  1  0.90880500  0.60697850  0.07278450  1
  C  1197  1  0.87953700  0.58185700  0.02848600  1
  C  1198  1  0.84019050  0.54613250  0.01232800  1
  C  1199  1  0.82813200  0.53863450  0.04087650  1
  C  1200  1  0.85657400  0.56308150  0.08445450  1
  C  1202  1  0.92947150  0.62409500  0.01581950  1
  C  1203  1  0.95823900  0.64925600  0.05942100  1
  C  1210  1  0.58236200  0.83809550  0.02747450  1
  C  1211  1  0.62150900  0.87665350  0.05506550  1
  C  1212  1  0.64075050  0.89169750  0.09936500  1
  C  1213  1  0.62120850  0.86855300  0.11556050  1
  C  1214  1  0.58519300  0.82792250  0.08705350  1
  C  1215  1  0.56594500  0.81286600  0.04348300  1
  C  1217  1  0.69565600  0.95424900  0.11196000  1
  C  1218  1  0.67715500  0.93940450  0.06835550  1
  C  1585  1  0.27698250  0.95148800  0.68050550  1
  C  1586  1  0.28884300  0.96881250  0.72404950  1
  C  1587  1  0.31967550  0.96353700  0.75109050  1
  C  1588  1  0.33861500  0.94143650  0.73530050  1
  C  1589  1  0.32768850  0.92628000  0.69247650  1
  C  1590  1  0.29741300  0.93111400  0.66560100  1
  C  1592  1  0.31243450  0.00020750  0.80919200  1
  C  1593  1  0.28211300  0.00554650  0.78286150  1
  C  1600  1  0.89699750  0.49050950  0.76183200  1
  C  1601  1  0.88520500  0.52223950  0.76729650  1
  C  1602  1  0.85442600  0.51848450  0.73117750  1
  C  1603  1  0.83551200  0.48376150  0.69014150  1
  C  1604  1  0.84632900  0.45178950  0.68591950  1
  C  1605  1  0.87655350  0.45515450  0.72104100  1
  C  1607  1  0.86174050  0.58387600  0.77507750  1
  C  1608  1  0.89201250  0.58783200  0.81074850  1
  C  1615  1  0.81575750  0.17592200  0.36596250  1
  C  1616  1  0.84202100  0.15865750  0.36050650  1
  C  1617  1  0.87438200  0.16399700  0.39662600  1
  C  1618  1  0.88069800  0.18612000  0.43766600  1
  C  1619  1  0.85296500  0.20118650  0.44187850  1
  C  1620  1  0.82119500  0.19627150  0.40675550  1
  C  1622  1  0.89586550  0.12739150  0.35273400  1
  C  1623  1  0.86415500  0.12199450  0.31706050  1
  C  1630  1  0.35832800  0.63714150  0.44709350  1
  C  1631  1  0.33214200  0.60545000  0.40355000  1
  C  1632  1  0.29984600  0.60925250  0.37649650  1
  C  1633  1  0.29355350  0.64399550  0.39228700  1
  C  1634  1  0.32127050  0.67594800  0.43508650  1
  C  1635  1  0.35298550  0.67256400  0.46197350  1
  C  1637  1  0.27838450  0.54387900  0.31841750  1
  C  1638  1  0.31004100  0.53988250  0.34476050  1
  C  1645  1  0.66037350  0.44721250  0.33492300  1
  C  1646  1  0.62870500  0.40365800  0.30874100  1
  C  1647  1  0.63248550  0.37662100  0.27641150  1
  C  1648  1  0.66718450  0.39243650  0.27006400  1
  C  1649  1  0.69911850  0.43524200  0.29777150  1
  C  1650  1  0.69574750  0.46211150  0.32951100  1
  C  1652  1  0.56718550  0.31849850  0.25503400  1
  C  1653  1  0.56320650  0.34482550  0.28671800  1
  C  1660  1  0.19942500  0.36609400  0.79280200  1
  C  1661  1  0.18205800  0.36058700  0.81898300  1
  C  1662  1  0.18735850  0.39668900  0.85133450  1
  C  1663  1  0.20950300  0.43774150  0.85768950  1
  C  1664  1  0.22458400  0.44199500  0.82997500  1
  C  1665  1  0.21980350  0.40690350  0.79829700  1
  C  1667  1  0.15062300  0.35273650  0.87269350  1
  C  1668  1  0.14525200  0.31708200  0.84098400  1
  C  1675  1  0.51380300  0.76171000  0.87403100  1
  C  1676  1  0.54546850  0.76724250  0.86214600  1
  C  1677  1  0.54166800  0.73115600  0.83127100  1
  C  1678  1  0.50694950  0.69010350  0.81232200  1
  C  1679  1  0.47508200  0.68583850  0.82329950  1
  C  1680  1  0.47843950  0.72092600  0.85355850  1
  C  1682  1  0.60696850  0.77511100  0.83847450  1
  C  1683  1  0.61096550  0.81075200  0.86883050  1
  C  1690  1  0.97485000  0.68056800  0.25379800  1
  C  1691  1  0.99212600  0.72409850  0.26561850  1
  C  1692  1  0.98675100  0.75110550  0.29637350  1
  C  1693  1  0.96460450  0.73528800  0.31526750  1
  C  1694  1  0.94951500  0.69248000  0.30439000  1
  C  1695  1  0.95444750  0.66563650  0.27419300  1
  C  1697  1  0.02342400  0.80921900  0.28915000  1
  C  1698  1  0.02886300  0.78291950  0.25890450  1
  C  1705  1  0.38932950  0.79273750  0.17605500  1
  C  1706  1  0.38383950  0.81895700  0.15873950  1
  C  1707  1  0.41992900  0.85127750  0.16399450  1
  C  1708  1  0.46097550  0.85759000  0.18606950  1
  C  1709  1  0.46522450  0.82989250  0.20117600  1
  C  1710  1  0.43013150  0.79818100  0.19636150  1
  C  1712  1  0.37599100  0.87272950  0.12739550  1
  C  1713  1  0.34034750  0.84105150  0.12207400  1
  C  1720  1  0.47033350  0.33493400  0.63717250  1
  C  1721  1  0.42680100  0.30870000  0.60546700  1
  C  1722  1  0.39977400  0.27633200  0.60921500  1
  C  1723  1  0.41559200  0.26998350  0.64391050  1
  C  1724  1  0.45839950  0.29768200  0.67584650  1
  C  1725  1  0.48526000  0.32944150  0.67248750  1
  C  1727  1  0.34167150  0.25493750  0.54389400  1
  C  1728  1  0.36799150  0.28665550  0.53994400  1
  C  1735  1  0.70366950  0.25373000  0.95156550  1
  C  1736  1  0.74720900  0.26558200  0.96887800  1
  C  1737  1  0.77422550  0.29638000  0.96355450  1
  C  1738  1  0.75840350  0.31526950  0.94140400  1
  C  1739  1  0.71558900  0.30437000  0.92629200  1
  C  1740  1  0.68873300  0.27414200  0.93118700  1
  C  1742  1  0.83234850  0.28918100  0.00025350  1
  C  1743  1  0.80603800  0.25889100  0.00564000  1
  C  1750  1  0.78505550  0.87405300  0.49066750  1
  C  1751  1  0.79052900  0.86220400  0.52235900  1
  C  1752  1  0.75440500  0.83141700  0.51858800  1
  C  1753  1  0.71336650  0.81253550  0.48387800  1
  C  1754  1  0.70914850  0.82340500  0.45194150  1
  C  1755  1  0.74427350  0.85361100  0.45529850  1
  C  1757  1  0.79829750  0.83861900  0.58391250  1
  C  1758  1  0.83397700  0.86889850  0.58788450  1
  C  1765  1  0.27686600  0.36621100  0.63711400  1
  C  1766  1  0.28874650  0.36072250  0.60544300  1
  C  1767  1  0.31955250  0.39683000  0.60920850  1
  C  1768  1  0.33843200  0.43787800  0.64390100  1
  C  1769  1  0.32757600  0.44211050  0.67584350  1
  C  1770  1  0.29734100  0.40700100  0.67248000  1
  C  1772  1  0.31237250  0.35289700  0.54391250  1
  C  1773  1  0.28208600  0.31723250  0.53995250  1
  C  1780  1  0.89736500  0.44735850  0.17641550  1
  C  1781  1  0.88546150  0.40380150  0.15899100  1
  C  1782  1  0.85465950  0.37675700  0.16429350  1
  C  1783  1  0.83579500  0.39256850  0.18648650  1
  C  1784  1  0.84665950  0.43537650  0.20160900  1
  C  1785  1  0.87697300  0.46227350  0.19683050  1
  C  1787  1  0.86177650  0.31862700  0.12744950  1
  C  1788  1  0.89205950  0.34495900  0.12207350  1
  C  1795  1  0.81602700  0.68041800  0.49056400  1
  C  1796  1  0.84217600  0.72397100  0.52223400  1
  C  1797  1  0.87445400  0.75104950  0.51842950  1
  C  1798  1  0.88077950  0.73528800  0.48370450  1
  C  1799  1  0.85316650  0.69244450  0.45183000  1
  C  1800  1  0.82144600  0.66554350  0.45519550  1
  C  1802  1  0.89581800  0.80913800  0.58374600  1
  C  1803  1  0.86418050  0.78277450  0.58774600  1
  C  1810  1  0.35813600  0.76168250  0.95168750  1
  C  1811  1  0.33190200  0.76714700  0.96899000  1
  C  1812  1  0.29953800  0.73101950  0.96363850  1
  C  1813  1  0.29321050  0.68998100  0.94148650  1
  C  1814  1  0.32092250  0.68576550  0.92638800  1
  C  1815  1  0.35268500  0.72089450  0.93130250  1
  C  1817  1  0.27810800  0.77491700  0.00032900  1
  C  1818  1  0.30982250  0.81059600  0.00573850  1
  C  1825  1  0.66032300  0.25385750  0.36608350  1
  C  1826  1  0.62862300  0.26569300  0.36061800  1
  C  1827  1  0.63241100  0.29652150  0.39672450  1
  C  1828  1  0.66715150  0.31546550  0.43776000  1
  C  1829  1  0.69908250  0.30458750  0.44198600  1
  C  1830  1  0.69568250  0.27431400  0.40687650  1
  C  1832  1  0.56703600  0.28923100  0.35282300  1
  C  1833  1  0.56304750  0.25891250  0.31716100  1
  C  1840  1  0.19920900  0.87375000  0.44717500  1
  C  1841  1  0.18193300  0.86194500  0.40364800  1
  C  1842  1  0.18728100  0.83118250  0.37661650  1
  C  1843  1  0.20943200  0.81228450  0.39241750  1
  C  1844  1  0.22448850  0.82310850  0.43520800  1
  C  1845  1  0.21958100  0.85331550  0.46207350  1
  C  1847  1  0.15063300  0.83846500  0.31854000  1
  C  1848  1  0.14522750  0.86872250  0.34486500  1
  C  1855  1  0.51382300  0.79266000  0.68047300  1
  C  1856  1  0.54552950  0.81890600  0.72400450  1
  C  1857  1  0.54175150  0.85125550  0.75101600  1
  C  1858  1  0.50702700  0.85756600  0.73519500  1
  C  1859  1  0.47508450  0.82982850  0.69239200  1
  C  1860  1  0.47845350  0.79807200  0.66554050  1
  C  1862  1  0.60711150  0.87273400  0.80912650  1
  C  1863  1  0.61108950  0.84103300  0.78282150  1
  C  1870  1  0.97481700  0.33495650  0.76170550  1
  C  1871  1  0.99217550  0.30876550  0.76718700  1
  C  1872  1  0.98690200  0.27645650  0.73107450  1
  C  1873  1  0.96478000  0.27014550  0.69003750  1
  C  1874  1  0.94967150  0.29784900  0.68581750  1
  C  1875  1  0.95453200  0.32957650  0.72093250  1
  C  1877  1  0.02358450  0.25502400  0.77497450  1
  C  1878  1  0.02892900  0.28669150  0.81064050  1
  C  1885  1  0.38940650  0.63723050  0.25383300  1
  C  1886  1  0.38394000  0.60553850  0.26568650  1
  C  1887  1  0.42005600  0.60931250  0.29649250  1
  C  1888  1  0.46109750  0.64402750  0.31539500  1
  C  1889  1  0.46531000  0.67597700  0.30454900  1
  C  1890  1  0.43019250  0.67260550  0.27431600  1
  C  1892  1  0.37615350  0.54396650  0.28925100  1
  C  1893  1  0.34048450  0.53999350  0.25895800  1
  C  1900  1  0.47042600  0.17610850  0.87396950  1
  C  1901  1  0.42687050  0.15871100  0.86208450  1
  C  1902  1  0.39982050  0.16399000  0.83126150  1
  C  1903  1  0.41561800  0.18613150  0.81235450  1
  C  1904  1  0.45841950  0.20122650  0.82319800  1
  C  1905  1  0.48531850  0.19646550  0.85352800  1
  C  1907  1  0.34171350  0.12724000  0.83845350  1
  C  1908  1  0.36805050  0.12188900  0.86875950  1
  C  1915  1  0.70359800  0.49060850  0.79288350  1
  C  1916  1  0.74715500  0.52227250  0.81903150  1
  C  1917  1  0.77421150  0.51848200  0.85133950  1
  C  1918  1  0.75842750  0.48377350  0.85768200  1
  C  1919  1  0.71558000  0.45190900  0.83007400  1
  C  1920  1  0.68869750  0.45526050  0.79832600  1
  C  1922  1  0.83232650  0.58376450  0.87267900  1
  C  1923  1  0.80598450  0.58775200  0.84101250  1
  C  1930  1  0.78507850  0.95196250  0.33514500  1
  C  1931  1  0.79054100  0.96921950  0.30887950  1
  C  1932  1  0.75442500  0.96390300  0.27653600  1
  C  1933  1  0.71339100  0.94182600  0.27025300  1
  C  1934  1  0.70917800  0.92676550  0.29799250  1
  C  1935  1  0.74429650  0.93164200  0.32973250  1
  C  1937  1  0.79831100  0.00044050  0.25500650  1
  C  1938  1  0.83398150  0.00582200  0.28670650  1
  H  7  1  0.42667300  0.88482200  0.81142600  1
  H  8  1  0.41391900  0.95166300  0.74658400  1
  H  9  1  0.32011100  0.90013350  0.77537550  1
  H  16  1  0.44306850  0.85869850  0.74658300  1
  H  17  1  0.56559400  0.93891700  0.77512400  1
  H  18  1  0.49521600  0.99039650  0.81131050  1
  H  25  1  0.74767500  0.47199250  0.54549550  1
  H  26  1  0.76017200  0.41980350  0.62500950  1
  H  27  1  0.85417650  0.54233800  0.66738450  1
  H  34  1  0.73112100  0.39077950  0.50289450  1
  H  35  1  0.60857300  0.29680700  0.46051900  1
  H  36  1  0.67896300  0.40327850  0.58243650  1
  H  43  1  0.01358800  0.24293900  0.58230800  1
  H  44  1  0.88188300  0.17592050  0.50279650  1
  H  45  1  0.96204300  0.22753750  0.46040850  1
  H  52  1  0.97493800  0.26898950  0.62489650  1
  H  53  1  0.92344800  0.18879600  0.66730600  1
  H  54  1  0.90801600  0.13729150  0.54539050  1
  H  61  1  0.16068600  0.65580050  0.31626750  1
  H  62  1  0.29238700  0.70797450  0.38095050  1
  H  63  1  0.21221600  0.58539800  0.35232000  1
  H  70  1  0.19926200  0.73694700  0.38097800  1
  H  71  1  0.25088150  0.83106000  0.35256050  1
  H  72  1  0.26637400  0.72462200  0.31636700  1
  H  79  1  0.67913100  0.31628000  0.13734800  1
  H  80  1  0.73120100  0.38111250  0.26902750  1
  H  81  1  0.60861650  0.35234250  0.18869600  1
  H  88  1  0.76042650  0.38117750  0.17616300  1
  H  89  1  0.85430250  0.35247200  0.22773950  1
  H  90  1  0.74769450  0.31628650  0.24296600  1
  H  97  1  0.26598350  0.58235350  0.99042600  1
  H  98  1  0.19916700  0.50277850  0.85873750  1
  H  99  1  0.25075750  0.46051600  0.93905550  1
  H  106  1  0.29209250  0.62488300  0.95170950  1
  H  107  1  0.21185550  0.66722000  0.90013450  1
  H  108  1  0.16040000  0.54533100  0.88478300  1
  H  115  1  0.49501050  0.54546500  0.72418350  1
  H  116  1  0.44292650  0.62506350  0.73699400  1
  H  117  1  0.56553850  0.66731800  0.83077250  1
  H  124  1  0.41379250  0.50296000  0.70782650  1
  H  125  1  0.31978350  0.46062450  0.58530900  1
  H  126  1  0.42632300  0.58250050  0.65566950  1
  H  133  1  0.90779400  0.81134550  0.40310450  1
  H  134  1  0.97482150  0.74667500  0.39058750  1
  H  135  1  0.92317650  0.77521150  0.29658700  1
  H  142  1  0.88181150  0.74662300  0.41969750  1
  H  143  1  0.96215100  0.77540750  0.54229550  1
  H  144  1  0.01349850  0.81149000  0.47178850  1
  H  151  1  0.60561400  0.99054500  0.24301900  1
  H  152  1  0.52613050  0.85883050  0.17590100  1
  H  153  1  0.48367500  0.93891300  0.22750900  1
  H  160  1  0.64824150  0.95198350  0.26904900  1
  H  161  1  0.69065600  0.90036800  0.18891700  1
  H  162  1  0.56872900  0.88489750  0.13734050  1
  H  169  1  0.33955000  0.13709400  0.65566700  1
  H  170  1  0.40421850  0.26879900  0.70786250  1
  H  171  1  0.37565900  0.18865600  0.58530700  1
  H  178  1  0.40427400  0.17582900  0.73699600  1
  H  179  1  0.37550900  0.22738450  0.83082350  1
  H  180  1  0.33940600  0.24264600  0.72423500  1
  H  187  1  0.83452550  0.40319000  0.88469150  1
  H  188  1  0.76977350  0.39059350  0.95163800  1
  H  189  1  0.79838200  0.29664550  0.90002550  1
  H  196  1  0.76974600  0.41975700  0.85869000  1
  H  197  1  0.79856700  0.54235900  0.93906700  1
  H  198  1  0.83464300  0.47182000  0.99036900  1
  H  205  1  0.56872650  0.72459150  0.47206200  1
  H  206  1  0.64826400  0.73720650  0.41990650  1
  H  207  1  0.69059950  0.83113850  0.54246400  1
  H  214  1  0.52615450  0.70804450  0.39074300  1
  H  215  1  0.48391400  0.58546750  0.29692150  1
  H  216  1  0.60576300  0.65597050  0.40350950  1
  H  439  1  0.72971450  0.22248050  0.27410300  1
  H  440  1  0.73478550  0.15389900  0.33797150  1
  H  441  1  0.84071600  0.21880300  0.33032000  1
  H  448  1  0.71320500  0.24771500  0.33798200  1
  H  449  1  0.59975750  0.17538000  0.33065050  1
  H  450  1  0.65431100  0.11526050  0.27430150  1
  H  457  1  0.44409250  0.63128550  0.57974700  1
  H  458  1  0.43935450  0.69004550  0.50605500  1
  H  459  1  0.33322000  0.57667050  0.46502850  1
  H  466  1  0.46087800  0.71167350  0.62149650  1
  H  467  1  0.57439100  0.81767600  0.66257500  1
  H  468  1  0.51974250  0.70671550  0.54790200  1
  H  475  1  0.13858350  0.90509350  0.54795700  1
  H  476  1  0.27104700  0.97356700  0.62158100  1
  H  477  1  0.19845150  0.90862650  0.66256300  1
  H  484  1  0.17724600  0.87984800  0.50620800  1
  H  485  1  0.24214800  0.95225050  0.46507450  1
  H  486  1  0.24592200  0.01229050  0.57978550  1
  H  493  1  0.03551600  0.49641400  0.85366400  1
  H  494  1  0.90306950  0.43755200  0.78987250  1
  H  495  1  0.97547700  0.55107450  0.79737750  1
  H  502  1  0.99689450  0.41599750  0.78983400  1
  H  503  1  0.93189750  0.30990100  0.79720150  1
  H  504  1  0.92817100  0.42084250  0.85359150  1
  H  511  1  0.51970500  0.85357600  0.01252000  1
  H  512  1  0.46083250  0.78972750  0.88006500  1
  H  513  1  0.57439300  0.79732450  0.95249750  1
  H  520  1  0.43917100  0.78971800  0.97379600  1
  H  521  1  0.33322350  0.79725200  0.90879150  1
  H  522  1  0.44423450  0.85355350  0.90518400  1
  H  529  1  0.92834700  0.54793100  0.11544700  1
  H  530  1  0.99700600  0.62166600  0.24790100  1
  H  531  1  0.93196800  0.66257650  0.17532550  1
  H  538  1  0.90327350  0.50628150  0.15430700  1
  H  539  1  0.97586150  0.46526200  0.21915250  1
  H  540  1  0.03572050  0.57986300  0.22266450  1
  H  547  1  0.65463400  0.57977250  0.42112650  1
  H  548  1  0.71336750  0.50606050  0.41595400  1
  H  549  1  0.59984550  0.46518450  0.31004400  1
  H  556  1  0.73504650  0.62143800  0.43763850  1
  H  557  1  0.84103850  0.66254700  0.55119050  1
  H  558  1  0.73006800  0.54788000  0.49653300  1
  H  565  1  0.24556400  0.27397300  0.70639600  1
  H  566  1  0.17728200  0.33812600  0.71178400  1
  H  567  1  0.24215050  0.33025350  0.81756400  1
  H  574  1  0.27089200  0.33808850  0.69003550  1
  H  575  1  0.19838800  0.33060550  0.57652250  1
  H  576  1  0.13841450  0.27422700  0.63117850  1
  H  583  1  0.57111050  0.11517950  0.90484700  1
  H  584  1  0.64471700  0.24766100  0.97361500  1
  H  585  1  0.68581100  0.17527900  0.90861100  1
  H  592  1  0.52931550  0.15395850  0.87983400  1
  H  593  1  0.48839150  0.21890150  0.95246700  1
  H  594  1  0.60298650  0.22241250  0.01227300  1
  H  601  1  0.87692100  0.01244750  0.49647450  1
  H  602  1  0.81307300  0.87999400  0.43765000  1
  H  603  1  0.82064500  0.95248450  0.55117650  1
  H  610  1  0.81317700  0.97391250  0.41615050  1
  H  611  1  0.82042500  0.90889850  0.30999450  1
  H  612  1  0.87671050  0.90499200  0.42083550  1
  H  619  1  0.29761150  0.70703000  0.22296150  1
  H  620  1  0.36124550  0.71177600  0.15414150  1
  H  621  1  0.35386550  0.81790000  0.21908450  1
  H  628  1  0.36141300  0.69025000  0.24797000  1
  H  629  1  0.35361900  0.57661750  0.17527650  1
  H  630  1  0.29727100  0.63141650  0.11552350  1
  H  637  1  0.60297050  0.42084150  0.63130800  1
  H  638  1  0.52932150  0.41593700  0.69009850  1
  H  639  1  0.48827650  0.30989600  0.57662950  1
  H  646  1  0.64472250  0.43757350  0.71186300  1
  H  647  1  0.68566200  0.55118950  0.81768250  1
  H  648  1  0.57107000  0.49638500  0.70657700  1
  H  875  1  0.37034000  0.98265850  0.91338750  1
  H  876  1  0.35957100  0.78586300  0.82574000  1
  H  877  1  0.35253650  0.81128000  0.77754250  1
  H  879  1  0.37421000  0.89220150  0.94480450  1
  H  890  1  0.80380250  0.63013900  0.69949850  1
  H  891  1  0.81486200  0.55321150  0.51364650  1
  H  892  1  0.82196950  0.51214100  0.54620150  1
  H  894  1  0.79993600  0.65754100  0.60508600  1
  H  905  1  0.01768650  0.14500500  0.42832850  1
  H  906  1  0.12671750  0.34198700  0.61413950  1
  H  907  1  0.05304800  0.31653400  0.58159800  1
  H  909  1  0.13952000  0.23556450  0.52268850  1
  H  920  1  0.15638700  0.49743300  0.21421200  1
  H  921  1  0.04760450  0.57458100  0.30221250  1
  H  922  1  0.12125700  0.61562850  0.35037650  1
  H  924  1  0.03462050  0.47019600  0.18297750  1
  H  935  1  0.52090950  0.21432100  0.13324250  1
  H  936  1  0.59769500  0.30191100  0.02401300  1
  H  937  1  0.63883900  0.35019400  0.09765200  1
  H  939  1  0.49344800  0.18282550  0.01137750  1
  H  950  1  0.16807250  0.42844000  0.99457350  1
  H  951  1  0.36504600  0.61425700  0.10370500  1
  H  952  1  0.33964850  0.58164950  0.02998900  1
  H  954  1  0.25851100  0.52284450  0.11641850  1
  H  965  1  0.65313350  0.69926350  0.78006100  1
  H  966  1  0.57640850  0.51362750  0.79154100  1
  H  967  1  0.53532500  0.54624750  0.79862950  1
  H  969  1  0.68056400  0.60488550  0.77628350  1
  H  980  1  0.00558600  0.91314650  0.34664050  1
  H  981  1  0.80889800  0.82563150  0.33608350  1
  H  982  1  0.83423100  0.77737950  0.32892250  1
  H  984  1  0.91525000  0.94467550  0.35074150  1
  H  995  1  0.45147500  0.99458850  0.14514450  1
  H  996  1  0.63733800  0.10361350  0.34206750  1
  H  997  1  0.60487450  0.02998150  0.31657100  1
  H  999  1  0.54575800  0.11644000  0.23573400  1
  H  1010  1  0.23756500  0.13302200  0.49750100  1
  H  1011  1  0.32539350  0.02400200  0.57440450  1
  H  1012  1  0.37361850  0.09760550  0.61544900  1
  H  1014  1  0.20617050  0.01119200  0.47012350  1
  H  1025  1  0.93646600  0.34702950  0.98263350  1
  H  1026  1  0.84879500  0.33606850  0.78573150  1
  H  1027  1  0.80052150  0.32895900  0.81110950  1
  H  1029  1  0.96790200  0.35092650  0.89219050  1
  H  1040  1  0.72279600  0.78076700  0.63022400  1
  H  1041  1  0.53680800  0.79159100  0.55332800  1
  H  1042  1  0.56940650  0.79886100  0.51229050  1
  H  1044  1  0.62827100  0.77658750  0.65752350  1
  H  1055  1  0.37001600  0.42830000  0.49758800  1
  H  1056  1  0.35927400  0.61437100  0.57428900  1
  H  1057  1  0.35206500  0.58187800  0.61542800  1
  H  1059  1  0.37413000  0.52269850  0.47009450  1
  H  1070  1  0.80361700  0.21423750  0.14496750  1
  H  1071  1  0.81472350  0.30199350  0.34192300  1
  H  1072  1  0.82208600  0.35039050  0.31662550  1
  H  1074  1  0.79945650  0.18271150  0.23529100  1
  H  1085  1  0.01775650  0.91362050  0.62993800  1
  H  1086  1  0.12676150  0.82552350  0.55326500  1
  H  1087  1  0.05305350  0.77737450  0.51209500  1
  H  1089  1  0.13959600  0.94483450  0.65749650  1
  H  1100  1  0.15632100  0.69953150  0.98259650  1
  H  1101  1  0.04719200  0.51343900  0.78589300  1
  H  1102  1  0.12077450  0.54596150  0.81122000  1
  H  1104  1  0.03446900  0.60505750  0.89226550  1
  H  1115  1  0.52063850  0.34690200  0.42828150  1
  H  1116  1  0.59769550  0.33611450  0.61427100  1
  H  1117  1  0.63879250  0.32905900  0.58175050  1
  H  1119  1  0.49322650  0.35079600  0.52269150  1
  H  1130  1  0.16837500  0.78066600  0.21441500  1
  H  1131  1  0.36537450  0.79187050  0.30235300  1
  H  1132  1  0.33996300  0.79898800  0.35056500  1
  H  1134  1  0.25889800  0.77683600  0.18309400  1
  H  1145  1  0.65333650  0.99449450  0.91327600  1
  H  1146  1  0.57650800  0.10357500  0.82546100  1
  H  1147  1  0.53538400  0.02992000  0.77721500  1
  H  1149  1  0.68077800  0.11633250  0.94462950  1
  H  1160  1  0.00594950  0.13323350  0.69954100  1
  H  1161  1  0.80914650  0.02411600  0.51354250  1
  H  1162  1  0.83449000  0.09775000  0.54610800  1
  H  1164  1  0.91558700  0.01139600  0.60505600  1
  H  1175  1  0.45169700  0.49785650  0.34736450  1
  H  1176  1  0.63762500  0.57447650  0.33635950  1
  H  1177  1  0.60516750  0.61567650  0.32927800  1
  H  1179  1  0.54600450  0.47027550  0.35125000  1
  H  1190  1  0.23736500  0.14483650  0.78040750  1
  H  1191  1  0.32516550  0.34166450  0.79129700  1
  H  1192  1  0.37346950  0.31626900  0.79853850  1
  H  1194  1  0.20595400  0.23524350  0.77631250  1
  H  1205  1  0.93674050  0.62996400  0.99458550  1
  H  1206  1  0.84880750  0.55327550  0.10368200  1
  H  1207  1  0.80059400  0.51213850  0.02998750  1
  H  1209  1  0.96807700  0.65748200  0.11643700  1
  H  1220  1  0.72278100  0.98273950  0.13316950  1
  H  1221  1  0.53687800  0.78590650  0.02430150  1
  H  1222  1  0.56947200  0.81133350  0.09790950  1
  H  1224  1  0.62828200  0.89224550  0.01137450  1
  H  1595  1  0.32116950  0.01132300  0.84038650  1
  H  1596  1  0.28816000  0.91656900  0.63409300  1
  H  1597  1  0.33930350  0.90864400  0.67945150  1
  H  1599  1  0.25074250  0.99472250  0.72416900  1
  H  1610  1  0.85305550  0.60637050  0.77745100  1
  H  1611  1  0.88577200  0.43287100  0.71576000  1
  H  1612  1  0.83470550  0.42714300  0.65667150  1
  H  1614  1  0.92329050  0.56044500  0.83131050  1
  H  1625  1  0.91598550  0.11633300  0.35036450  1
  H  1626  1  0.80421400  0.21080000  0.41202400  1
  H  1627  1  0.85757200  0.21882600  0.47112500  1
  H  1629  1  0.81620700  0.13270600  0.29648900  1
  H  1640  1  0.25829250  0.52140550  0.28723000  1
  H  1641  1  0.36996000  0.69481300  0.49348100  1
  H  1642  1  0.31668200  0.70060900  0.44809700  1
  H  1644  1  0.35789950  0.56720450  0.40345800  1
  H  1655  1  0.54474400  0.28729700  0.23497900  1
  H  1656  1  0.71798750  0.49362050  0.34648600  1
  H  1657  1  0.72376400  0.44826250  0.29316650  1
  H  1659  1  0.59051300  0.40352300  0.33456900  1
  H  1670  1  0.13948450  0.35033450  0.89275100  1
  H  1671  1  0.23424550  0.41217200  0.78124750  1
  H  1672  1  0.24220950  0.47126000  0.83460950  1
  H  1674  1  0.15607850  0.29656400  0.79311350  1
  H  1685  1  0.62940700  0.77751650  0.82970550  1
  H  1686  1  0.45618350  0.71562100  0.86280750  1
  H  1687  1  0.45039650  0.65657950  0.81158200  1
  H  1689  1  0.58367500  0.83125350  0.90026750  1
  H  1700  1  0.03452100  0.84041200  0.29787400  1
  H  1701  1  0.93994750  0.63413300  0.26496250  1
  H  1702  1  0.93186100  0.67944100  0.31598400  1
  H  1704  1  0.01814450  0.72425700  0.22761150  1
  H  1715  1  0.37359350  0.89281700  0.11629850  1
  H  1716  1  0.43544700  0.78123000  0.21091300  1
  H  1717  1  0.49448200  0.83450900  0.21879800  1
  H  1719  1  0.31983650  0.79317300  0.13289250  1
  H  1730  1  0.31047800  0.23485800  0.52142700  1
  H  1731  1  0.51676650  0.34641400  0.69474550  1
  H  1732  1  0.47143000  0.29304950  0.70046850  1
  H  1734  1  0.42667900  0.33455500  0.56730200  1
  H  1745  1  0.86354150  0.29791300  0.01135650  1
  H  1746  1  0.65721650  0.26484800  0.91662950  1
  H  1747  1  0.70255050  0.31595850  0.90863200  1
  H  1749  1  0.74735650  0.22753550  0.99485100  1
  H  1760  1  0.80066600  0.82989700  0.60637900  1
  H  1761  1  0.73902100  0.86287950  0.43305650  1
  H  1762  1  0.67990150  0.81179950  0.42730300  1
  H  1764  1  0.85455050  0.90023400  0.56054750  1
  H  1775  1  0.32112850  0.35050400  0.52146550  1
  H  1776  1  0.28806750  0.41227500  0.69471850  1
  H  1777  1  0.33919050  0.47136450  0.70047800  1
  H  1779  1  0.25070850  0.29670000  0.56727350  1
  H  1790  1  0.85299950  0.28741850  0.11627000  1
  H  1791  1  0.88617850  0.49377100  0.21129650  1
  H  1792  1  0.83504550  0.44837350  0.21926300  1
  H  1794  1  0.92346250  0.40367350  0.13296200  1
  H  1805  1  0.91585450  0.84034350  0.60618800  1
  H  1806  1  0.80449650  0.63403850  0.43293700  1
  H  1807  1  0.85773350  0.67947900  0.42713750  1
  H  1809  1  0.81638500  0.72404750  0.56045150  1
  H  1820  1  0.25802250  0.77729050  0.01143800  1
  H  1821  1  0.36968350  0.71562550  0.91679500  1
  H  1822  1  0.31631400  0.65651950  0.90874450  1
  H  1824  1  0.35774200  0.83116950  0.99498750  1
  H  1835  1  0.54456350  0.29794750  0.35044500  1
  H  1836  1  0.71794200  0.26506800  0.41216600  1
  H  1837  1  0.72372850  0.31621100  0.47123550  1
  H  1839  1  0.59038750  0.22756450  0.29661200  1
  H  1850  1  0.13955050  0.82977000  0.28735750  1
  H  1851  1  0.23410150  0.86254300  0.49357550  1
  H  1852  1  0.24213700  0.81150350  0.44823050  1
  H  1854  1  0.15596950  0.90000400  0.40354050  1
  H  1865  1  0.62958950  0.89284900  0.84030950  1
  H  1866  1  0.45621200  0.78108550  0.63402950  1
  H  1867  1  0.45044050  0.83443050  0.67935800  1
  H  1869  1  0.58374050  0.79310200  0.72415650  1
  H  1880  1  0.03469300  0.23493950  0.77734750  1
  H  1881  1  0.93998700  0.34654450  0.71566750  1
  H  1882  1  0.93204100  0.29324650  0.65657050  1
  H  1884  1  0.01809550  0.33455250  0.83119800  1
  H  1895  1  0.37377600  0.52150400  0.29798100  1
  H  1896  1  0.43545850  0.69486100  0.26506450  1
  H  1897  1  0.49455750  0.70063300  0.31618250  1
  H  1899  1  0.31992300  0.56733250  0.22762350  1
  H  1910  1  0.31051200  0.11608850  0.82969950  1
  H  1911  1  0.51681050  0.21090650  0.86271000  1
  H  1912  1  0.47141200  0.21884500  0.81155500  1
  H  1914  1  0.42675500  0.13275050  0.90014450  1
  H  1925  1  0.86353350  0.60619800  0.89271550  1
  H  1926  1  0.65719350  0.43300100  0.78135950  1
  H  1927  1  0.70260400  0.42722850  0.83465050  1
  H  1929  1  0.74726950  0.56045700  0.79319750  1
  H  1940  1  0.80068150  0.01150100  0.23488650  1
  H  1941  1  0.73901450  0.91713750  0.34673000  1
  H  1942  1  0.67993300  0.90914950  0.29340150  1
  H  1944  1  0.85454750  0.99510650  0.33465400  1
  N  871  1  0.36403900  0.93009800  0.86838800  1
  N  874  1  0.37142750  0.90160850  0.92413100  1
  N  886  1  0.81023000  0.59146600  0.65334500  1
  N  889  1  0.80275650  0.63969750  0.61732800  1
  N  901  1  0.02518700  0.19760900  0.47447200  1
  N  904  1  0.10943400  0.22613400  0.51047100  1
  N  916  1  0.14896150  0.53619250  0.25930600  1
  N  919  1  0.06470900  0.48803400  0.20362300  1
  N  931  1  0.55958700  0.25932250  0.12566750  1
  N  934  1  0.51132500  0.20351350  0.04145350  1
  N  946  1  0.22067550  0.47461850  0.00211200  1
  N  949  1  0.24911400  0.51062750  0.08634150  1
  N  961  1  0.61448950  0.65315100  0.78655350  1
  N  964  1  0.66270350  0.61711200  0.77906650  1
  N  976  1  0.95303800  0.86817050  0.34038050  1
  N  979  1  0.92463600  0.92398550  0.34792850  1
  N  991  1  0.49767950  0.00210500  0.19771550  1
  N  994  1  0.53356450  0.08635350  0.22629200  1
  N  1006  1  0.28262800  0.12550200  0.53617300  1
  N  1009  1  0.22685800  0.04127100  0.48795900  1
  N  1021  1  0.89142850  0.34062800  0.93002350  1
  N  1024  1  0.94722150  0.34813100  0.90159050  1
  N  1036  1  0.67660100  0.78716250  0.59156150  1
  N  1039  1  0.64051550  0.77945850  0.63969400  1
  N  1051  1  0.36367750  0.47456550  0.53622900  1
  N  1054  1  0.37129350  0.51050600  0.48797150  1
  N  1066  1  0.81008450  0.25930450  0.19760400  1
  N  1069  1  0.80234400  0.20342650  0.22593550  1
  N  1081  1  0.02525200  0.86852500  0.59127900  1
  N  1084  1  0.10950650  0.92420000  0.63959350  1
  N  1096  1  0.14876100  0.65325850  0.93004550  1
  N  1099  1  0.06454350  0.61726950  0.90164800  1
  N  1111  1  0.55937500  0.34059650  0.47450850  1
  N  1114  1  0.51108950  0.34800300  0.51047050  1
  N  1126  1  0.22099450  0.78713950  0.25951100  1
  N  1129  1  0.24949200  0.77965600  0.20376800  1
  N  1141  1  0.61467800  0.00201350  0.86820250  1
  N  1144  1  0.66291500  0.08625200  0.92396100  1
  N  1156  1  0.95336700  0.12569150  0.65332550  1
  N  1159  1  0.92496750  0.04147100  0.61728550  1
  N  1171  1  0.49792750  0.53649200  0.34098650  1
  N  1174  1  0.53382850  0.48817500  0.34846850  1
  N  1186  1  0.28241400  0.19739600  0.78675300  1
  N  1189  1  0.22663350  0.22584400  0.77914850  1
  N  1201  1  0.89167250  0.59131350  0.00211700  1
  N  1204  1  0.94741850  0.63959450  0.08635500  1
  N  1216  1  0.67660250  0.93018500  0.12570250  1
  N  1219  1  0.64052600  0.90167050  0.04145950  1
  N  1591  1  0.32993250  0.97958550  0.79239500  1
  N  1594  1  0.27141850  0.98995050  0.74147100  1
  N  1606  1  0.84423350  0.54957650  0.73696000  1
  N  1609  1  0.90264700  0.55709550  0.80585850  1
  N  1621  1  0.89968600  0.14801450  0.39085050  1
  N  1624  1  0.83831700  0.13753050  0.32194750  1
  N  1636  1  0.27457850  0.57819050  0.33520100  1
  N  1639  1  0.33583400  0.57058200  0.38614700  1
  N  1651  1  0.60145350  0.33530950  0.25117500  1
  N  1654  1  0.59387750  0.38622650  0.31248200  1
  N  1666  1  0.17129050  0.39087350  0.87656900  1
  N  1669  1  0.16087750  0.32200750  0.81521800  1
  N  1681  1  0.57269000  0.73697900  0.82097800  1
  N  1684  1  0.58030200  0.80581850  0.87957350  1
  N  1696  1  0.00275500  0.79240050  0.30660550  1
  N  1699  1  0.01329800  0.74153600  0.24822600  1
  N  1711  1  0.41411750  0.87655050  0.14797800  1
  N  1714  1  0.34527100  0.81525050  0.13764850  1
  N  1726  1  0.35847550  0.25106900  0.57815850  1
  N  1729  1  0.40937900  0.31244800  0.57064400  1
  N  1741  1  0.81552900  0.30663900  0.97959100  1
  N  1744  1  0.76464350  0.24817950  0.99003900  1
  N  1756  1  0.76017650  0.82116550  0.54963700  1
  N  1759  1  0.82909100  0.87959450  0.55719150  1
  N  1771  1  0.32982150  0.39103000  0.57816950  1
  N  1774  1  0.27135600  0.32214900  0.57062400  1
  N  1786  1  0.84435600  0.33543800  0.14817300  1
  N  1789  1  0.90281500  0.38636950  0.13775950  1
  N  1801  1  0.89966000  0.79236200  0.54945800  1
  N  1804  1  0.83844550  0.74136950  0.55707700  1
  N  1816  1  0.27426150  0.73679600  0.97966350  1
  N  1819  1  0.33563100  0.80571000  0.99015800  1
  N  1831  1  0.60134450  0.30675000  0.39093850  1
  N  1834  1  0.59375800  0.24823900  0.32205900  1
  N  1846  1  0.17128200  0.82098200  0.33532900  1
  N  1849  1  0.16078550  0.87937000  0.38623950  1
  N  1861  1  0.57281750  0.87655350  0.79231100  1
  N  1864  1  0.58038250  0.81520350  0.74143800  1
  N  1876  1  0.00294750  0.25119700  0.73685550  1
  N  1879  1  0.01331650  0.31247600  0.80574750  1
  N  1891  1  0.41427200  0.57825750  0.30673550  1
  N  1894  1  0.34537900  0.57069100  0.24826900  1
  N  1906  1  0.35851050  0.14790500  0.82098650  1
  N  1909  1  0.40945000  0.13753300  0.87948200  1
  N  1921  1  0.81552700  0.54949700  0.87654300  1
  N  1924  1  0.76457700  0.55709100  0.81527500  1
  N  1936  1  0.76020050  0.97986600  0.25121850  1
  N  1939  1  0.82909500  0.99030150  0.31255350  1
  O  878  1  0.37759100  0.96273950  0.97297250  1
  O  893  1  0.79644900  0.68234950  0.67218250  1
  O  908  1  0.09720900  0.16495600  0.45561600  1
  O  923  1  0.07684100  0.44525750  0.15468250  1
  O  938  1  0.46865400  0.15467650  0.05375250  1
  O  953  1  0.18793900  0.45573250  0.07407350  1
  O  968  1  0.70532800  0.67192750  0.77269850  1
  O  983  1  0.98574200  0.97279300  0.35402600  1
  O  998  1  0.47865850  0.07411550  0.16514700  1
  O  1013  1  0.17794350  0.05351500  0.44530850  1
  O  1028  1  0.99609700  0.35438600  0.96276900  1
  O  1043  1  0.69543700  0.77323250  0.68236050  1
  O  1058  1  0.37747400  0.45552250  0.44534050  1
  O  1073  1  0.79602400  0.15452100  0.16473300  1
  O  1088  1  0.09728400  0.97314800  0.68223400  1
  O  1103  1  0.07682850  0.67226450  0.96275700  1
  O  1118  1  0.46836600  0.35417300  0.45553800  1
  O  1133  1  0.18828750  0.77329450  0.15481600  1
  O  1148  1  0.70555900  0.07400600  0.97288000  1
  O  1163  1  0.98610450  0.05373550  0.67222700  1
  O  1178  1  0.47888250  0.44555500  0.35469850  1
  O  1193  1  0.17774150  0.16472400  0.77296050  1
  O  1208  1  0.99633100  0.68222400  0.07409600  1
  O  1223  1  0.69541800  0.96279000  0.05364100  1
  O  1598  1  0.26374250  0.02569350  0.79864900  1
  O  1613  1  0.91040250  0.62200150  0.84926300  1
  O  1628  1  0.85981350  0.10186600  0.27854750  1
  O  1643  1  0.31437350  0.50570100  0.32898850  1
  O  1658  1  0.52906900  0.32902700  0.29110700  1
  O  1673  1  0.12506200  0.27854750  0.83657350  1
  O  1688  1  0.64510650  0.84928050  0.88719700  1
  O  1703  1  0.04907100  0.79873450  0.24058850  1
  O  1718  1  0.30182350  0.83669450  0.10196300  1
  O  1733  1  0.35219600  0.29105850  0.50581750  1
  O  1748  1  0.82184900  0.24055950  0.02582650  1
  O  1763  1  0.87249250  0.88723650  0.62203200  1
  O  1778  1  0.26377050  0.27870000  0.50583450  1
  O  1793  1  0.91035200  0.32915700  0.10182200  1
  O  1808  1  0.85979950  0.79854400  0.62189350  1
  O  1823  1  0.31420150  0.84911700  0.02592750  1
  O  1838  1  0.52887850  0.24052150  0.27864700  1
  O  1853  1  0.12506100  0.88708550  0.32908750  1
  O  1868  1  0.64525750  0.83669100  0.79862350  1
  O  1883  1  0.04908100  0.29104550  0.84915650  1
  O  1898  1  0.30196800  0.50583250  0.24058950  1
  O  1913  1  0.35226250  0.10170100  0.88710250  1
  O  1928  1  0.82177500  0.62187900  0.83661000  1
  O  1943  1  0.87248950  0.02592800  0.29103350  1
