# generated using pymatgen
data_H17(C8N3)2
_symmetry_space_group_name_H-M   'P 1'
_cell_length_a   30.49873115
_cell_length_b   30.49873115
_cell_length_c   30.49873115
_cell_angle_alpha   105.37721924
_cell_angle_beta   105.37721924
_cell_angle_gamma   118.01186875
_symmetry_Int_Tables_number   1
_chemical_formula_structural   H17(C8N3)2
_chemical_formula_sum   'H408 C384 N144'
_cell_volume   21469.65249992
_cell_formula_units_Z   24
loop_
 _symmetry_equiv_pos_site_id
 _symmetry_equiv_pos_as_xyz
  1  'x, y, z'
loop_
 _atom_site_type_symbol
 _atom_site_label
 _atom_site_symmetry_multiplicity
 _atom_site_fract_x
 _atom_site_fract_y
 _atom_site_fract_z
 _atom_site_occupancy
  C  1  1  0.10676550  0.50037200  0.58312250  1
  C  2  1  0.06508950  0.49615950  0.54401700  1
  C  3  1  0.05178700  0.47030050  0.49204250  1
  C  7  1  0.22781500  0.52592900  0.55180100  1
  C  8  1  0.27224000  0.57108900  0.55034100  1
  C  12  1  0.18698600  0.53310900  0.56556700  1
  C  15  1  0.01459850  0.47029950  0.45485400  1
  C  16  1  0.95359100  0.50037200  0.42994800  1
  C  17  1  0.98848350  0.49615900  0.46741150  1
  C  21  1  0.01046850  0.52592950  0.33445800  1
  C  22  1  0.05708650  0.57108850  0.33518900  1
  C  26  1  0.00388200  0.53310950  0.38246550  1
  C  29  1  0.92203150  0.51817000  0.44218150  1
  C  31  1  0.31341000  0.56555950  0.54145250  1
  C  32  1  0.22474450  0.47589650  0.54145300  1
  C  37  1  0.32068500  0.52587200  0.55179800  1
  C  38  1  0.27480100  0.47925350  0.55034050  1
  C  44  1  0.51750950  0.53813250  0.55696300  1
  C  45  1  0.47562550  0.54785600  0.54401650  1
  C  46  1  0.47305700  0.58275300  0.58312300  1
  C  47  1  0.51750950  0.61431050  0.63314100  1
  C  48  1  0.43695500  0.52174300  0.49204100  1
  C  50  1  0.51750950  0.49952800  0.51835850  1
  C  51  1  0.47562550  0.47059150  0.46675100  1
  C  52  1  0.43695300  0.48389400  0.45419400  1
  C  57  1  0.37528100  0.53246000  0.56556600  1
  C  61  1  0.01750800  0.53813250  0.05696450  1
  C  62  1  0.01751050  0.61431350  0.13314200  1
  C  64  1  0.06044500  0.56556050  0.28849150  1
  C  65  1  0.97078150  0.47589650  0.28749400  1
  C  70  1  0.03596900  0.58275400  0.14603700  1
  C  71  1  0.04017800  0.54785650  0.10857050  1
  C  72  1  0.04017700  0.47059000  0.03130700  1
  C  74  1  0.06603450  0.52173900  0.12112850  1
  C  75  1  0.06603600  0.48389250  0.08328050  1
  C  81  1  0.01041200  0.52587400  0.24152700  1
  C  82  1  0.96525200  0.47925600  0.24079400  1
  C  88  1  0.00323250  0.53246200  0.19352050  1
  C  90  1  0.03615200  0.01817000  0.05630400  1
  C  91  1  0.10676450  0.06262400  0.14537550  1
  C  92  1  0.06508850  0.06005400  0.10791150  1
  C  93  1  0.05178500  0.09872400  0.12046800  1
  C  97  1  0.32068300  0.30786600  0.33379400  1
  C  98  1  0.27479750  0.26344050  0.33453000  1
  C  99  1  0.22474050  0.22227000  0.28782950  1
  C  100  1  0.22781100  0.21499450  0.24086750  1
  C  101  1  0.27223650  0.26087950  0.24013200  1
  C  102  1  0.31340750  0.31093900  0.28683250  1
  C  112  1  0.18698400  0.16039950  0.19285850  1
  C  116  1  0.47305450  0.42891300  0.42928650  1
  C  121  1  0.37527800  0.34869550  0.38180250  1
  C  123  1  0.01460100  0.09872500  0.08328000  1
  C  124  1  0.03596400  0.42891400  0.99220000  1
  C  126  1  0.95359350  0.06262600  0.99219950  1
  C  127  1  0.98848400  0.06005450  0.03130650  1
  C  133  1  0.01040950  0.30786700  0.02352250  1
  C  134  1  0.96525050  0.26343900  0.02498150  1
  C  135  1  0.97078150  0.22227200  0.03387150  1
  C  136  1  0.01046900  0.21499450  0.02352450  1
  C  137  1  0.05708950  0.26088450  0.02498600  1
  C  138  1  0.06044550  0.31094050  0.03387200  1
  C  151  1  0.00388400  0.16040350  0.00975950  1
  C  154  1  0.00323050  0.34869350  0.00975500  1
  C  156  1  0.80720450  0.82266500  0.83445650  1
  C  157  1  0.76277900  0.77677900  0.83519000  1
  C  158  1  0.99886700  0.01883000  0.01835900  1
  C  159  1  0.96992900  0.97760700  0.96741400  1
  C  160  1  0.92825350  0.97503700  0.92995050  1
  C  161  1  0.98323000  0.93893400  0.95485700  1
  C  163  1  0.04653650  0.97760900  0.04401750  1
  C  164  1  0.08143400  0.97503850  0.08312250  1
  C  165  1  0.02042150  0.93893700  0.99204250  1
  C  172  1  0.84803200  0.87725950  0.88246450  1
  C  179  1  0.02455100  0.82266700  0.05180100  1
  C  180  1  0.97793150  0.77678100  0.05034150  1
  C  183  1  0.03113700  0.87726100  0.06556500  1
  C  185  1  0.72160850  0.72672250  0.78849000  1
  C  186  1  0.81027550  0.81538850  0.78749500  1
  C  187  1  0.56196350  0.60874450  0.64603400  1
  C  188  1  0.55939350  0.56706950  0.60857000  1
  C  189  1  0.59806400  0.55376600  0.62112600  1
  C  190  1  0.55939500  0.48980750  0.53130450  1
  C  191  1  0.59806700  0.51592200  0.58327900  1
  C  196  1  0.71433300  0.72979300  0.74152800  1
  C  197  1  0.76021750  0.77421900  0.74079350  1
  C  203  1  0.65974000  0.68896550  0.69351950  1
  C  211  1  0.01750800  0.49952850  0.01835950  1
  C  212  1  0.97457350  0.72672350  0.04145300  1
  C  213  1  0.06423950  0.81539100  0.04145450  1
  C  218  1  0.99483950  0.56707150  0.04401800  1
  C  219  1  0.99905000  0.60874650  0.08312250  1
  C  220  1  0.96898150  0.55377050  0.99204300  1
  C  221  1  0.99484050  0.48980800  0.96675250  1
  C  222  1  0.96898300  0.51592250  0.95419550  1
  C  228  1  0.02460950  0.72979700  0.05180250  1
  C  229  1  0.06976900  0.77422050  0.05034250  1
  C  235  1  0.03178750  0.68896700  0.06556850  1
  C  238  1  0.51750850  0.42335100  0.44217850  1
  C  241  1  0.56196450  0.45491350  0.49219600  1
  C  244  1  0.71433600  0.51179050  0.52352250  1
  C  245  1  0.76022350  0.55840850  0.52498300  1
  C  246  1  0.81027800  0.56176600  0.53386900  1
  C  247  1  0.72160900  0.47210000  0.53386500  1
  C  253  1  0.65974200  0.50520400  0.50975600  1
  C  256  1  0.80720550  0.51172950  0.52351900  1
  C  257  1  0.76277750  0.46656850  0.52497600  1
  C  262  1  0.04653450  0.54149800  0.60791050  1
  C  263  1  0.08142800  0.53728500  0.64537300  1
  C  264  1  0.02041650  0.56735300  0.62046550  1
  C  265  1  0.96992950  0.54149600  0.53130450  1
  C  266  1  0.92825700  0.53729100  0.49220100  1
  C  267  1  0.98323000  0.56735250  0.58328150  1
  C  276  1  0.84803450  0.50454950  0.50975300  1
  C  279  1  0.99886550  0.51882750  0.51835800  1
  C  284  1  0.99904950  0.45491000  0.92928650  1
  C  285  1  0.01750800  0.42335050  0.94218050  1
  C  288  1  0.02460950  0.51178900  0.83379750  1
  C  289  1  0.06977150  0.55840850  0.83453000  1
  C  290  1  0.06424100  0.56176650  0.78783150  1
  C  291  1  0.02455500  0.51173250  0.74086750  1
  C  292  1  0.97793350  0.46657200  0.74013450  1
  C  293  1  0.97457550  0.47210250  0.78683400  1
  C  305  1  0.03113950  0.50455050  0.69286000  1
  C  307  1  0.03178850  0.50520150  0.88180400  1
  C  437  1  0.92269050  0.01883000  0.94218250  1
  C  453  1  0.11298950  0.01883050  0.13247900  1
  C  461  1  0.03681250  0.51882900  0.55630350  1
  C  462  1  0.11298900  0.51882900  0.63248000  1
  C  625  1  0.42512950  0.81873600  0.58312250  1
  C  626  1  0.38345350  0.81452350  0.54401700  1
  C  627  1  0.37015100  0.78866450  0.49204250  1
  C  631  1  0.54617900  0.84429300  0.55180100  1
  C  632  1  0.59060400  0.88945300  0.55034100  1
  C  636  1  0.50535000  0.85147300  0.56556700  1
  C  639  1  0.33296250  0.78866350  0.45485400  1
  C  640  1  0.27195500  0.81873600  0.42994800  1
  C  641  1  0.30684750  0.81452300  0.46741150  1
  C  645  1  0.32883250  0.84429350  0.33445800  1
  C  646  1  0.37545050  0.88945250  0.33518900  1
  C  650  1  0.32224600  0.85147350  0.38246550  1
  C  653  1  0.24039550  0.83653400  0.44218150  1
  C  655  1  0.63177400  0.88392350  0.54145250  1
  C  656  1  0.54310850  0.79426050  0.54145300  1
  C  661  1  0.63904900  0.84423600  0.55179800  1
  C  662  1  0.59316500  0.79761750  0.55034050  1
  C  668  1  0.83587345  0.85649645  0.55696300  1
  C  669  1  0.79398945  0.86621995  0.54401650  1
  C  670  1  0.79142095  0.90111695  0.58312300  1
  C  671  1  0.83587345  0.93267445  0.63314100  1
  C  672  1  0.75531895  0.84010695  0.49204100  1
  C  674  1  0.83587345  0.81789195  0.51835850  1
  C  675  1  0.79398945  0.78895545  0.46675100  1
  C  676  1  0.75531695  0.80225795  0.45419400  1
  C  681  1  0.69364500  0.85082400  0.56556600  1
  C  685  1  0.33587195  0.85649645  0.05696450  1
  C  686  1  0.33587445  0.93267745  0.13314200  1
  C  688  1  0.37880900  0.88392450  0.28849150  1
  C  689  1  0.28914550  0.79426050  0.28749400  1
  C  694  1  0.35433295  0.90111795  0.14603700  1
  C  695  1  0.35854195  0.86622045  0.10857050  1
  C  696  1  0.35854095  0.78895395  0.03130700  1
  C  698  1  0.38439845  0.84010295  0.12112850  1
  C  699  1  0.38439995  0.80225645  0.08328050  1
  C  705  1  0.32877600  0.84423800  0.24152700  1
  C  706  1  0.28361600  0.79762000  0.24079400  1
  C  712  1  0.32159650  0.85082600  0.19352050  1
  C  714  1  0.35451600  0.33653400  0.05630400  1
  C  715  1  0.42512850  0.38098800  0.14537550  1
  C  716  1  0.38345250  0.37841800  0.10791150  1
  C  717  1  0.37014900  0.41708800  0.12046800  1
  C  721  1  0.63904700  0.62623000  0.33379400  1
  C  722  1  0.59316150  0.58180450  0.33453000  1
  C  723  1  0.54310450  0.54063400  0.28782950  1
  C  724  1  0.54617500  0.53335850  0.24086750  1
  C  725  1  0.59060050  0.57924350  0.24013200  1
  C  726  1  0.63177150  0.62930300  0.28683250  1
  C  736  1  0.50534800  0.47876350  0.19285850  1
  C  740  1  0.79141845  0.74727695  0.42928650  1
  C  745  1  0.69364200  0.66705950  0.38180250  1
  C  747  1  0.33296500  0.41708900  0.08328000  1
  C  748  1  0.35432795  0.74727795  0.99220000  1
  C  750  1  0.27195750  0.38099000  0.99219950  1
  C  751  1  0.30684800  0.37841850  0.03130650  1
  C  757  1  0.32877350  0.62623100  0.02352250  1
  C  758  1  0.28361450  0.58180300  0.02498150  1
  C  759  1  0.28914550  0.54063600  0.03387150  1
  C  760  1  0.32883300  0.53335850  0.02352450  1
  C  761  1  0.37545350  0.57924850  0.02498600  1
  C  762  1  0.37880950  0.62930450  0.03387200  1
  C  775  1  0.32224800  0.47876750  0.00975950  1
  C  778  1  0.32159450  0.66705750  0.00975500  1
  C  780  1  0.12556850  0.14102900  0.83445650  1
  C  781  1  0.08114300  0.09514300  0.83519000  1
  C  782  1  0.31723100  0.33719400  0.01835900  1
  C  783  1  0.28829300  0.29597100  0.96741400  1
  C  784  1  0.24661750  0.29340100  0.92995050  1
  C  785  1  0.30159400  0.25729800  0.95485700  1
  C  787  1  0.36490050  0.29597300  0.04401750  1
  C  788  1  0.39979800  0.29340250  0.08312250  1
  C  789  1  0.33878550  0.25730100  0.99204250  1
  C  796  1  0.16639600  0.19562350  0.88246450  1
  C  803  1  0.34291500  0.14103100  0.05180100  1
  C  804  1  0.29629550  0.09514500  0.05034150  1
  C  807  1  0.34950100  0.19562500  0.06556500  1
  C  809  1  0.03997250  0.04508650  0.78849000  1
  C  810  1  0.12863950  0.13375250  0.78749500  1
  C  811  1  0.88032745  0.92710845  0.64603400  1
  C  812  1  0.87775745  0.88543345  0.60857000  1
  C  813  1  0.91642795  0.87212995  0.62112600  1
  C  814  1  0.87775895  0.80817145  0.53130450  1
  C  815  1  0.91643095  0.83428595  0.58327900  1
  C  820  1  0.03269700  0.04815700  0.74152800  1
  C  821  1  0.07858150  0.09258300  0.74079350  1
  C  827  1  0.97810400  0.00732950  0.69351950  1
  C  835  1  0.33587195  0.81789245  0.01835950  1
  C  836  1  0.29293750  0.04508750  0.04145300  1
  C  837  1  0.38260350  0.13375500  0.04145450  1
  C  842  1  0.31320345  0.88543545  0.04401800  1
  C  843  1  0.31741395  0.92711045  0.08312250  1
  C  844  1  0.28734545  0.87213445  0.99204300  1
  C  845  1  0.31320445  0.80817195  0.96675250  1
  C  846  1  0.28734695  0.83428645  0.95419550  1
  C  852  1  0.34297350  0.04816100  0.05180250  1
  C  853  1  0.38813300  0.09258450  0.05034250  1
  C  859  1  0.35015150  0.00733100  0.06556850  1
  C  862  1  0.83587245  0.74171495  0.44217850  1
  C  865  1  0.88032845  0.77327745  0.49219600  1
  C  868  1  0.03270000  0.83015450  0.52352250  1
  C  869  1  0.07858750  0.87677250  0.52498300  1
  C  870  1  0.12864200  0.88013000  0.53386900  1
  C  871  1  0.03997300  0.79046400  0.53386500  1
  C  877  1  0.97810600  0.82356800  0.50975600  1
  C  880  1  0.12556950  0.83009350  0.52351900  1
  C  881  1  0.08114150  0.78493250  0.52497600  1
  C  886  1  0.36489850  0.85986200  0.60791050  1
  C  887  1  0.39979200  0.85564900  0.64537300  1
  C  888  1  0.33878050  0.88571700  0.62046550  1
  C  889  1  0.28829350  0.85986000  0.53130450  1
  C  890  1  0.24662100  0.85565500  0.49220100  1
  C  891  1  0.30159400  0.88571650  0.58328150  1
  C  900  1  0.16639850  0.82291350  0.50975300  1
  C  903  1  0.31722950  0.83719150  0.51835800  1
  C  908  1  0.31741345  0.77327395  0.92928650  1
  C  909  1  0.33587195  0.74171445  0.94218050  1
  C  912  1  0.34297350  0.83015300  0.83379750  1
  C  913  1  0.38813550  0.87677250  0.83453000  1
  C  914  1  0.38260500  0.88013050  0.78783150  1
  C  915  1  0.34291900  0.83009650  0.74086750  1
  C  916  1  0.29629750  0.78493600  0.74013450  1
  C  917  1  0.29293950  0.79046650  0.78683400  1
  C  929  1  0.34950350  0.82291450  0.69286000  1
  C  931  1  0.35015250  0.82356550  0.88180400  1
  C  1061  1  0.24105450  0.33719400  0.94218250  1
  C  1077  1  0.43135350  0.33719450  0.13247900  1
  C  1085  1  0.35517650  0.83719300  0.55630350  1
  C  1086  1  0.43135300  0.83719300  0.63248000  1
  C  1249  1  0.74349350  0.13710000  0.58312250  1
  C  1250  1  0.70181750  0.13288750  0.54401700  1
  C  1251  1  0.68851500  0.10702850  0.49204250  1
  C  1255  1  0.86454300  0.16265700  0.55180100  1
  C  1256  1  0.90896800  0.20781700  0.55034100  1
  C  1260  1  0.82371400  0.16983700  0.56556700  1
  C  1263  1  0.65132650  0.10702750  0.45485400  1
  C  1264  1  0.59031900  0.13710000  0.42994800  1
  C  1265  1  0.62521150  0.13288700  0.46741150  1
  C  1269  1  0.64719650  0.16265750  0.33445800  1
  C  1270  1  0.69381450  0.20781650  0.33518900  1
  C  1274  1  0.64061000  0.16983750  0.38246550  1
  C  1277  1  0.55875950  0.15489800  0.44218150  1
  C  1279  1  0.95013800  0.20228750  0.54145250  1
  C  1280  1  0.86147250  0.11262450  0.54145300  1
  C  1285  1  0.95741300  0.16260000  0.55179800  1
  C  1286  1  0.91152900  0.11598150  0.55034050  1
  C  1292  1  0.15423750  0.17486050  0.55696300  1
  C  1293  1  0.11235350  0.18458400  0.54401650  1
  C  1294  1  0.10978500  0.21948100  0.58312300  1
  C  1295  1  0.15423750  0.25103850  0.63314100  1
  C  1296  1  0.07368300  0.15847100  0.49204100  1
  C  1298  1  0.15423750  0.13625600  0.51835850  1
  C  1299  1  0.11235350  0.10731950  0.46675100  1
  C  1300  1  0.07368100  0.12062200  0.45419400  1
  C  1305  1  0.01200900  0.16918800  0.56556600  1
  C  1309  1  0.65423600  0.17486050  0.05696450  1
  C  1310  1  0.65423850  0.25104150  0.13314200  1
  C  1312  1  0.69717300  0.20228850  0.28849150  1
  C  1313  1  0.60750950  0.11262450  0.28749400  1
  C  1318  1  0.67269700  0.21948200  0.14603700  1
  C  1319  1  0.67690600  0.18458450  0.10857050  1
  C  1320  1  0.67690500  0.10731800  0.03130700  1
  C  1322  1  0.70276250  0.15846700  0.12112850  1
  C  1323  1  0.70276400  0.12062050  0.08328050  1
  C  1329  1  0.64714000  0.16260200  0.24152700  1
  C  1330  1  0.60198000  0.11598400  0.24079400  1
  C  1336  1  0.63996050  0.16919000  0.19352050  1
  C  1338  1  0.67288000  0.65489800  0.05630400  1
  C  1339  1  0.74349250  0.69935200  0.14537550  1
  C  1340  1  0.70181650  0.69678200  0.10791150  1
  C  1341  1  0.68851300  0.73545200  0.12046800  1
  C  1345  1  0.95741100  0.94459400  0.33379400  1
  C  1346  1  0.91152550  0.90016850  0.33453000  1
  C  1347  1  0.86146850  0.85899800  0.28782950  1
  C  1348  1  0.86453900  0.85172250  0.24086750  1
  C  1349  1  0.90896450  0.89760750  0.24013200  1
  C  1350  1  0.95013550  0.94766700  0.28683250  1
  C  1360  1  0.82371200  0.79712750  0.19285850  1
  C  1364  1  0.10978250  0.06564100  0.42928650  1
  C  1369  1  0.01200600  0.98542350  0.38180250  1
  C  1371  1  0.65132900  0.73545300  0.08328000  1
  C  1372  1  0.67269200  0.06564200  0.99220000  1
  C  1374  1  0.59032150  0.69935400  0.99219950  1
  C  1375  1  0.62521200  0.69678250  0.03130650  1
  C  1381  1  0.64713750  0.94459500  0.02352250  1
  C  1382  1  0.60197850  0.90016700  0.02498150  1
  C  1383  1  0.60750950  0.85900000  0.03387150  1
  C  1384  1  0.64719700  0.85172250  0.02352450  1
  C  1385  1  0.69381750  0.89761250  0.02498600  1
  C  1386  1  0.69717350  0.94766850  0.03387200  1
  C  1399  1  0.64061200  0.79713150  0.00975950  1
  C  1402  1  0.63995850  0.98542150  0.00975500  1
  C  1404  1  0.44393235  0.45939285  0.83445650  1
  C  1405  1  0.39950700  0.41350700  0.83519000  1
  C  1406  1  0.63559500  0.65555800  0.01835900  1
  C  1407  1  0.60665700  0.61433500  0.96741400  1
  C  1408  1  0.56498150  0.61176500  0.92995050  1
  C  1409  1  0.61995800  0.57566200  0.95485700  1
  C  1411  1  0.68326450  0.61433700  0.04401750  1
  C  1412  1  0.71816200  0.61176650  0.08312250  1
  C  1413  1  0.65714950  0.57566500  0.99204250  1
  C  1420  1  0.48475985  0.51398735  0.88246450  1
  C  1427  1  0.66127885  0.45939485  0.05180100  1
  C  1428  1  0.61465950  0.41350900  0.05034150  1
  C  1431  1  0.66786485  0.51398885  0.06556500  1
  C  1433  1  0.35833650  0.36345050  0.78849000  1
  C  1434  1  0.44700335  0.45211635  0.78749500  1
  C  1435  1  0.19869150  0.24547250  0.64603400  1
  C  1436  1  0.19612150  0.20379750  0.60857000  1
  C  1437  1  0.23479200  0.19049400  0.62112600  1
  C  1438  1  0.19612300  0.12653550  0.53130450  1
  C  1439  1  0.23479500  0.15265000  0.58327900  1
  C  1444  1  0.35106100  0.36652100  0.74152800  1
  C  1445  1  0.39694535  0.41094685  0.74079350  1
  C  1451  1  0.29646800  0.32569350  0.69351950  1
  C  1459  1  0.65423600  0.13625650  0.01835950  1
  C  1460  1  0.61130150  0.36345150  0.04145300  1
  C  1461  1  0.70096735  0.45211885  0.04145450  1
  C  1466  1  0.63156750  0.20379950  0.04401800  1
  C  1467  1  0.63577800  0.24547450  0.08312250  1
  C  1468  1  0.60570950  0.19049850  0.99204300  1
  C  1469  1  0.63156850  0.12653600  0.96675250  1
  C  1470  1  0.60571100  0.15265050  0.95419550  1
  C  1476  1  0.66133750  0.36652500  0.05180250  1
  C  1477  1  0.70649685  0.41094835  0.05034250  1
  C  1483  1  0.66851550  0.32569500  0.06556850  1
  C  1486  1  0.15423650  0.06007900  0.44217850  1
  C  1489  1  0.19869250  0.09164150  0.49219600  1
  C  1492  1  0.35106400  0.14851850  0.52352250  1
  C  1493  1  0.39695135  0.19513635  0.52498300  1
  C  1494  1  0.44700585  0.19849385  0.53386900  1
  C  1495  1  0.35833700  0.10882800  0.53386500  1
  C  1501  1  0.29647000  0.14193200  0.50975600  1
  C  1504  1  0.44393335  0.14845735  0.52351900  1
  C  1505  1  0.39950550  0.10329650  0.52497600  1
  C  1510  1  0.68326250  0.17822600  0.60791050  1
  C  1511  1  0.71815600  0.17401300  0.64537300  1
  C  1512  1  0.65714450  0.20408100  0.62046550  1
  C  1513  1  0.60665750  0.17822400  0.53130450  1
  C  1514  1  0.56498500  0.17401900  0.49220100  1
  C  1515  1  0.61995800  0.20408050  0.58328150  1
  C  1524  1  0.48476235  0.14127735  0.50975300  1
  C  1527  1  0.63559350  0.15555550  0.51835800  1
  C  1532  1  0.63577750  0.09163800  0.92928650  1
  C  1533  1  0.65423600  0.06007850  0.94218050  1
  C  1536  1  0.66133750  0.14851700  0.83379750  1
  C  1537  1  0.70649935  0.19513635  0.83453000  1
  C  1538  1  0.70096885  0.19849435  0.78783150  1
  C  1539  1  0.66128285  0.14846035  0.74086750  1
  C  1540  1  0.61466150  0.10330000  0.74013450  1
  C  1541  1  0.61130350  0.10883050  0.78683400  1
  C  1553  1  0.66786735  0.14127835  0.69286000  1
  C  1555  1  0.66851650  0.14192950  0.88180400  1
  C  1685  1  0.55941850  0.65555800  0.94218250  1
  C  1701  1  0.74971750  0.65555850  0.13247900  1
  C  1709  1  0.67354050  0.15555700  0.55630350  1
  C  1710  1  0.74971700  0.15555700  0.63248000  1
  H  4  1  0.06977200  0.45127250  0.48091950  1
  H  6  1  0.16466450  0.48345900  0.60155650  1
  H  10  1  0.24880700  0.62486000  0.56208200  1
  H  11  1  0.30953800  0.65220800  0.56222300  1
  H  13  1  0.16567050  0.53963100  0.53576750  1
  H  14  1  0.21143250  0.57155950  0.60163700  1
  H  18  1  0.00669550  0.45127300  0.41784250  1
  H  20  1  0.91824450  0.48345800  0.35513750  1
  H  24  1  0.09911950  0.62485900  0.41239350  1
  H  25  1  0.12632750  0.65220800  0.37901350  1
  H  27  1  0.04020550  0.53963050  0.41030200  1
  H  28  1  0.00626500  0.57155900  0.39647000  1
  H  30  1  0.89436650  0.51817150  0.41451700  1
  H  34  1  0.33175500  0.61585850  0.50671850  1
  H  36  1  0.14031350  0.42172200  0.50381450  1
  H  39  1  0.36020100  0.58209700  0.50381600  1
  H  40  1  0.17166200  0.39086300  0.50671600  1
  H  41  1  0.40784850  0.46591150  0.41718300  1
  H  42  1  0.40785000  0.52965100  0.48092000  1
  H  49  1  0.51750950  0.64197500  0.66080550  1
  H  54  1  0.43359000  0.61809750  0.60155350  1
  H  55  1  0.30997250  0.43722100  0.56207650  1
  H  56  1  0.24938250  0.41001250  0.56221800  1
  H  58  1  0.36679450  0.49613700  0.53576550  1
  H  59  1  0.38690050  0.53007600  0.60163350  1
  H  60  1  0.36679050  0.37000950  0.40964000  1
  H  63  1  0.01751250  0.64198050  0.16080800  1
  H  67  1  0.14547850  0.61585650  0.32044300  1
  H  69  1  0.95424500  0.42172100  0.31774700  1
  H  73  1  0.96478250  0.53008000  0.17951750  1
  H  76  1  0.08506650  0.46591000  0.09440250  1
  H  77  1  0.08506900  0.52965050  0.15814050  1
  H  79  1  0.05288400  0.61810050  0.22084750  1
  H  80  1  0.99670700  0.37000900  0.03955700  1
  H  83  1  0.11462000  0.58209650  0.25823750  1
  H  85  1  0.91148150  0.43722450  0.16359100  1
  H  86  1  0.88413350  0.41001800  0.19697250  1
  H  87  1  0.92048500  0.39086300  0.25553900  1
  H  89  1  0.99670900  0.49613800  0.16568300  1
  H  94  1  0.06976900  0.12783000  0.15748000  1
  H  96  1  0.16466100  0.10208650  0.22018450  1
  H  104  1  0.17165900  0.20392550  0.31978150  1
  H  105  1  0.14031150  0.17547750  0.25757400  1
  H  107  1  0.24880300  0.22570800  0.16292800  1
  H  108  1  0.30953400  0.28629850  0.19631150  1
  H  110  1  0.36019650  0.39536550  0.31708700  1
  H  111  1  0.33174950  0.36401750  0.25487900  1
  H  113  1  0.16566800  0.16888450  0.16502050  1
  H  114  1  0.21143050  0.14877800  0.17885550  1
  H  118  1  0.43358850  0.37101800  0.35447550  1
  H  119  1  0.30997050  0.28687650  0.41173300  1
  H  120  1  0.24938050  0.22614300  0.37835050  1
  H  122  1  0.38689850  0.32424900  0.39580750  1
  H  125  1  0.96477900  0.32424700  0.97368800  1
  H  128  1  0.00669400  0.12783200  0.09440300  1
  H  130  1  0.91824700  0.10209000  0.97377000  1
  H  132  1  0.05288050  0.37101750  0.97376800  1
  H  140  1  0.92048250  0.20392450  0.06860600  1
  H  141  1  0.95424600  0.17548050  0.07150850  1
  H  143  1  0.91147750  0.28687200  0.01324150  1
  H  144  1  0.88413100  0.22614050  0.01310050  1
  H  146  1  0.09912250  0.22571350  0.01325000  1
  H  147  1  0.12632900  0.28630250  0.01310850  1
  H  149  1  0.11461750  0.39536800  0.07150850  1
  H  150  1  0.14548000  0.36402350  0.06861150  1
  H  152  1  0.04020650  0.16888850  0.03956100  1
  H  153  1  0.00627000  0.14878300  0.97369200  1
  H  155  1  0.87035600  0.93557100  0.85513900  1
  H  166  1  0.02832850  0.90983150  0.98091900  1
  H  167  1  0.96524650  0.90982750  0.91784300  1
  H  170  1  0.78621150  0.81195100  0.91239350  1
  H  171  1  0.72547900  0.75135950  0.87900950  1
  H  173  1  0.86934600  0.86877200  0.91030200  1
  H  174  1  0.82358550  0.88887950  0.89647000  1
  H  175  1  0.93589950  0.81195450  0.06207900  1
  H  176  1  0.99481500  0.86877450  0.03576450  1
  H  178  1  0.11677650  0.93557100  0.10155350  1
  H  182  1  0.90869350  0.75136600  0.06222050  1
  H  184  1  0.02875350  0.88888300  0.10163250  1
  H  192  1  0.62717150  0.50801550  0.59440000  1
  H  193  1  0.62717250  0.57175100  0.65813750  1
  H  195  1  0.60142700  0.66664200  0.72084600  1
  H  198  1  0.67481850  0.64229250  0.75823500  1
  H  200  1  0.72504800  0.75078800  0.66359100  1
  H  201  1  0.78563800  0.81151900  0.69697400  1
  H  202  1  0.86335800  0.83373500  0.75554200  1
  H  204  1  0.66822700  0.66765250  0.66568250  1
  H  205  1  0.64811750  0.71341250  0.67951500  1
  H  206  1  0.66823050  0.54152900  0.53955850  1
  H  208  1  0.70326450  0.67364000  0.82044050  1
  H  210  1  0.89470750  0.86218250  0.81775100  1
  H  215  1  0.88954150  0.67364400  0.00671750  1
  H  217  1  0.08077500  0.86218000  0.00381600  1
  H  223  1  0.94995200  0.50801600  0.91718300  1
  H  224  1  0.94995150  0.57175200  0.98092050  1
  H  226  1  0.98213950  0.66664600  0.10155850  1
  H  227  1  0.03831100  0.54152650  0.90964050  1
  H  230  1  0.92040150  0.64229750  0.00381800  1
  H  232  1  0.12353900  0.75078800  0.06208200  1
  H  233  1  0.15088800  0.81151950  0.06222150  1
  H  234  1  0.11453450  0.83373400  0.00671750  1
  H  236  1  0.03831150  0.66765400  0.03576850  1
  H  237  1  0.07023950  0.71341550  0.10163700  1
  H  239  1  0.51750850  0.39568650  0.41451400  1
  H  240  1  0.87035850  0.55420200  0.47376750  1
  H  243  1  0.60142900  0.41956600  0.47376500  1
  H  248  1  0.86336050  0.64679650  0.56860900  1
  H  250  1  0.72505350  0.60044350  0.51324900  1
  H  251  1  0.78564250  0.62765100  0.51310650  1
  H  252  1  0.67481550  0.45556050  0.57150000  1
  H  254  1  0.64812200  0.50759000  0.47368800  1
  H  259  1  0.89470800  0.61593600  0.57150900  1
  H  261  1  0.70326150  0.42179950  0.56859800  1
  H  268  1  0.96525100  0.58638800  0.59440200  1
  H  269  1  0.02832800  0.58638900  0.65748000  1
  H  271  1  0.93590400  0.41280250  0.66293150  1
  H  272  1  0.99481550  0.49802650  0.66502300  1
  H  274  1  0.78621000  0.41279700  0.51323500  1
  H  275  1  0.72548000  0.38544900  0.51309300  1
  H  277  1  0.86934850  0.49802850  0.53955400  1
  H  278  1  0.82358800  0.46609950  0.47368250  1
  H  281  1  0.01750950  0.39568450  0.91451600  1
  H  283  1  0.11677800  0.55420100  0.72018500  1
  H  287  1  0.98213800  0.41956500  0.85447700  1
  H  295  1  0.11453800  0.64680000  0.81978300  1
  H  296  1  0.08077650  0.61593800  0.75757550  1
  H  298  1  0.12353850  0.60044050  0.91173400  1
  H  299  1  0.15088800  0.62764750  0.87835250  1
  H  301  1  0.90869500  0.38545300  0.69631300  1
  H  303  1  0.92040200  0.45556750  0.81708750  1
  H  304  1  0.88954300  0.42180850  0.75488150  1
  H  306  1  0.02875450  0.46609900  0.67885550  1
  H  308  1  0.07023900  0.50758500  0.89580900  1
  H  435  1  0.89502500  0.01883000  0.91451700  1
  H  454  1  0.14065550  0.01883050  0.16014500  1
  H  463  1  0.14065500  0.51882900  0.66014600  1
  H  628  1  0.38813600  0.76963650  0.48091950  1
  H  630  1  0.48302850  0.80182300  0.60155650  1
  H  634  1  0.56717100  0.94322400  0.56208200  1
  H  635  1  0.62790195  0.97057195  0.56222300  1
  H  637  1  0.48403450  0.85799500  0.53576750  1
  H  638  1  0.52979650  0.88992350  0.60163700  1
  H  642  1  0.32505950  0.76963700  0.41784250  1
  H  644  1  0.23660850  0.80182200  0.35513750  1
  H  648  1  0.41748350  0.94322300  0.41239350  1
  H  649  1  0.44469145  0.97057195  0.37901350  1
  H  651  1  0.35856950  0.85799450  0.41030200  1
  H  652  1  0.32462900  0.88992300  0.39647000  1
  H  654  1  0.21273050  0.83653550  0.41451700  1
  H  658  1  0.65011895  0.93422245  0.50671850  1
  H  660  1  0.45867750  0.74008600  0.50381450  1
  H  663  1  0.67856495  0.90046095  0.50381600  1
  H  664  1  0.49002600  0.70922700  0.50671600  1
  H  665  1  0.72621245  0.78427545  0.41718300  1
  H  666  1  0.72621395  0.84801495  0.48092000  1
  H  673  1  0.83587345  0.96033895  0.66080550  1
  H  678  1  0.75195395  0.93646145  0.60155350  1
  H  679  1  0.62833650  0.75558500  0.56207650  1
  H  680  1  0.56774650  0.72837650  0.56221800  1
  H  682  1  0.68515850  0.81450100  0.53576550  1
  H  683  1  0.70526450  0.84844000  0.60163350  1
  H  684  1  0.68515450  0.68837350  0.40964000  1
  H  687  1  0.33587645  0.96034445  0.16080800  1
  H  691  1  0.46384245  0.93422045  0.32044300  1
  H  693  1  0.27260900  0.74008500  0.31774700  1
  H  697  1  0.28314650  0.84844400  0.17951750  1
  H  700  1  0.40343045  0.78427395  0.09440250  1
  H  701  1  0.40343295  0.84801445  0.15814050  1
  H  703  1  0.37124795  0.93646445  0.22084750  1
  H  704  1  0.31507100  0.68837300  0.03955700  1
  H  707  1  0.43298395  0.90046045  0.25823750  1
  H  709  1  0.22984550  0.75558850  0.16359100  1
  H  710  1  0.20249750  0.72838200  0.19697250  1
  H  711  1  0.23884900  0.70922700  0.25553900  1
  H  713  1  0.31507300  0.81450200  0.16568300  1
  H  718  1  0.38813300  0.44619400  0.15748000  1
  H  720  1  0.48302500  0.42045050  0.22018450  1
  H  728  1  0.49002300  0.52228950  0.31978150  1
  H  729  1  0.45867550  0.49384150  0.25757400  1
  H  731  1  0.56716700  0.54407200  0.16292800  1
  H  732  1  0.62789795  0.60466245  0.19631150  1
  H  734  1  0.67856045  0.71372945  0.31708700  1
  H  735  1  0.65011345  0.68238145  0.25487900  1
  H  737  1  0.48403200  0.48724850  0.16502050  1
  H  738  1  0.52979450  0.46714200  0.17885550  1
  H  742  1  0.75195245  0.68938195  0.35447550  1
  H  743  1  0.62833450  0.60524050  0.41173300  1
  H  744  1  0.56774450  0.54450700  0.37835050  1
  H  746  1  0.70526250  0.64261300  0.39580750  1
  H  749  1  0.28314300  0.64261100  0.97368800  1
  H  752  1  0.32505800  0.44619600  0.09440300  1
  H  754  1  0.23661100  0.42045400  0.97377000  1
  H  756  1  0.37124445  0.68938145  0.97376800  1
  H  764  1  0.23884650  0.52228850  0.06860600  1
  H  765  1  0.27261000  0.49384450  0.07150850  1
  H  767  1  0.22984150  0.60523600  0.01324150  1
  H  768  1  0.20249500  0.54450450  0.01310050  1
  H  770  1  0.41748650  0.54407750  0.01325000  1
  H  771  1  0.44469295  0.60466645  0.01310850  1
  H  773  1  0.43298145  0.71373195  0.07150850  1
  H  774  1  0.46384395  0.68238745  0.06861150  1
  H  776  1  0.35857050  0.48725250  0.03956100  1
  H  777  1  0.32463400  0.46714700  0.97369200  1
  H  779  1  0.18872000  0.25393500  0.85513900  1
  H  790  1  0.34669250  0.22819550  0.98091900  1
  H  791  1  0.28361050  0.22819150  0.91784300  1
  H  794  1  0.10457550  0.13031500  0.91239350  1
  H  795  1  0.04384300  0.06972350  0.87900950  1
  H  797  1  0.18771000  0.18713600  0.91030200  1
  H  798  1  0.14194950  0.20724350  0.89647000  1
  H  799  1  0.25426350  0.13031850  0.06207900  1
  H  800  1  0.31317900  0.18713850  0.03576450  1
  H  802  1  0.43514050  0.25393500  0.10155350  1
  H  806  1  0.22705750  0.06973000  0.06222050  1
  H  808  1  0.34711750  0.20724700  0.10163250  1
  H  816  1  0.94553545  0.82637945  0.59440000  1
  H  817  1  0.94553645  0.89011495  0.65813750  1
  H  819  1  0.91979095  0.98500595  0.72084600  1
  H  822  1  0.99318245  0.96065645  0.75823500  1
  H  824  1  0.04341200  0.06915200  0.66359100  1
  H  825  1  0.10400200  0.12988300  0.69697400  1
  H  826  1  0.18172200  0.15209900  0.75554200  1
  H  828  1  0.98659100  0.98601650  0.66568250  1
  H  829  1  0.96648150  0.03177650  0.67951500  1
  H  830  1  0.98659450  0.85989300  0.53955850  1
  H  832  1  0.02162845  0.99200395  0.82044050  1
  H  834  1  0.21307150  0.18054650  0.81775100  1
  H  839  1  0.20790545  0.99200795  0.00671750  1
  H  841  1  0.39913900  0.18054400  0.00381600  1
  H  847  1  0.26831595  0.82637995  0.91718300  1
  H  848  1  0.26831545  0.89011595  0.98092050  1
  H  850  1  0.30050345  0.98500995  0.10155850  1
  H  851  1  0.35667500  0.85989050  0.90964050  1
  H  854  1  0.23876545  0.96066145  0.00381800  1
  H  856  1  0.44190300  0.06915200  0.06208200  1
  H  857  1  0.46925200  0.12988350  0.06222150  1
  H  858  1  0.43289850  0.15209800  0.00671750  1
  H  860  1  0.35667550  0.98601800  0.03576850  1
  H  861  1  0.38860350  0.03177950  0.10163700  1
  H  863  1  0.83587245  0.71405045  0.41451400  1
  H  864  1  0.18872250  0.87256600  0.47376750  1
  H  867  1  0.91979295  0.73792995  0.47376500  1
  H  872  1  0.18172450  0.96516050  0.56860900  1
  H  874  1  0.04341750  0.91880750  0.51324900  1
  H  875  1  0.10400650  0.94601500  0.51310650  1
  H  876  1  0.99317945  0.77392445  0.57150000  1
  H  878  1  0.96648600  0.82595400  0.47368800  1
  H  883  1  0.21307200  0.93430000  0.57150900  1
  H  885  1  0.02162545  0.74016345  0.56859800  1
  H  892  1  0.28361500  0.90475200  0.59440200  1
  H  893  1  0.34669200  0.90475300  0.65748000  1
  H  895  1  0.25426800  0.73116650  0.66293150  1
  H  896  1  0.31317950  0.81639050  0.66502300  1
  H  898  1  0.10457400  0.73116100  0.51323500  1
  H  899  1  0.04384400  0.70381300  0.51309300  1
  H  901  1  0.18771250  0.81639250  0.53955400  1
  H  902  1  0.14195200  0.78446350  0.47368250  1
  H  905  1  0.33587345  0.71404845  0.91451600  1
  H  907  1  0.43514200  0.87256500  0.72018500  1
  H  911  1  0.30050195  0.73792895  0.85447700  1
  H  919  1  0.43290200  0.96516400  0.81978300  1
  H  920  1  0.39914050  0.93430200  0.75757550  1
  H  922  1  0.44190250  0.91880450  0.91173400  1
  H  923  1  0.46925200  0.94601150  0.87835250  1
  H  925  1  0.22705900  0.70381700  0.69631300  1
  H  927  1  0.23876595  0.77393145  0.81708750  1
  H  928  1  0.20790695  0.74017245  0.75488150  1
  H  930  1  0.34711850  0.78446300  0.67885550  1
  H  932  1  0.38860300  0.82594900  0.89580900  1
  H  1059  1  0.21338900  0.33719400  0.91451700  1
  H  1078  1  0.45901950  0.33719450  0.16014500  1
  H  1087  1  0.45901900  0.83719300  0.66014600  1
  H  1252  1  0.70650000  0.08800050  0.48091950  1
  H  1254  1  0.80139250  0.12018700  0.60155650  1
  H  1258  1  0.88553500  0.26158800  0.56208200  1
  H  1259  1  0.94626600  0.28893600  0.56222300  1
  H  1261  1  0.80239850  0.17635900  0.53576750  1
  H  1262  1  0.84816050  0.20828750  0.60163700  1
  H  1266  1  0.64342350  0.08800100  0.41784250  1
  H  1268  1  0.55497250  0.12018600  0.35513750  1
  H  1272  1  0.73584750  0.26158700  0.41239350  1
  H  1273  1  0.76305550  0.28893600  0.37901350  1
  H  1275  1  0.67693350  0.17635850  0.41030200  1
  H  1276  1  0.64299300  0.20828700  0.39647000  1
  H  1278  1  0.53109450  0.15489950  0.41451700  1
  H  1282  1  0.96848300  0.25258650  0.50671850  1
  H  1284  1  0.77704150  0.05845000  0.50381450  1
  H  1287  1  0.99692900  0.21882500  0.50381600  1
  H  1288  1  0.80839000  0.02759100  0.50671600  1
  H  1289  1  0.04457650  0.10263950  0.41718300  1
  H  1290  1  0.04457800  0.16637900  0.48092000  1
  H  1297  1  0.15423750  0.27870300  0.66080550  1
  H  1302  1  0.07031800  0.25482550  0.60155350  1
  H  1303  1  0.94670050  0.07394900  0.56207650  1
  H  1304  1  0.88611050  0.04674050  0.56221800  1
  H  1306  1  0.00352250  0.13286500  0.53576550  1
  H  1307  1  0.02362850  0.16680400  0.60163350  1
  H  1308  1  0.00351850  0.00673750  0.40964000  1
  H  1311  1  0.65424050  0.27870850  0.16080800  1
  H  1315  1  0.78220650  0.25258450  0.32044300  1
  H  1317  1  0.59097300  0.05844900  0.31774700  1
  H  1321  1  0.60151050  0.16680800  0.17951750  1
  H  1324  1  0.72179450  0.10263800  0.09440250  1
  H  1325  1  0.72179700  0.16637850  0.15814050  1
  H  1327  1  0.68961200  0.25482850  0.22084750  1
  H  1328  1  0.63343500  0.00673700  0.03955700  1
  H  1331  1  0.75134800  0.21882450  0.25823750  1
  H  1333  1  0.54820950  0.07395250  0.16359100  1
  H  1334  1  0.52086150  0.04674600  0.19697250  1
  H  1335  1  0.55721300  0.02759100  0.25553900  1
  H  1337  1  0.63343700  0.13286600  0.16568300  1
  H  1342  1  0.70649700  0.76455800  0.15748000  1
  H  1344  1  0.80138900  0.73881450  0.22018450  1
  H  1352  1  0.80838700  0.84065350  0.31978150  1
  H  1353  1  0.77703950  0.81220550  0.25757400  1
  H  1355  1  0.88553100  0.86243600  0.16292800  1
  H  1356  1  0.94626200  0.92302650  0.19631150  1
  H  1358  1  0.99692450  0.03209350  0.31708700  1
  H  1359  1  0.96847750  0.00074550  0.25487900  1
  H  1361  1  0.80239600  0.80561250  0.16502050  1
  H  1362  1  0.84815850  0.78550600  0.17885550  1
  H  1366  1  0.07031650  0.00774600  0.35447550  1
  H  1367  1  0.94669850  0.92360450  0.41173300  1
  H  1368  1  0.88610850  0.86287100  0.37835050  1
  H  1370  1  0.02362650  0.96097700  0.39580750  1
  H  1373  1  0.60150700  0.96097500  0.97368800  1
  H  1376  1  0.64342200  0.76456000  0.09440300  1
  H  1378  1  0.55497500  0.73881800  0.97377000  1
  H  1380  1  0.68960850  0.00774550  0.97376800  1
  H  1388  1  0.55721050  0.84065250  0.06860600  1
  H  1389  1  0.59097400  0.81220850  0.07150850  1
  H  1391  1  0.54820550  0.92360000  0.01324150  1
  H  1392  1  0.52085900  0.86286850  0.01310050  1
  H  1394  1  0.73585050  0.86244150  0.01325000  1
  H  1395  1  0.76305700  0.92303050  0.01310850  1
  H  1397  1  0.75134550  0.03209600  0.07150850  1
  H  1398  1  0.78220800  0.00075150  0.06861150  1
  H  1400  1  0.67693450  0.80561650  0.03956100  1
  H  1401  1  0.64299800  0.78551100  0.97369200  1
  H  1403  1  0.50708400  0.57229900  0.85513900  1
  H  1414  1  0.66505650  0.54655950  0.98091900  1
  H  1415  1  0.60197450  0.54655550  0.91784300  1
  H  1418  1  0.42293950  0.44867900  0.91239350  1
  H  1419  1  0.36220700  0.38808750  0.87900950  1
  H  1421  1  0.50607385  0.50549985  0.91030200  1
  H  1422  1  0.46031335  0.52560735  0.89647000  1
  H  1423  1  0.57262750  0.44868250  0.06207900  1
  H  1424  1  0.63154285  0.50550235  0.03576450  1
  H  1426  1  0.75350450  0.57229900  0.10155350  1
  H  1430  1  0.54542150  0.38809400  0.06222050  1
  H  1432  1  0.66548135  0.52561085  0.10163250  1
  H  1440  1  0.26389950  0.14474350  0.59440000  1
  H  1441  1  0.26390050  0.20847900  0.65813750  1
  H  1443  1  0.23815500  0.30337000  0.72084600  1
  H  1446  1  0.31154650  0.27902050  0.75823500  1
  H  1448  1  0.36177585  0.38751585  0.66359100  1
  H  1449  1  0.42236585  0.44824685  0.69697400  1
  H  1450  1  0.50008600  0.47046300  0.75554200  1
  H  1452  1  0.30495500  0.30438050  0.66568250  1
  H  1453  1  0.28484550  0.35014050  0.67951500  1
  H  1454  1  0.30495850  0.17825700  0.53955850  1
  H  1456  1  0.33999250  0.31036800  0.82044050  1
  H  1458  1  0.53143550  0.49891050  0.81775100  1
  H  1463  1  0.52626950  0.31037200  0.00671750  1
  H  1465  1  0.71750300  0.49890800  0.00381600  1
  H  1471  1  0.58668000  0.14474400  0.91718300  1
  H  1472  1  0.58667950  0.20848000  0.98092050  1
  H  1474  1  0.61886750  0.30337400  0.10155850  1
  H  1475  1  0.67503900  0.17825450  0.90964050  1
  H  1478  1  0.55712950  0.27902550  0.00381800  1
  H  1480  1  0.76026685  0.38751585  0.06208200  1
  H  1481  1  0.78761585  0.44824735  0.06222150  1
  H  1482  1  0.75126250  0.47046200  0.00671750  1
  H  1484  1  0.67503950  0.30438200  0.03576850  1
  H  1485  1  0.70696750  0.35014350  0.10163700  1
  H  1487  1  0.15423650  0.03241450  0.41451400  1
  H  1488  1  0.50708650  0.19093000  0.47376750  1
  H  1491  1  0.23815700  0.05629400  0.47376500  1
  H  1496  1  0.50008850  0.28352450  0.56860900  1
  H  1498  1  0.36178135  0.23717135  0.51324900  1
  H  1499  1  0.42237035  0.26437885  0.51310650  1
  H  1500  1  0.31154350  0.09228850  0.57150000  1
  H  1502  1  0.28485000  0.14431800  0.47368800  1
  H  1507  1  0.53143600  0.25266400  0.57150900  1
  H  1509  1  0.33998950  0.05852750  0.56859800  1
  H  1516  1  0.60197900  0.22311600  0.59440200  1
  H  1517  1  0.66505600  0.22311700  0.65748000  1
  H  1519  1  0.57263200  0.04953050  0.66293150  1
  H  1520  1  0.63154335  0.13475435  0.66502300  1
  H  1522  1  0.42293800  0.04952500  0.51323500  1
  H  1523  1  0.36220800  0.02217700  0.51309300  1
  H  1525  1  0.50607635  0.13475635  0.53955400  1
  H  1526  1  0.46031585  0.10282735  0.47368250  1
  H  1529  1  0.65423750  0.03241250  0.91451600  1
  H  1531  1  0.75350600  0.19092900  0.72018500  1
  H  1535  1  0.61886600  0.05629300  0.85447700  1
  H  1543  1  0.75126600  0.28352800  0.81978300  1
  H  1544  1  0.71750450  0.25266600  0.75757550  1
  H  1546  1  0.76026635  0.23716835  0.91173400  1
  H  1547  1  0.78761585  0.26437535  0.87835250  1
  H  1549  1  0.54542300  0.02218100  0.69631300  1
  H  1551  1  0.55713000  0.09229550  0.81708750  1
  H  1552  1  0.52627100  0.05853650  0.75488150  1
  H  1554  1  0.66548235  0.10282685  0.67885550  1
  H  1556  1  0.70696700  0.14431300  0.89580900  1
  H  1683  1  0.53175300  0.65555800  0.91451700  1
  H  1702  1  0.77738350  0.65555850  0.16014500  1
  H  1711  1  0.77738300  0.15555700  0.66014600  1
  N  5  1  0.14434200  0.48890950  0.57301450  1
  N  9  1  0.27603150  0.61913550  0.55681000  1
  N  19  1  0.95223800  0.48890900  0.38091100  1
  N  23  1  0.09866650  0.61913550  0.37944600  1
  N  33  1  0.34220700  0.59482250  0.52007350  1
  N  35  1  0.17456500  0.42525500  0.52007300  1
  N  43  1  0.27747700  0.43767450  0.55680650  1
  N  53  1  0.42537000  0.58410400  0.57301100  1
  N  66  1  0.11108650  0.59482250  0.28895500  1
  N  68  1  0.94152250  0.42525600  0.28703050  1
  N  78  1  0.04743150  0.58410550  0.19507500  1
  N  84  1  0.91720550  0.43767700  0.19653850  1
  N  95  1  0.14434050  0.11030950  0.19441400  1
  N  103  1  0.17456350  0.19347250  0.28829300  1
  N  106  1  0.27602650  0.25820350  0.19587800  1
  N  109  1  0.34220500  0.36111550  0.28636850  1
  N  115  1  0.27747600  0.25965250  0.37878550  1
  N  117  1  0.42536850  0.39133900  0.38024850  1
  N  129  1  0.95224050  0.11031100  0.00231250  1
  N  131  1  0.04742750  0.39133800  0.00230850  1
  N  139  1  0.94151900  0.19347200  0.05524900  1
  N  142  1  0.91720250  0.25964900  0.01851350  1
  N  145  1  0.09866800  0.25820550  0.01851950  1
  N  148  1  0.11108550  0.36111800  0.05525150  1
  N  168  1  0.89067650  0.92734900  0.88091250  1
  N  169  1  0.75898700  0.77945450  0.87944450  1
  N  177  1  0.08278400  0.92735150  0.07301250  1
  N  181  1  0.93635400  0.77946000  0.05680700  1
  N  194  1  0.60964800  0.64632050  0.69507350  1
  N  199  1  0.75754300  0.77801000  0.69654000  1
  N  207  1  0.69281200  0.67654400  0.78895400  1
  N  209  1  0.86045450  0.84418800  0.78703250  1
  N  214  1  0.92393400  0.67654800  0.02007600  1
  N  216  1  0.09349700  0.84418550  0.02007250  1
  N  225  1  0.98759000  0.64632400  0.07301600  1
  N  231  1  0.11781350  0.77801150  0.05680900  1
  N  242  1  0.60965000  0.45355900  0.50230700  1
  N  249  1  0.75754550  0.59998800  0.51851750  1
  N  258  1  0.86045750  0.61240600  0.55525350  1
  N  260  1  0.69281050  0.44283700  0.55524350  1
  N  270  1  0.89068150  0.54875150  0.50231000  1
  N  273  1  0.75898600  0.41852250  0.51850750  1
  N  282  1  0.08278350  0.54874850  0.69441200  1
  N  286  1  0.98759050  0.45355950  0.88025100  1
  N  294  1  0.09350350  0.61240700  0.78829350  1
  N  297  1  0.11781550  0.59998900  0.87878550  1
  N  300  1  0.93635600  0.41852700  0.69587900  1
  N  302  1  0.92393500  0.44284300  0.78637100  1
  N  629  1  0.46270600  0.80727350  0.57301450  1
  N  633  1  0.59439550  0.93749950  0.55681000  1
  N  643  1  0.27060200  0.80727300  0.38091100  1
  N  647  1  0.41703050  0.93749950  0.37944600  1
  N  657  1  0.66057095  0.91318645  0.52007350  1
  N  659  1  0.49292900  0.74361900  0.52007300  1
  N  667  1  0.59584100  0.75603850  0.55680650  1
  N  677  1  0.74373395  0.90246795  0.57301100  1
  N  690  1  0.42945045  0.91318645  0.28895500  1
  N  692  1  0.25988650  0.74362000  0.28703050  1
  N  702  1  0.36579545  0.90246945  0.19507500  1
  N  708  1  0.23556950  0.75604100  0.19653850  1
  N  719  1  0.46270450  0.42867350  0.19441400  1
  N  727  1  0.49292750  0.51183650  0.28829300  1
  N  730  1  0.59439050  0.57656750  0.19587800  1
  N  733  1  0.66056895  0.67947945  0.28636850  1
  N  739  1  0.59584000  0.57801650  0.37878550  1
  N  741  1  0.74373245  0.70970295  0.38024850  1
  N  753  1  0.27060450  0.42867500  0.00231250  1
  N  755  1  0.36579145  0.70970195  0.00230850  1
  N  763  1  0.25988300  0.51183600  0.05524900  1
  N  766  1  0.23556650  0.57801300  0.01851350  1
  N  769  1  0.41703200  0.57656950  0.01851950  1
  N  772  1  0.42944945  0.67948195  0.05525150  1
  N  792  1  0.20904050  0.24571300  0.88091250  1
  N  793  1  0.07735100  0.09781850  0.87944450  1
  N  801  1  0.40114800  0.24571550  0.07301250  1
  N  805  1  0.25471800  0.09782400  0.05680700  1
  N  818  1  0.92801195  0.96468445  0.69507350  1
  N  823  1  0.07590700  0.09637400  0.69654000  1
  N  831  1  0.01117600  0.99490800  0.78895400  1
  N  833  1  0.17881850  0.16255200  0.78703250  1
  N  838  1  0.24229800  0.99491200  0.02007600  1
  N  840  1  0.41186100  0.16254950  0.02007250  1
  N  849  1  0.30595395  0.96468795  0.07301600  1
  N  855  1  0.43617750  0.09637550  0.05680900  1
  N  866  1  0.92801395  0.77192295  0.50230700  1
  N  873  1  0.07590950  0.91835200  0.51851750  1
  N  882  1  0.17882150  0.93077000  0.55525350  1
  N  884  1  0.01117450  0.76120100  0.55524350  1
  N  894  1  0.20904550  0.86711550  0.50231000  1
  N  897  1  0.07735000  0.73688650  0.51850750  1
  N  906  1  0.40114750  0.86711250  0.69441200  1
  N  910  1  0.30595445  0.77192345  0.88025100  1
  N  918  1  0.41186750  0.93077100  0.78829350  1
  N  921  1  0.43617950  0.91835300  0.87878550  1
  N  924  1  0.25472000  0.73689100  0.69587900  1
  N  926  1  0.24229900  0.76120700  0.78637100  1
  N  1253  1  0.78107000  0.12563750  0.57301450  1
  N  1257  1  0.91275950  0.25586350  0.55681000  1
  N  1267  1  0.58896600  0.12563700  0.38091100  1
  N  1271  1  0.73539450  0.25586350  0.37944600  1
  N  1281  1  0.97893500  0.23155050  0.52007350  1
  N  1283  1  0.81129300  0.06198300  0.52007300  1
  N  1291  1  0.91420500  0.07440250  0.55680650  1
  N  1301  1  0.06209800  0.22083200  0.57301100  1
  N  1314  1  0.74781450  0.23155050  0.28895500  1
  N  1316  1  0.57825050  0.06198400  0.28703050  1
  N  1326  1  0.68415950  0.22083350  0.19507500  1
  N  1332  1  0.55393350  0.07440500  0.19653850  1
  N  1343  1  0.78106850  0.74703750  0.19441400  1
  N  1351  1  0.81129150  0.83020050  0.28829300  1
  N  1354  1  0.91275450  0.89493150  0.19587800  1
  N  1357  1  0.97893300  0.99784350  0.28636850  1
  N  1363  1  0.91420400  0.89638050  0.37878550  1
  N  1365  1  0.06209650  0.02806700  0.38024850  1
  N  1377  1  0.58896850  0.74703900  0.00231250  1
  N  1379  1  0.68415550  0.02806600  0.00230850  1
  N  1387  1  0.57824700  0.83020000  0.05524900  1
  N  1390  1  0.55393050  0.89637700  0.01851350  1
  N  1393  1  0.73539600  0.89493350  0.01851950  1
  N  1396  1  0.74781350  0.99784600  0.05525150  1
  N  1416  1  0.52740450  0.56407700  0.88091250  1
  N  1417  1  0.39571500  0.41618250  0.87944450  1
  N  1425  1  0.71951200  0.56407950  0.07301250  1
  N  1429  1  0.57308200  0.41618800  0.05680700  1
  N  1442  1  0.24637600  0.28304850  0.69507350  1
  N  1447  1  0.39427085  0.41473785  0.69654000  1
  N  1455  1  0.32954000  0.31327200  0.78895400  1
  N  1457  1  0.49718235  0.48091585  0.78703250  1
  N  1462  1  0.56066200  0.31327600  0.02007600  1
  N  1464  1  0.73022485  0.48091335  0.02007250  1
  N  1473  1  0.62431800  0.28305200  0.07301600  1
  N  1479  1  0.75454135  0.41473935  0.05680900  1
  N  1490  1  0.24637800  0.09028700  0.50230700  1
  N  1497  1  0.39427335  0.23671585  0.51851750  1
  N  1506  1  0.49718535  0.24913385  0.55525350  1
  N  1508  1  0.32953850  0.07956500  0.55524350  1
  N  1518  1  0.52740950  0.18547950  0.50231000  1
  N  1521  1  0.39571400  0.05525050  0.51850750  1
  N  1530  1  0.71951150  0.18547650  0.69441200  1
  N  1534  1  0.62431850  0.09028750  0.88025100  1
  N  1542  1  0.73023135  0.24913485  0.78829350  1
  N  1545  1  0.75454335  0.23671685  0.87878550  1
  N  1548  1  0.57308400  0.05525500  0.69587900  1
  N  1550  1  0.56066300  0.07957100  0.78637100  1
