# generated using pymatgen
data_H28C45N8
_symmetry_space_group_name_H-M   'P 1'
_cell_length_a   56.73740000
_cell_length_b   81.98015000
_cell_length_c   81.98020000
_cell_angle_alpha   120.00006053
_cell_angle_beta   90.00000000
_cell_angle_gamma   90.00000000
_symmetry_Int_Tables_number   1
_chemical_formula_structural   H28C45N8
_chemical_formula_sum   'H672 C1080 N192'
_cell_volume   330230.72593257
_cell_formula_units_Z   24
loop_
 _symmetry_equiv_pos_site_id
 _symmetry_equiv_pos_as_xyz
  1  'x, y, z'
loop_
 _atom_site_type_symbol
 _atom_site_label
 _atom_site_symmetry_multiplicity
 _atom_site_fract_x
 _atom_site_fract_y
 _atom_site_fract_z
 _atom_site_occupancy
  H  26  1  0.91552800  0.62481000  0.04853400  1
  H  27  1  0.89320900  0.63304400  0.07587200  1
  H  28  1  0.91468200  0.68132700  0.06115600  1
  H  29  1  0.89212800  0.68973500  0.08887600  1
  H  30  1  0.84807100  0.69767500  0.10767300  1
  H  31  1  0.80847700  0.69716400  0.09827600  1
  H  32  1  0.80882400  0.63779600  0.07002500  1
  H  33  1  0.84840600  0.63826700  0.07965000  1
  H  34  1  0.84320100  0.65168800  0.11692500  1
  H  35  1  0.84816300  0.62800000  0.12515000  1
  H  36  1  0.92176600  0.62996000  0.11922500  1
  H  37  1  0.91681400  0.65351300  0.11067300  1
  H  38  1  0.91808900  0.68986000  0.11538200  1
  H  39  1  0.85057600  0.68816800  0.13603800  1
  H  40  1  0.85889700  0.71653000  0.16445100  1
  H  45  1  0.92610900  0.71848600  0.14367400  1
  H  71  1  0.91556300  0.43603300  0.37285000  1
  H  72  1  0.89324200  0.45512800  0.36460900  1
  H  73  1  0.91469600  0.39212100  0.31634300  1
  H  74  1  0.89214200  0.41142800  0.30792900  1
  H  75  1  0.84809100  0.42230200  0.29998300  1
  H  76  1  0.80850500  0.41340000  0.30049500  1
  H  77  1  0.80887200  0.44448700  0.35986500  1
  H  78  1  0.84843700  0.45365700  0.35939500  1
  H  79  1  0.84321700  0.47753000  0.34598100  1
  H  80  1  0.84817400  0.50944400  0.36967100  1
  H  81  1  0.92177800  0.50156400  0.36769900  1
  H  82  1  0.91683100  0.46946100  0.34414700  1
  H  83  1  0.91810100  0.43780700  0.30778500  1
  H  84  1  0.85059700  0.46018400  0.30950900  1
  H  85  1  0.85890200  0.46023000  0.28114200  1
  H  90  1  0.92610400  0.43747000  0.27915500  1
  H  116  1  0.91548500  0.94913500  0.56164600  1
  H  117  1  0.89317800  0.92179000  0.54254700  1
  H  118  1  0.91470700  0.93649300  0.60552800  1
  H  119  1  0.89216200  0.90877000  0.58621800  1
  H  120  1  0.84808900  0.89001900  0.57539800  1
  H  121  1  0.80851100  0.89944800  0.58431200  1
  H  122  1  0.80884600  0.92764700  0.55314200  1
  H  123  1  0.84840400  0.91799300  0.54396300  1
  H  124  1  0.84321000  0.88069800  0.52012600  1
  H  125  1  0.84816500  0.87247400  0.48821200  1
  H  126  1  0.92176500  0.87844200  0.49610200  1
  H  127  1  0.91681900  0.88699200  0.52820600  1
  H  128  1  0.91810500  0.88225100  0.55980600  1
  H  129  1  0.85056100  0.86162500  0.53752800  1
  H  130  1  0.85888700  0.83320700  0.53746300  1
  H  135  1  0.92613500  0.85395400  0.56012400  1
  H  161  1  0.41555800  0.38182400  0.94012700  1
  H  162  1  0.39323900  0.37358200  0.91279000  1
  H  163  1  0.41469100  0.32531700  0.92753500  1
  H  164  1  0.39213600  0.31690200  0.89981400  1
  H  165  1  0.34806100  0.30895400  0.88097600  1
  H  166  1  0.30848200  0.30947100  0.89040100  1
  H  167  1  0.30886100  0.36883800  0.91869900  1
  H  168  1  0.34842100  0.36837100  0.90905100  1
  H  169  1  0.34319300  0.35498100  0.87180200  1
  H  170  1  0.34815100  0.37866900  0.86357300  1
  H  171  1  0.42176200  0.37664500  0.86940900  1
  H  172  1  0.41681100  0.35309700  0.87797200  1
  H  173  1  0.41808000  0.31674900  0.87329500  1
  H  174  1  0.35058700  0.31849200  0.85263800  1
  H  175  1  0.35889300  0.29012900  0.82421900  1
  H  180  1  0.42608600  0.28812600  0.84500000  1
  H  206  1  0.41546800  0.57061400  0.61582600  1
  H  207  1  0.39315500  0.55151900  0.62407300  1
  H  208  1  0.41470000  0.61450100  0.67234500  1
  H  209  1  0.39214800  0.59519800  0.68076500  1
  H  210  1  0.34807000  0.58436100  0.68870000  1
  H  211  1  0.30848600  0.59326600  0.68818800  1
  H  212  1  0.30881000  0.56210900  0.62882100  1
  H  213  1  0.34837500  0.55293500  0.62928900  1
  H  214  1  0.34320200  0.52909100  0.64274400  1
  H  215  1  0.34816700  0.49717600  0.61905600  1
  H  216  1  0.42176000  0.50508900  0.62096600  1
  H  217  1  0.41680600  0.53719300  0.64451800  1
  H  218  1  0.41809100  0.56879100  0.68087300  1
  H  219  1  0.35055700  0.54648900  0.67920600  1
  H  220  1  0.35888100  0.54642800  0.70756200  1
  H  225  1  0.42611700  0.56911200  0.70949100  1
  H  251  1  0.41552800  0.05751000  0.42703900  1
  H  252  1  0.39322200  0.08485400  0.44614600  1
  H  253  1  0.41467500  0.07013500  0.38314600  1
  H  254  1  0.39213300  0.09785600  0.40246200  1
  H  255  1  0.34808000  0.11663800  0.41331400  1
  H  256  1  0.30848800  0.10723500  0.40443000  1
  H  257  1  0.30884900  0.07900600  0.43557000  1
  H  258  1  0.34842800  0.08863700  0.44471900  1
  H  259  1  0.34322700  0.12592300  0.46856900  1
  H  260  1  0.34819700  0.13416500  0.50048700  1
  H  261  1  0.42179700  0.12823700  0.49258800  1
  H  262  1  0.41683400  0.11966500  0.46047900  1
  H  263  1  0.41810100  0.12437300  0.42885300  1
  H  264  1  0.35058500  0.14502000  0.45118700  1
  H  265  1  0.35890400  0.17343600  0.45124500  1
  H  270  1  0.42612400  0.15266800  0.42852700  1
  H  296  1  0.01784800  0.57361600  0.94056600  1
  H  297  1  0.03990100  0.55359800  0.91336700  1
  H  298  1  0.02177900  0.61689700  0.92723000  1
  H  299  1  0.04400600  0.59665900  0.89960200  1
  H  300  1  0.08714000  0.58454200  0.88022100  1
  H  301  1  0.12675200  0.59322400  0.88965700  1
  H  302  1  0.12502300  0.56382800  0.91963900  1
  H  303  1  0.08539800  0.55486600  0.90997500  1
  H  304  1  0.09107900  0.53029000  0.87249900  1
  H  305  1  0.08600800  0.49846100  0.86447400  1
  H  306  1  0.01241800  0.50645900  0.87024000  1
  H  307  1  0.01748500  0.53852000  0.87857300  1
  H  308  1  0.01651100  0.57018600  0.87349700  1
  H  309  1  0.08354900  0.54679400  0.85259200  1
  H  310  1  0.07518100  0.54634700  0.82398300  1
  H  315  1  0.00843700  0.57007700  0.84500600  1
  H  341  1  0.01783400  0.05711900  0.61838600  1
  H  342  1  0.03989000  0.08431800  0.62557600  1
  H  343  1  0.02183300  0.07040000  0.67498300  1
  H  344  1  0.04406200  0.09802900  0.68238100  1
  H  345  1  0.08717800  0.11746700  0.68968100  1
  H  346  1  0.12679400  0.10804400  0.68892400  1
  H  347  1  0.12504800  0.07803200  0.62954600  1
  H  348  1  0.08541600  0.08768400  0.63025000  1
  H  349  1  0.09110200  0.12515700  0.64313600  1
  H  350  1  0.08601500  0.13321900  0.61936000  1
  H  351  1  0.01242700  0.12748600  0.62163000  1
  H  352  1  0.01750300  0.11911300  0.64532300  1
  H  353  1  0.01652700  0.12414100  0.68204900  1
  H  354  1  0.08354200  0.14508300  0.67956700  1
  H  355  1  0.07515300  0.17368700  0.70772600  1
  H  360  1  0.00843300  0.15262800  0.71042900  1
  H  386  1  0.01783800  0.37925900  0.42407300  1
  H  387  1  0.03989900  0.37208100  0.44409200  1
  H  388  1  0.02181900  0.32264900  0.38077700  1
  H  389  1  0.04405200  0.31526000  0.40101500  1
  H  390  1  0.08716800  0.30798000  0.41314100  1
  H  391  1  0.12679600  0.30872800  0.40449100  1
  H  392  1  0.12507900  0.36810600  0.43388300  1
  H  393  1  0.08542600  0.36740700  0.44280900  1
  H  394  1  0.09110000  0.35451700  0.46738400  1
  H  395  1  0.08601900  0.37830800  0.49921600  1
  H  396  1  0.01242900  0.37605500  0.49121400  1
  H  397  1  0.01750100  0.35234300  0.45915100  1
  H  398  1  0.01653000  0.31561700  0.42746300  1
  H  399  1  0.08354900  0.31809100  0.45087800  1
  H  400  1  0.07516500  0.28992500  0.45131200  1
  H  405  1  0.00844000  0.28723100  0.42756000  1
  H  431  1  0.51785400  0.43304100  0.04812600  1
  H  432  1  0.53991500  0.45305400  0.07532100  1
  H  433  1  0.52180700  0.38974700  0.06144100  1
  H  434  1  0.54404100  0.40998100  0.08906700  1
  H  435  1  0.58717500  0.42211300  0.10847300  1
  H  436  1  0.62679300  0.41345000  0.09905800  1
  H  437  1  0.62506400  0.44283000  0.06905900  1
  H  438  1  0.58542800  0.45177300  0.07870200  1
  H  439  1  0.59110400  0.47635600  0.11617600  1
  H  440  1  0.58602100  0.50819100  0.12422100  1
  H  441  1  0.51243200  0.50018000  0.11846400  1
  H  442  1  0.51750900  0.46811800  0.11011000  1
  H  443  1  0.51654400  0.43644300  0.11517600  1
  H  444  1  0.58357800  0.45984900  0.13608700  1
  H  445  1  0.57521300  0.46028500  0.16469100  1
  H  450  1  0.50847600  0.43654200  0.14366300  1
  H  476  1  0.51787300  0.94956200  0.37027600  1
  H  477  1  0.53991500  0.92235600  0.36309500  1
  H  478  1  0.52177600  0.93620300  0.31365200  1
  H  479  1  0.54398800  0.90857000  0.30626500  1
  H  480  1  0.58712600  0.88922500  0.29900500  1
  H  481  1  0.62674200  0.89864800  0.29976000  1
  H  482  1  0.62503700  0.92857700  0.35914100  1
  H  483  1  0.58540400  0.91892800  0.35843600  1
  H  484  1  0.59106100  0.88144000  0.34550000  1
  H  485  1  0.58598500  0.87339500  0.36928900  1
  H  486  1  0.51240100  0.87921300  0.36709200  1
  H  487  1  0.51747000  0.88756400  0.34338100  1
  H  488  1  0.51649000  0.88246800  0.30665400  1
  H  489  1  0.58355700  0.86157700  0.30908700  1
  H  490  1  0.57517400  0.83296900  0.28093100  1
  H  495  1  0.50839800  0.85397600  0.27827800  1
  H  521  1  0.51781900  0.62737500  0.56460100  1
  H  522  1  0.53989100  0.63456200  0.54459500  1
  H  523  1  0.52179000  0.68397700  0.60790900  1
  H  524  1  0.54403100  0.69137500  0.58768200  1
  H  525  1  0.58717300  0.69865600  0.57553800  1
  H  526  1  0.62678600  0.69790000  0.58420800  1
  H  527  1  0.62505000  0.63852500  0.55483300  1
  H  528  1  0.58542000  0.63922300  0.54588000  1
  H  529  1  0.59110700  0.65210100  0.52131900  1
  H  530  1  0.58602800  0.62832100  0.48948100  1
  H  531  1  0.51243400  0.63061000  0.49746200  1
  H  532  1  0.51750500  0.65430800  0.52953200  1
  H  533  1  0.51653700  0.69103600  0.56123100  1
  H  534  1  0.58356000  0.68853200  0.53780900  1
  H  535  1  0.57519200  0.71669700  0.53736700  1
  H  540  1  0.50846500  0.71942100  0.56112800  1
  H  566  1  0.03034800  0.37913900  0.94541600  1
  H  567  1  0.05254300  0.37078900  0.91785200  1
  H  568  1  0.00963000  0.32253200  0.92293300  1
  H  569  1  0.03230500  0.31400000  0.89535900  1
  H  570  1  0.08255700  0.31193500  0.89157900  1
  H  571  1  0.12253600  0.31212100  0.90063600  1
  H  572  1  0.13130600  0.36644400  0.90793700  1
  H  573  1  0.09161800  0.36640700  0.89917300  1
  H  574  1  0.08422300  0.34525200  0.86178900  1
  H  575  1  0.07875700  0.36851900  0.85298400  1
  H  576  1  0.01314800  0.38295200  0.88085600  1
  H  577  1  0.01833100  0.35943800  0.88931800  1
  H  578  1  0.01558200  0.32034100  0.86911700  1
  H  579  1  0.08831500  0.31104000  0.85752600  1
  H  580  1  0.08005600  0.28217100  0.82991800  1
  H  585  1  0.00730900  0.29140000  0.84103000  1
  H  611  1  0.03038000  0.57863400  0.61853900  1
  H  612  1  0.05259600  0.55942400  0.62688000  1
  H  613  1  0.00951000  0.61265000  0.67512300  1
  H  614  1  0.03220800  0.59361500  0.68364900  1
  H  615  1  0.08252700  0.59196600  0.68569100  1
  H  616  1  0.12249400  0.60086500  0.68550200  1
  H  617  1  0.13132600  0.55379700  0.63122000  1
  H  618  1  0.09165000  0.54504100  0.63126000  1
  H  619  1  0.08419400  0.52883700  0.65241600  1
  H  620  1  0.07874000  0.49677100  0.62914500  1
  H  621  1  0.01317800  0.51021300  0.61464800  1
  H  622  1  0.01834700  0.54218900  0.63817100  1
  H  623  1  0.01559800  0.56099400  0.67726700  1
  H  624  1  0.08833500  0.55885800  0.68664600  1
  H  625  1  0.08007200  0.56009800  0.71550300  1
  H  630  1  0.00732100  0.56182400  0.70619500  1
  H  656  1  0.03039600  0.05221200  0.41901800  1
  H  657  1  0.05258700  0.07977400  0.43824500  1
  H  658  1  0.00954500  0.07477700  0.38499500  1
  H  659  1  0.03221800  0.10234700  0.40404600  1
  H  660  1  0.08251800  0.10602800  0.40570000  1
  H  661  1  0.12249600  0.09695600  0.39681300  1
  H  662  1  0.13132900  0.08977400  0.44389900  1
  H  663  1  0.09164600  0.09854800  0.45264100  1
  H  664  1  0.08417000  0.13589900  0.46883800  1
  H  665  1  0.07871300  0.14467900  0.50090300  1
  H  666  1  0.01317200  0.11670500  0.48743800  1
  H  667  1  0.01834700  0.10826800  0.45546800  1
  H  668  1  0.01558400  0.12857400  0.43666100  1
  H  669  1  0.08832600  0.14010400  0.43880900  1
  H  670  1  0.08005400  0.16770700  0.43754100  1
  H  675  1  0.00730500  0.15665800  0.43580400  1
  H  701  1  0.53033600  0.62749600  0.04326400  1
  H  702  1  0.55253100  0.63584100  0.07082600  1
  H  703  1  0.50962100  0.68410400  0.06575500  1
  H  704  1  0.53229600  0.69263100  0.09332700  1
  H  705  1  0.58254900  0.69470800  0.09711600  1
  H  706  1  0.62252400  0.69452400  0.08805400  1
  H  707  1  0.63129800  0.64019100  0.08072400  1
  H  708  1  0.59161100  0.64022400  0.08949400  1
  H  709  1  0.58424100  0.66135500  0.12686800  1
  H  710  1  0.57878000  0.63808400  0.13566100  1
  H  711  1  0.51314600  0.62367900  0.10782800  1
  H  712  1  0.51832300  0.64720200  0.09937500  1
  H  713  1  0.51557500  0.68629000  0.11956400  1
  H  714  1  0.58830800  0.69558400  0.13116100  1
  H  715  1  0.58004900  0.72444800  0.15877600  1
  H  720  1  0.50730200  0.71522700  0.14765600  1
  H  746  1  0.53040100  0.42799300  0.37013300  1
  H  747  1  0.55262600  0.44720300  0.36179500  1
  H  748  1  0.50948700  0.39401100  0.31355600  1
  H  749  1  0.53219200  0.41304400  0.30503300  1
  H  750  1  0.58253400  0.41467700  0.30300600  1
  H  751  1  0.62251200  0.40579400  0.30318800  1
  H  752  1  0.63135400  0.45288800  0.35745000  1
  H  753  1  0.59166900  0.46162900  0.35742000  1
  H  754  1  0.58417900  0.47781600  0.33625800  1
  H  755  1  0.57871900  0.50988100  0.35953200  1
  H  756  1  0.51319200  0.49642100  0.37406400  1
  H  757  1  0.51836500  0.46444700  0.35053900  1
  H  758  1  0.51560900  0.44567000  0.31142600  1
  H  759  1  0.58835400  0.44775800  0.30202500  1
  H  760  1  0.58009000  0.44649400  0.27315600  1
  H  765  1  0.50733500  0.44481900  0.28248700  1
  H  791  1  0.53033100  0.95440300  0.56961300  1
  H  792  1  0.55252400  0.92684200  0.55039200  1
  H  793  1  0.50958800  0.93189300  0.60370800  1
  H  794  1  0.53226100  0.90432100  0.58465900  1
  H  795  1  0.58252600  0.90057900  0.58296500  1
  H  796  1  0.62251700  0.90962100  0.59183100  1
  H  797  1  0.63129900  0.91689500  0.54479400  1
  H  798  1  0.59160600  0.90814700  0.53607500  1
  H  799  1  0.58419300  0.87076500  0.51985100  1
  H  800  1  0.57873300  0.86196200  0.48778000  1
  H  801  1  0.51314500  0.88986800  0.50122400  1
  H  802  1  0.51832300  0.89832400  0.53319700  1
  H  803  1  0.51557500  0.87808700  0.55206700  1
  H  804  1  0.58831400  0.86652000  0.54982500  1
  H  805  1  0.58005300  0.83891000  0.55108200  1
  H  810  1  0.50730400  0.84999800  0.55291900  1
  H  836  1  0.90559900  0.42548900  0.04308700  1
  H  837  1  0.88375400  0.44583600  0.07055400  1
  H  838  1  0.92209100  0.39099200  0.06601500  1
  H  839  1  0.89993800  0.41125300  0.09357900  1
  H  840  1  0.85121400  0.41412200  0.09776800  1
  H  841  1  0.81127800  0.40540900  0.08849000  1
  H  842  1  0.80408900  0.45119200  0.07900600  1
  H  843  1  0.84376300  0.45977000  0.08802000  1
  H  844  1  0.84971900  0.47659200  0.12602800  1
  H  845  1  0.85513700  0.50862900  0.13483400  1
  H  846  1  0.92136700  0.49545200  0.10790700  1
  H  847  1  0.91624100  0.46345300  0.09948700  1
  H  848  1  0.91869300  0.44426500  0.11940500  1
  H  849  1  0.84593200  0.44753100  0.13121300  1
  H  850  1  0.85400100  0.44658600  0.15904100  1
  H  855  1  0.92677200  0.44372200  0.14767400  1
  H  881  1  0.90562000  0.95458300  0.36774200  1
  H  882  1  0.88378700  0.92711100  0.36062900  1
  H  883  1  0.92213400  0.93163500  0.31031800  1
  H  884  1  0.89999300  0.90406700  0.30302100  1
  H  885  1  0.85124600  0.89989700  0.30172200  1
  H  886  1  0.81129700  0.90914200  0.30228300  1
  H  887  1  0.80410800  0.91858200  0.35753100  1
  H  888  1  0.84379500  0.90960300  0.35710400  1
  H  889  1  0.84978000  0.87161800  0.33590500  1
  H  890  1  0.85519200  0.86281500  0.35914200  1
  H  891  1  0.92138800  0.88979300  0.37293700  1
  H  892  1  0.91627100  0.89820700  0.34935200  1
  H  893  1  0.91872600  0.87823800  0.31022000  1
  H  894  1  0.84594900  0.86647700  0.30166400  1
  H  895  1  0.85400600  0.83865100  0.27288600  1
  H  900  1  0.92678700  0.84997000  0.28140000  1
  H  926  1  0.90566000  0.62988200  0.57212800  1
  H  927  1  0.88382300  0.63700300  0.55177700  1
  H  928  1  0.92199800  0.68732500  0.60670900  1
  H  929  1  0.89985600  0.69462800  0.58644200  1
  H  930  1  0.85119100  0.69597500  0.58351000  1
  H  931  1  0.81124800  0.69540700  0.59221000  1
  H  932  1  0.80412400  0.64009300  0.54649900  1
  H  933  1  0.84380200  0.64053300  0.53793300  1
  H  934  1  0.84968000  0.66170000  0.52107400  1
  H  935  1  0.85509900  0.63846700  0.48903300  1
  H  936  1  0.92138700  0.62479300  0.50219600  1
  H  937  1  0.91625800  0.64836900  0.53419400  1
  H  938  1  0.91870700  0.68747500  0.55346000  1
  H  939  1  0.84594800  0.69593800  0.55006100  1
  H  940  1  0.85400700  0.72471100  0.55100100  1
  H  945  1  0.92677300  0.71628900  0.55400300  1
  H  971  1  0.40562300  0.58116900  0.94560300  1
  H  972  1  0.38378500  0.56081000  0.91813400  1
  H  973  1  0.42210900  0.61565500  0.92266100  1
  H  974  1  0.39996500  0.59538300  0.89509500  1
  H  975  1  0.35123000  0.59250700  0.89090600  1
  H  976  1  0.31128100  0.60120300  0.90016300  1
  H  977  1  0.30411100  0.55542500  0.90965500  1
  H  978  1  0.34379200  0.54686500  0.90066100  1
  H  979  1  0.34974600  0.53004800  0.86265800  1
  H  980  1  0.35516000  0.49801200  0.85386000  1
  H  981  1  0.42138500  0.51119200  0.88079400  1
  H  982  1  0.41626500  0.54319000  0.88920700  1
  H  983  1  0.41871100  0.56237300  0.86927200  1
  H  984  1  0.34594600  0.55910800  0.85747600  1
  H  985  1  0.35400600  0.56004300  0.82964200  1
  H  990  1  0.42678000  0.56290800  0.84099800  1
  H  1016  1  0.40559600  0.05205400  0.62093100  1
  H  1017  1  0.38376200  0.07952300  0.62804000  1
  H  1018  1  0.42209200  0.07499600  0.67835600  1
  H  1019  1  0.39994900  0.10256400  0.68565200  1
  H  1020  1  0.35123000  0.10673600  0.68695600  1
  H  1021  1  0.31129200  0.09745800  0.68639500  1
  H  1022  1  0.30409000  0.08799100  0.63113700  1
  H  1023  1  0.34376400  0.09700100  0.63156800  1
  H  1024  1  0.34973400  0.13499000  0.65273700  1
  H  1025  1  0.35514800  0.14377400  0.62948400  1
  H  1026  1  0.42136700  0.11683100  0.61573900  1
  H  1027  1  0.41624400  0.10843300  0.63933200  1
  H  1028  1  0.41870100  0.12837800  0.67845400  1
  H  1029  1  0.34593000  0.14017700  0.68699400  1
  H  1030  1  0.35399500  0.16799900  0.71577500  1
  H  1035  1  0.42676900  0.15664000  0.70727500  1
  H  1061  1  0.40566200  0.37676800  0.41656700  1
  H  1062  1  0.38382800  0.36964400  0.43691500  1
  H  1063  1  0.42201400  0.31932700  0.38198700  1
  H  1064  1  0.39987400  0.31202300  0.40225300  1
  H  1065  1  0.35120000  0.31066200  0.40517800  1
  H  1066  1  0.31126300  0.31122700  0.39647300  1
  H  1067  1  0.30412500  0.36654100  0.44218200  1
  H  1068  1  0.34380300  0.36610400  0.45075500  1
  H  1069  1  0.34967000  0.34494600  0.46761100  1
  H  1070  1  0.35508100  0.36817800  0.49964800  1
  H  1071  1  0.42137800  0.38185100  0.48650100  1
  H  1072  1  0.41626000  0.35827400  0.45450100  1
  H  1073  1  0.41871300  0.31916800  0.43523100  1
  H  1074  1  0.34595300  0.31069700  0.43861300  1
  H  1075  1  0.35401100  0.28192000  0.43766600  1
  H  1080  1  0.42677800  0.29034800  0.43467800  1
  H  1091  1  0.88578300  0.83324200  0.20618900  1
  H  1092  1  0.88462900  0.80553000  0.17440000  1
  H  1093  1  0.91986300  0.75223500  0.20904000  1
  H  1094  1  0.92086300  0.77910800  0.23996100  1
  H  1096  1  0.91792700  0.75201200  0.16717300  1
  H  1098  1  0.92572400  0.81595800  0.25772200  1
  H  1109  1  0.88576900  0.38525100  0.16441200  1
  H  1110  1  0.88461000  0.38117500  0.19212500  1
  H  1111  1  0.91986900  0.46910200  0.24541800  1
  H  1112  1  0.92087300  0.47315000  0.21854500  1
  H  1114  1  0.91793200  0.42746300  0.24563400  1
  H  1116  1  0.92571500  0.45408600  0.18170800  1
  H  1127  1  0.88574300  0.79146400  0.61238500  1
  H  1128  1  0.88459300  0.82324900  0.61645000  1
  H  1129  1  0.91991000  0.78859000  0.52853200  1
  H  1130  1  0.92090300  0.75767300  0.52449500  1
  H  1132  1  0.91795700  0.83045900  0.57017500  1
  H  1134  1  0.92573800  0.73992000  0.54359800  1
  H  1145  1  0.38578100  0.17338200  0.78248900  1
  H  1146  1  0.38460800  0.20109800  0.81427400  1
  H  1147  1  0.41983000  0.25439000  0.77962900  1
  H  1148  1  0.42084400  0.22751300  0.74870900  1
  H  1150  1  0.41790000  0.25461100  0.82148900  1
  H  1152  1  0.42570100  0.19068000  0.73093800  1
  H  1163  1  0.38577700  0.62137000  0.82425600  1
  H  1164  1  0.38462400  0.62544600  0.79654400  1
  H  1165  1  0.41987100  0.53751500  0.74325200  1
  H  1166  1  0.42087000  0.53346700  0.77012400  1
  H  1168  1  0.41793700  0.57915600  0.74302700  1
  H  1170  1  0.42572900  0.55256100  0.80697900  1
  H  1181  1  0.38576100  0.21516600  0.37627400  1
  H  1182  1  0.38460800  0.18338000  0.37220500  1
  H  1183  1  0.41989000  0.21803400  0.46013100  1
  H  1184  1  0.42089000  0.24895200  0.46417000  1
  H  1186  1  0.41794500  0.17616500  0.41849500  1
  H  1188  1  0.42572900  0.26671100  0.44508500  1
  H  1199  1  0.04845600  0.62110600  0.78160900  1
  H  1200  1  0.04978900  0.62536300  0.81346600  1
  H  1201  1  0.01432700  0.53756500  0.77939800  1
  H  1202  1  0.01316200  0.53333600  0.74840700  1
  H  1204  1  0.01645300  0.57938100  0.82109600  1
  H  1206  1  0.00830800  0.55218200  0.73041500  1
  H  1217  1  0.04850900  0.21600600  0.82483800  1
  H  1218  1  0.04983600  0.18415400  0.79723000  1
  H  1219  1  0.01427200  0.21824500  0.74354400  1
  H  1220  1  0.01311400  0.24923100  0.77031300  1
  H  1222  1  0.01646500  0.17653200  0.74365100  1
  H  1224  1  0.00830100  0.26722200  0.80713300  1
  H  1235  1  0.04845800  0.17280700  0.37652400  1
  H  1236  1  0.04978500  0.20041000  0.37227200  1
  H  1237  1  0.01429700  0.25412100  0.46006700  1
  H  1238  1  0.01313500  0.22735600  0.46428900  1
  H  1240  1  0.01644500  0.25402000  0.41825500  1
  H  1242  1  0.00830100  0.19053800  0.44546800  1
  H  1253  1  0.54847200  0.38550700  0.20705200  1
  H  1254  1  0.54980500  0.38125400  0.17519600  1
  H  1255  1  0.51436100  0.46905800  0.20927400  1
  H  1256  1  0.51319600  0.47328300  0.24026300  1
  H  1258  1  0.51648400  0.42724500  0.16757600  1
  H  1260  1  0.50834900  0.45446700  0.25826300  1
  H  1271  1  0.54850000  0.79061500  0.16385700  1
  H  1272  1  0.54982200  0.82246600  0.19146500  1
  H  1273  1  0.51425100  0.78837300  0.24514800  1
  H  1274  1  0.51309900  0.75738700  0.21837800  1
  H  1276  1  0.51642100  0.83008100  0.24504400  1
  H  1278  1  0.50828000  0.73940500  0.18154400  1
  H  1289  1  0.54846900  0.83384700  0.61215700  1
  H  1290  1  0.54981900  0.80624600  0.61641100  1
  H  1291  1  0.51433200  0.75251400  0.52861900  1
  H  1292  1  0.51315200  0.77927800  0.52439200  1
  H  1294  1  0.51649000  0.75263000  0.57043200  1
  H  1296  1  0.50830500  0.81609700  0.54321200  1
  H  1307  1  0.68107800  0.70848900  0.06020300  1
  H  1308  1  0.72292900  0.71736900  0.06468800  1
  H  1309  1  0.74445800  0.64934300  0.08360400  1
  H  1310  1  0.70412600  0.64070000  0.07905000  1
  H  1312  1  0.76897600  0.69119800  0.08763700  1
  H  1314  1  0.66515000  0.64288800  0.06441400  1
  H  1325  1  0.68108300  0.36402700  0.28919600  1
  H  1326  1  0.72293600  0.35961300  0.28031800  1
  H  1327  1  0.74450400  0.44656200  0.34831100  1
  H  1328  1  0.70417200  0.45067000  0.35695200  1
  H  1330  1  0.76900900  0.40871100  0.30647000  1
  H  1332  1  0.66520500  0.43385500  0.35478000  1
  H  1343  1  0.68102500  0.93743100  0.63360900  1
  H  1344  1  0.72288100  0.93300700  0.63805200  1
  H  1345  1  0.74451800  0.91409900  0.55112700  1
  H  1346  1  0.70418300  0.91859400  0.54699200  1
  H  1348  1  0.76900200  0.91010000  0.58898300  1
  H  1350  1  0.66516400  0.93320600  0.56380400  1
  H  1361  1  0.18107400  0.29820300  0.92853600  1
  H  1362  1  0.22292700  0.28932500  0.92407500  1
  H  1363  1  0.24448400  0.35727300  0.90505100  1
  H  1364  1  0.20415200  0.36591500  0.90958300  1
  H  1366  1  0.26900200  0.31545400  0.90111600  1
  H  1368  1  0.16517100  0.36375400  0.92423100  1
  H  1379  1  0.18109500  0.64266600  0.69948000  1
  H  1380  1  0.22294400  0.64705000  0.70836400  1
  H  1381  1  0.24444500  0.56008300  0.64038100  1
  H  1382  1  0.20411500  0.55600200  0.63173300  1
  H  1384  1  0.26897000  0.59790800  0.68222300  1
  H  1386  1  0.16517100  0.57282300  0.63389500  1
  H  1397  1  0.18108800  0.06919600  0.35505400  1
  H  1398  1  0.22294300  0.07367500  0.35065900  1
  H  1399  1  0.24446300  0.09256500  0.43759400  1
  H  1400  1  0.20413000  0.08801500  0.44168100  1
  H  1402  1  0.26899300  0.09657200  0.39974900  1
  H  1404  1  0.16516200  0.07338800  0.42485300  1
  H  1415  1  0.25355000  0.64334600  0.92923700  1
  H  1416  1  0.21173700  0.64778800  0.92468300  1
  H  1417  1  0.19001700  0.56074000  0.90535000  1
  H  1418  1  0.23032000  0.55659800  0.90996300  1
  H  1420  1  0.16574200  0.59865000  0.90135800  1
  H  1422  1  0.26934400  0.57340700  0.92469400  1
  H  1433  1  0.25348900  0.06835200  0.69946000  1
  H  1434  1  0.21167800  0.07297500  0.70846800  1
  H  1435  1  0.19008800  0.09232700  0.64075100  1
  H  1436  1  0.23038900  0.08765100  0.63198500  1
  H  1438  1  0.16579000  0.09638900  0.68265800  1
  H  1440  1  0.26935500  0.07291000  0.63404900  1
  H  1451  1  0.25349200  0.29816700  0.35426300  1
  H  1452  1  0.21168500  0.28915200  0.34988800  1
  H  1453  1  0.19010500  0.35690200  0.43694400  1
  H  1454  1  0.23040300  0.36567500  0.44102300  1
  H  1456  1  0.16580000  0.31498200  0.39911500  1
  H  1458  1  0.26937900  0.36360100  0.42421800  1
  H  1469  1  0.75348500  0.36321600  0.05934400  1
  H  1470  1  0.71167900  0.35883600  0.06397800  1
  H  1471  1  0.69009800  0.44591600  0.08336200  1
  H  1472  1  0.73039800  0.45000100  0.07867400  1
  H  1474  1  0.66579000  0.40805800  0.08740300  1
  H  1476  1  0.76935500  0.43322600  0.06394800  1
  H  1487  1  0.75355400  0.93818000  0.28920500  1
  H  1488  1  0.71173900  0.93363200  0.28021500  1
  H  1489  1  0.69001900  0.91431300  0.34793800  1
  H  1490  1  0.73032400  0.91892000  0.35669000  1
  H  1492  1  0.66575100  0.91029000  0.30603000  1
  H  1494  1  0.76935300  0.93364000  0.35460400  1
  H  1505  1  0.75349400  0.70840600  0.63443500  1
  H  1506  1  0.71168600  0.71741300  0.63883100  1
  H  1507  1  0.69008300  0.64975300  0.55173900  1
  H  1508  1  0.73038200  0.64098500  0.54763800  1
  H  1510  1  0.66577100  0.69163200  0.58964000  1
  H  1512  1  0.76936000  0.64302800  0.56442800  1
  H  1523  1  0.98010000  0.66752900  0.96716200  1
  H  1524  1  0.96052000  0.68825300  0.99733300  1
  H  1525  1  0.95313500  0.61685800  0.01306800  1
  H  1526  1  0.97177000  0.59701000  0.98399600  1
  H  1528  1  0.94246200  0.66719800  0.03417800  1
  H  1530  1  0.97970800  0.59184100  0.95176500  1
  H  1541  1  0.98012900  0.31193400  0.33014300  1
  H  1542  1  0.96054900  0.32137900  0.30941800  1
  H  1543  1  0.95311700  0.40850100  0.38082300  1
  H  1544  1  0.97175400  0.39927800  0.40067200  1
  H  1546  1  0.94246100  0.37927000  0.33047800  1
  H  1548  1  0.97971200  0.37221900  0.40583600  1
  H  1559  1  0.98020500  0.03048500  0.68568700  1
  H  1560  1  0.96062000  0.00032200  0.67625900  1
  H  1561  1  0.95310000  0.98459200  0.58913700  1
  H  1562  1  0.97174200  0.01365600  0.59834200  1
  H  1564  1  0.94246400  0.96349100  0.61838200  1
  H  1566  1  0.97972900  0.04588500  0.62539500  1
  H  1577  1  0.48014000  0.33912000  0.02151900  1
  H  1578  1  0.46056400  0.31839300  0.99134800  1
  H  1579  1  0.45312100  0.38979500  0.97562600  1
  H  1580  1  0.47175600  0.40964600  0.00469900  1
  H  1582  1  0.44244300  0.33945200  0.95452600  1
  H  1584  1  0.47971700  0.41481600  0.03692600  1
  H  1595  1  0.48009200  0.69468500  0.65852300  1
  H  1596  1  0.46051400  0.68524200  0.67925000  1
  H  1597  1  0.45311700  0.59811100  0.60786100  1
  H  1598  1  0.47175200  0.60733100  0.58800900  1
  H  1600  1  0.44246400  0.62734200  0.65820300  1
  H  1602  1  0.47969900  0.63438400  0.58283600  1
  H  1613  1  0.48010600  0.97614000  0.30294700  1
  H  1614  1  0.46051800  0.00630500  0.31238900  1
  H  1615  1  0.45312200  0.02204000  0.39951900  1
  H  1616  1  0.47176600  0.99297200  0.39029900  1
  H  1618  1  0.44242400  0.04313700  0.37027700  1
  H  1620  1  0.47971700  0.96074700  0.36324400  1
  H  1631  1  0.95468100  0.33775500  0.02170800  1
  H  1632  1  0.97446000  0.31697200  0.99165000  1
  H  1633  1  0.97835400  0.38708000  0.97387100  1
  H  1634  1  0.95943800  0.40709100  0.00280700  1
  H  1636  1  0.98722300  0.33734400  0.95248100  1
  H  1638  1  0.94924800  0.41337900  0.03432600  1
  H  1649  1  0.95469600  0.69626300  0.65991800  1
  H  1650  1  0.97443600  0.68697200  0.68070400  1
  H  1651  1  0.97828200  0.59908700  0.61058700  1
  H  1652  1  0.95940300  0.60802900  0.59057500  1
  H  1654  1  0.98713100  0.62741100  0.66032100  1
  H  1656  1  0.94929700  0.63328900  0.58429300  1
  H  1667  1  0.95476700  0.97593700  0.30137400  1
  H  1668  1  0.97451700  0.00600800  0.31065900  1
  H  1669  1  0.97829900  0.02381400  0.39855900  1
  H  1670  1  0.95940900  0.99486500  0.38962300  1
  H  1672  1  0.98718700  0.04520300  0.37021900  1
  H  1674  1  0.94928600  0.96333200  0.36438200  1
  H  1685  1  0.45475400  0.66889600  0.96696100  1
  H  1686  1  0.47451700  0.68967700  0.99703000  1
  H  1687  1  0.47834000  0.61956300  0.01480400  1
  H  1688  1  0.45943900  0.59955700  0.98585800  1
  H  1690  1  0.48723200  0.66929900  0.03620000  1
  H  1692  1  0.44929400  0.59327500  0.95433200  1
  H  1703  1  0.45466500  0.31039400  0.32877300  1
  H  1704  1  0.47441300  0.31967400  0.30798200  1
  H  1705  1  0.47828400  0.40756400  0.37808700  1
  H  1706  1  0.45939700  0.39863300  0.39810400  1
  H  1708  1  0.48713500  0.37922900  0.32835200  1
  H  1710  1  0.44926800  0.37338700  0.40439500  1
  H  1721  1  0.45472400  0.03069500  0.68729600  1
  H  1722  1  0.47448200  0.00062600  0.67800900  1
  H  1723  1  0.47830900  0.98284300  0.59012000  1
  H  1724  1  0.45941100  0.01178800  0.59905500  1
  H  1726  1  0.48719700  0.96145000  0.61846100  1
  H  1728  1  0.44926400  0.04331900  0.62429800  1
  H  1739  1  0.84622100  0.61778200  0.17625300  1
  H  1740  1  0.83578200  0.58927400  0.17738600  1
  H  1741  1  0.90996100  0.54015600  0.10758200  1
  H  1742  1  0.92010400  0.56774200  0.10659100  1
  H  1744  1  0.86127100  0.53550400  0.13223400  1
  H  1746  1  0.91941600  0.60384000  0.12425400  1
  H  1757  1  0.84632000  0.57079700  0.37985900  1
  H  1758  1  0.83587300  0.60043700  0.40836500  1
  H  1759  1  0.90992600  0.57970100  0.45752000  1
  H  1760  1  0.92007700  0.55112200  0.42993200  1
  H  1762  1  0.86127400  0.60901500  0.46214700  1
  H  1764  1  0.91942800  0.53269200  0.39386800  1
  H  1775  1  0.84621600  0.82141400  0.42687400  1
  H  1776  1  0.83579400  0.82028700  0.39723300  1
  H  1777  1  0.90997600  0.89009800  0.41795500  1
  H  1778  1  0.92010500  0.89108100  0.44653400  1
  H  1780  1  0.86129000  0.86545500  0.38864300  1
  H  1782  1  0.91940800  0.87340700  0.46495300  1
  H  1793  1  0.34626500  0.38887700  0.81239700  1
  H  1794  1  0.33582400  0.41739900  0.81129200  1
  H  1795  1  0.40992500  0.46649300  0.88116200  1
  H  1796  1  0.42007200  0.43889300  0.88212800  1
  H  1798  1  0.36125900  0.47116900  0.85653400  1
  H  1800  1  0.41940700  0.40283000  0.86448700  1
  H  1811  1  0.34630400  0.43584300  0.60883800  1
  H  1812  1  0.33585400  0.40620500  0.58033200  1
  H  1813  1  0.40990900  0.42693400  0.53117500  1
  H  1814  1  0.42006300  0.45551100  0.55875900  1
  H  1816  1  0.36125900  0.39760800  0.52654800  1
  H  1818  1  0.41941400  0.47394500  0.59482500  1
  H  1829  1  0.34634400  0.18530700  0.56188100  1
  H  1830  1  0.33587500  0.18637700  0.59148600  1
  H  1831  1  0.40991100  0.11645400  0.57064900  1
  H  1832  1  0.42008200  0.11552100  0.54210200  1
  H  1834  1  0.36125700  0.14110100  0.59996900  1
  H  1836  1  0.41944600  0.13315900  0.52370000  1
  H  1847  1  0.08763800  0.43752700  0.81288600  1
  H  1848  1  0.09813900  0.40770800  0.81134700  1
  H  1849  1  0.02441600  0.42770200  0.88124600  1
  H  1850  1  0.01421400  0.45645700  0.88263600  1
  H  1852  1  0.07296700  0.39844400  0.85619200  1
  H  1854  1  0.01471300  0.47519300  0.86520700  1
  H  1865  1  0.08762800  0.18483500  0.60996900  1
  H  1866  1  0.09815400  0.18629600  0.58165300  1
  H  1867  1  0.02447000  0.11633900  0.53183100  1
  H  1868  1  0.01424800  0.11501900  0.55922900  1
  H  1870  1  0.07301800  0.14131300  0.52755500  1
  H  1872  1  0.01472200  0.13241700  0.59533900  1
  H  1883  1  0.08766100  0.38767200  0.56017500  1
  H  1884  1  0.09818000  0.41597000  0.58997200  1
  H  1885  1  0.02444200  0.46583000  0.56992700  1
  H  1886  1  0.01422800  0.43844800  0.54119200  1
  H  1888  1  0.07299900  0.47007200  0.59918700  1
  H  1890  1  0.01472200  0.40230300  0.52246400  1
  H  1901  1  0.58758900  0.56917000  0.17585600  1
  H  1902  1  0.59811500  0.59896400  0.17735100  1
  H  1903  1  0.52447600  0.57887600  0.10738000  1
  H  1904  1  0.51425500  0.55014200  0.10602700  1
  H  1906  1  0.57300500  0.60813900  0.13241400  1
  H  1908  1  0.51472000  0.53141300  0.12340900  1
  H  1919  1  0.58760200  0.82182300  0.37867300  1
  H  1920  1  0.59810800  0.82030500  0.40696300  1
  H  1921  1  0.52442600  0.89024300  0.45685200  1
  H  1922  1  0.51422100  0.89161400  0.42947800  1
  H  1924  1  0.57296000  0.86518500  0.46106900  1
  H  1926  1  0.51470400  0.87420900  0.39333900  1
  H  1937  1  0.58761700  0.61897000  0.42846500  1
  H  1938  1  0.59813600  0.59066200  0.39867600  1
  H  1939  1  0.52448500  0.54081000  0.41879800  1
  H  1940  1  0.51426900  0.56820100  0.44752600  1
  H  1942  1  0.57301200  0.53656000  0.38952300  1
  H  1944  1  0.51473600  0.60431200  0.46624600  1
  C  1  1  0.89292700  0.72066400  0.15653500  1
  C  2  1  0.87138600  0.71119100  0.15403700  1
  C  3  1  0.86652100  0.69445200  0.13714800  1
  C  4  1  0.88268400  0.68647000  0.12180600  1
  C  5  1  0.90492800  0.69556300  0.12513700  1
  C  6  1  0.90987500  0.71242600  0.14198600  1
  C  7  1  0.87662200  0.66795600  0.10391000  1
  C  8  1  0.87931700  0.65408100  0.11119400  1
  C  9  1  0.90206200  0.64832700  0.11366900  1
  C  10  1  0.90508700  0.63441400  0.11876500  1
  C  11  1  0.88534800  0.62631300  0.12252100  1
  C  12  1  0.86281400  0.63328800  0.12210800  1
  C  13  1  0.85994100  0.64710800  0.11689600  1
  C  14  1  0.85209000  0.66805300  0.09613100  1
  C  15  1  0.89196000  0.66272100  0.08657600  1
  C  16  1  0.89827100  0.64373000  0.07365000  1
  C  17  1  0.91121700  0.63868300  0.05719900  1
  C  18  1  0.91798900  0.65235700  0.05253900  1
  C  19  1  0.91076700  0.67116400  0.06448100  1
  C  20  1  0.89756600  0.67607100  0.08089700  1
  C  21  1  0.84017200  0.68484500  0.09989700  1
  C  22  1  0.81678600  0.68461600  0.09404800  1
  C  23  1  0.80465600  0.66740100  0.08342600  1
  C  24  1  0.81705000  0.65053400  0.07780600  1
  C  25  1  0.84044600  0.65089500  0.08363100  1
  C  46  1  0.89291900  0.44815400  0.27698500  1
  C  47  1  0.87138900  0.45514600  0.28647400  1
  C  48  1  0.86653900  0.45500600  0.30321900  1
  C  49  1  0.88270100  0.44763700  0.31119200  1
  C  50  1  0.90493700  0.44186200  0.30208700  1
  C  51  1  0.90987300  0.44184200  0.28522000  1
  C  52  1  0.87664500  0.44825300  0.32970600  1
  C  53  1  0.87933400  0.46941100  0.34358700  1
  C  54  1  0.90207900  0.47764700  0.34931300  1
  C  55  1  0.90510000  0.49665300  0.36324200  1
  C  56  1  0.88535800  0.50850000  0.37136500  1
  C  57  1  0.86282600  0.50111300  0.36438600  1
  C  58  1  0.85995400  0.48208100  0.35056700  1
  C  59  1  0.85211500  0.44037100  0.32960400  1
  C  60  1  0.89199400  0.43615200  0.33493100  1
  C  61  1  0.89831000  0.44222300  0.35392500  1
  C  62  1  0.91125800  0.43082200  0.35897700  1
  C  63  1  0.91803100  0.41248700  0.34530700  1
  C  64  1  0.91078300  0.40561000  0.32650400  1
  C  65  1  0.89758900  0.41711900  0.32159300  1
  C  66  1  0.84019700  0.42734700  0.31281400  1
  C  67  1  0.81681700  0.42171600  0.31304300  1
  C  68  1  0.80469800  0.42828600  0.33025800  1
  C  69  1  0.81708700  0.43954700  0.34712500  1
  C  70  1  0.84047700  0.44501900  0.34676300  1
  C  91  1  0.89293200  0.84111100  0.54948600  1
  C  92  1  0.87138100  0.84361700  0.54252900  1
  C  93  1  0.86651700  0.86050700  0.54268200  1
  C  94  1  0.88268000  0.87584900  0.55003900  1
  C  95  1  0.90493900  0.87250100  0.55576500  1
  C  96  1  0.90988900  0.85565300  0.55578000  1
  C  97  1  0.87662600  0.89374000  0.54941100  1
  C  98  1  0.87932200  0.88645500  0.52825200  1
  C  99  1  0.90206600  0.88398600  0.52002400  1
  C  100  1  0.90508800  0.87889000  0.50101300  1
  C  101  1  0.88534700  0.87512500  0.48915600  1
  C  102  1  0.86281700  0.87552200  0.49654400  1
  C  103  1  0.85994800  0.88073300  0.51557500  1
  C  104  1  0.85209600  0.90152300  0.55728400  1
  C  105  1  0.89197600  0.91106500  0.56150200  1
  C  106  1  0.89825000  0.92401100  0.55545100  1
  C  107  1  0.91119700  0.94046300  0.56685100  1
  C  108  1  0.91798300  0.94512000  0.58518100  1
  C  109  1  0.91077600  0.93317500  0.59204500  1
  C  110  1  0.89758600  0.91675200  0.58053300  1
  C  111  1  0.84018100  0.89777400  0.57032300  1
  C  112  1  0.81680700  0.90364800  0.57596500  1
  C  113  1  0.80468600  0.91428100  0.56938200  1
  C  114  1  0.81706400  0.91985800  0.55809300  1
  C  115  1  0.84045000  0.91401400  0.55261500  1
  C  136  1  0.39290800  0.28596900  0.83213700  1
  C  137  1  0.37137700  0.29545500  0.83463800  1
  C  138  1  0.36652500  0.31219600  0.85152700  1
  C  139  1  0.38268600  0.32016700  0.86687000  1
  C  140  1  0.40492000  0.31106100  0.86353900  1
  C  141  1  0.40985500  0.29419200  0.84669100  1
  C  142  1  0.37663100  0.33868100  0.88477000  1
  C  143  1  0.37931700  0.35256100  0.87749100  1
  C  144  1  0.40206100  0.35829400  0.87498900  1
  C  145  1  0.40508200  0.37221100  0.86989600  1
  C  146  1  0.38534000  0.38033700  0.86617500  1
  C  147  1  0.36280300  0.37338200  0.86661800  1
  C  148  1  0.35993300  0.35955100  0.87181600  1
  C  149  1  0.35210400  0.33857900  0.89255500  1
  C  150  1  0.39198500  0.34390600  0.90209400  1
  C  151  1  0.39829600  0.36289900  0.91501800  1
  C  152  1  0.41124700  0.36795100  0.93146900  1
  C  153  1  0.41800800  0.35428300  0.93614000  1
  C  154  1  0.41076900  0.33547800  0.92421000  1
  C  155  1  0.39757900  0.33056700  0.90779000  1
  C  156  1  0.34017900  0.32178800  0.88877600  1
  C  157  1  0.31679400  0.32201800  0.89462600  1
  C  158  1  0.30468600  0.33923400  0.90529800  1
  C  159  1  0.31707300  0.35609900  0.91088700  1
  C  160  1  0.34048100  0.35573900  0.90508600  1
  C  181  1  0.39292000  0.55846000  0.71168600  1
  C  182  1  0.37137400  0.55149500  0.70221900  1
  C  183  1  0.36651100  0.55164800  0.68548100  1
  C  184  1  0.38267100  0.55901500  0.67750300  1
  C  185  1  0.40492800  0.56474300  0.68657800  1
  C  186  1  0.40987800  0.56475400  0.70343900  1
  C  187  1  0.37660800  0.55838300  0.65898200  1
  C  188  1  0.37931000  0.53722500  0.64510700  1
  C  189  1  0.40205900  0.52900000  0.63936600  1
  C  190  1  0.40508500  0.50999100  0.62544200  1
  C  191  1  0.38534500  0.49813700  0.61733400  1
  C  192  1  0.36281500  0.50551600  0.62432700  1
  C  193  1  0.35993900  0.52454500  0.63814600  1
  C  194  1  0.35207400  0.56625400  0.65907900  1
  C  195  1  0.39194800  0.57048700  0.65375500  1
  C  196  1  0.39822700  0.56442500  0.63475600  1
  C  197  1  0.41117600  0.57582300  0.62970200  1
  C  198  1  0.41797300  0.59415000  0.64337200  1
  C  199  1  0.41076100  0.60101900  0.66218200  1
  C  200  1  0.39756600  0.58951400  0.66709700  1
  C  201  1  0.34016900  0.57930100  0.67587000  1
  C  202  1  0.31677700  0.58490800  0.67564200  1
  C  203  1  0.30465200  0.57833500  0.65842700  1
  C  204  1  0.31703200  0.56705600  0.64155900  1
  C  205  1  0.34042200  0.56158300  0.64192000  1
  C  226  1  0.39293600  0.16552300  0.43919800  1
  C  227  1  0.37139500  0.16302300  0.44617100  1
  C  228  1  0.36653400  0.14613400  0.44602200  1
  C  229  1  0.38268900  0.13078700  0.43865100  1
  C  230  1  0.40493700  0.13412500  0.43290000  1
  C  231  1  0.40988500  0.15097400  0.43288600  1
  C  232  1  0.37663500  0.11289600  0.43927900  1
  C  233  1  0.37933900  0.12017900  0.46043800  1
  C  234  1  0.40208500  0.12266100  0.46866400  1
  C  235  1  0.40511700  0.12776700  0.48767400  1
  C  236  1  0.38538000  0.13152100  0.49953400  1
  C  237  1  0.36284500  0.13111300  0.49215000  1
  C  238  1  0.35996700  0.12589300  0.47311800  1
  C  239  1  0.35210100  0.10511600  0.43141100  1
  C  240  1  0.39198100  0.09556800  0.42718300  1
  C  241  1  0.39827700  0.08262800  0.43323500  1
  C  242  1  0.41121700  0.06617400  0.42182900  1
  C  243  1  0.41798500  0.06151400  0.40349700  1
  C  244  1  0.41075200  0.07345200  0.39663000  1
  C  245  1  0.39756800  0.08987600  0.40814600  1
  C  246  1  0.34017600  0.10887900  0.41838600  1
  C  247  1  0.31679200  0.10302300  0.41276500  1
  C  248  1  0.30466800  0.09240200  0.41936100  1
  C  249  1  0.31706400  0.08679500  0.43061700  1
  C  250  1  0.34046300  0.09261600  0.43607200  1
  C  271  1  0.04138800  0.55884200  0.83197800  1
  C  272  1  0.06280100  0.55170300  0.83447900  1
  C  273  1  0.06769400  0.55208200  0.85148000  1
  C  274  1  0.05170600  0.55986400  0.86693900  1
  C  275  1  0.02956900  0.56579500  0.86362600  1
  C  276  1  0.02459000  0.56556500  0.84666300  1
  C  277  1  0.05778300  0.55958100  0.88501100  1
  C  278  1  0.05497700  0.53851400  0.87815300  1
  C  279  1  0.03220900  0.53033300  0.87571300  1
  C  280  1  0.02911800  0.51135500  0.87073800  1
  C  281  1  0.04881900  0.49948200  0.86707400  1
  C  282  1  0.07138500  0.50682000  0.86750500  1
  C  283  1  0.07431700  0.52580900  0.87258900  1
  C  284  1  0.08239300  0.56733200  0.89267700  1
  C  285  1  0.04252500  0.57215600  0.90224000  1
  C  286  1  0.03536200  0.56650200  0.91530900  1
  C  287  1  0.02245200  0.57841000  0.93163000  1
  C  288  1  0.01646000  0.59686000  0.93596400  1
  C  289  1  0.02497200  0.60333500  0.92405800  1
  C  290  1  0.03792000  0.59128100  0.90768900  1
  C  291  1  0.09475400  0.57978300  0.88834900  1
  C  292  1  0.11815100  0.58529800  0.89422700  1
  C  293  1  0.12986600  0.57919700  0.90543100  1
  C  294  1  0.11709200  0.56845100  0.91146500  1
  C  295  1  0.09367500  0.56310500  0.90562400  1
  C  316  1  0.04137300  0.16567300  0.71222700  1
  C  317  1  0.06277800  0.16318600  0.70258400  1
  C  318  1  0.06768200  0.14618900  0.68596100  1
  C  319  1  0.05171700  0.13071300  0.67829100  1
  C  320  1  0.02957400  0.13402100  0.68752600  1
  C  321  1  0.02458300  0.15098100  0.70425700  1
  C  322  1  0.05780400  0.11265500  0.65992700  1
  C  323  1  0.05499900  0.11952300  0.64572600  1
  C  324  1  0.03222500  0.12199100  0.64001100  1
  C  325  1  0.02913000  0.12696200  0.62600600  1
  C  326  1  0.04882400  0.13064100  0.61780300  1
  C  327  1  0.07139500  0.13019000  0.62469300  1
  C  328  1  0.07433700  0.12508000  0.63857700  1
  C  329  1  0.08241800  0.10499300  0.66001300  1
  C  330  1  0.04254300  0.09542400  0.65525400  1
  C  331  1  0.03538000  0.08235700  0.63653100  1
  C  332  1  0.02246300  0.06603900  0.63211300  1
  C  333  1  0.01646500  0.06170000  0.64622400  1
  C  334  1  0.02501300  0.07358400  0.66459900  1
  C  335  1  0.03796600  0.08995100  0.66891700  1
  C  336  1  0.09478200  0.10932500  0.67679200  1
  C  337  1  0.11819000  0.10346700  0.67642900  1
  C  338  1  0.12990500  0.09227400  0.65912300  1
  C  339  1  0.11712000  0.08621100  0.64234200  1
  C  340  1  0.09369800  0.09204300  0.64284000  1
  C  361  1  0.04137800  0.28543400  0.43881000  1
  C  362  1  0.06278900  0.29507200  0.44596000  1
  C  363  1  0.06769400  0.31169400  0.44558500  1
  C  364  1  0.05171900  0.31937700  0.43779900  1
  C  365  1  0.02958000  0.31013700  0.43186100  1
  C  366  1  0.02458600  0.29340500  0.43209000  1
  C  367  1  0.05780800  0.33773300  0.43809000  1
  C  368  1  0.05499700  0.35193400  0.45915700  1
  C  369  1  0.03222700  0.35767800  0.46733600  1
  C  370  1  0.02913000  0.37167400  0.48631600  1
  C  371  1  0.04882800  0.37987300  0.49819700  1
  C  372  1  0.07139700  0.37297500  0.49085600  1
  C  373  1  0.07433700  0.35908400  0.47186400  1
  C  374  1  0.08242100  0.33764700  0.43034200  1
  C  375  1  0.04255900  0.34240100  0.42551900  1
  C  376  1  0.03538500  0.36112300  0.43117900  1
  C  377  1  0.02247000  0.36553400  0.41927200  1
  C  378  1  0.01648600  0.35141700  0.40081900  1
  C  379  1  0.02501100  0.33303600  0.39434000  1
  C  380  1  0.03796200  0.32872400  0.40639400  1
  C  381  1  0.09478700  0.32086600  0.41790400  1
  C  382  1  0.11818600  0.32122500  0.41238900  1
  C  383  1  0.12992400  0.33853100  0.41854100  1
  C  384  1  0.11713700  0.35531200  0.42924700  1
  C  385  1  0.09370700  0.35481900  0.43456900  1
  C  406  1  0.54142900  0.44777600  0.15669000  1
  C  407  1  0.56283300  0.45492900  0.15419500  1
  C  408  1  0.56771900  0.45456300  0.13720000  1
  C  409  1  0.55173600  0.44677500  0.12173700  1
  C  410  1  0.52959900  0.44084200  0.12505000  1
  C  411  1  0.52462400  0.44106600  0.14200900  1
  C  412  1  0.55781200  0.44706000  0.10366600  1
  C  413  1  0.55500400  0.46812800  0.11052700  1
  C  414  1  0.53223100  0.47631000  0.11298700  1
  C  415  1  0.52913400  0.49528500  0.11795600  1
  C  416  1  0.54883200  0.50716300  0.12162000  1
  C  417  1  0.57140100  0.49982800  0.12119100  1
  C  418  1  0.57434200  0.48083400  0.11608200  1
  C  419  1  0.58242300  0.43931100  0.09600300  1
  C  420  1  0.54255400  0.43448700  0.08643700  1
  C  421  1  0.53538200  0.44014700  0.07337500  1
  C  422  1  0.52245900  0.42824500  0.05705900  1
  C  423  1  0.51647600  0.40979200  0.05271900  1
  C  424  1  0.52499900  0.40331200  0.06462000  1
  C  425  1  0.53795000  0.41536100  0.08098500  1
  C  426  1  0.59477700  0.42685000  0.10032200  1
  C  427  1  0.61817900  0.42134300  0.09445600  1
  C  428  1  0.62991100  0.42748000  0.08328600  1
  C  429  1  0.61713100  0.43820400  0.07722900  1
  C  430  1  0.59370700  0.44353700  0.08305500  1
  C  451  1  0.54136600  0.84095700  0.27645500  1
  C  452  1  0.56278700  0.84346000  0.28608200  1
  C  453  1  0.56768700  0.86045900  0.30270200  1
  C  454  1  0.55170300  0.87592400  0.31038800  1
  C  455  1  0.52954800  0.87259800  0.30116600  1
  C  456  1  0.52455900  0.85563600  0.28443700  1
  C  457  1  0.55777800  0.89398700  0.32874700  1
  C  458  1  0.55496400  0.88712300  0.34295000  1
  C  459  1  0.53219500  0.88469900  0.34870200  1
  C  460  1  0.52910100  0.87971400  0.36269700  1
  C  461  1  0.54879800  0.87601300  0.37088100  1
  C  462  1  0.57136400  0.87642900  0.36396200  1
  C  463  1  0.57430000  0.88153700  0.35007600  1
  C  464  1  0.58238800  0.90165600  0.32867100  1
  C  465  1  0.54251700  0.91121500  0.33341000  1
  C  466  1  0.53538600  0.92430300  0.35213400  1
  C  467  1  0.52246500  0.94062000  0.35654700  1
  C  468  1  0.51647200  0.94494900  0.34242800  1
  C  469  1  0.52497300  0.93303400  0.32404300  1
  C  470  1  0.53791300  0.91666400  0.31973200  1
  C  471  1  0.59474300  0.89734400  0.31189300  1
  C  472  1  0.61814100  0.90322400  0.31225600  1
  C  473  1  0.62987200  0.91438200  0.32956200  1
  C  474  1  0.61710100  0.92041800  0.34634400  1
  C  475  1  0.59367700  0.91458700  0.34584700  1
  C  496  1  0.54141000  0.72120600  0.54987800  1
  C  497  1  0.56281600  0.71156200  0.54273100  1
  C  498  1  0.56770600  0.69493600  0.54310300  1
  C  499  1  0.55172400  0.68726000  0.55089100  1
  C  500  1  0.52959000  0.69650800  0.55682900  1
  C  501  1  0.52461300  0.71324400  0.55660400  1
  C  502  1  0.55780100  0.66890300  0.55060200  1
  C  503  1  0.55499700  0.65470000  0.52953300  1
  C  504  1  0.53222900  0.64897100  0.52134700  1
  C  505  1  0.52913600  0.63497900  0.50236800  1
  C  506  1  0.54883500  0.62677100  0.49049100  1
  C  507  1  0.57140600  0.63365200  0.49784100  1
  C  508  1  0.57434200  0.64754200  0.51683400  1
  C  509  1  0.58240900  0.66898800  0.55835900  1
  C  510  1  0.54253600  0.66424300  0.56317000  1
  C  511  1  0.53536600  0.64551900  0.55750700  1
  C  512  1  0.52243500  0.64110300  0.56940300  1
  C  513  1  0.51644200  0.65521400  0.58785500  1
  C  514  1  0.52497800  0.67359300  0.59434300  1
  C  515  1  0.53793400  0.67791200  0.58229800  1
  C  516  1  0.59476800  0.68576800  0.57080800  1
  C  517  1  0.61817600  0.68540500  0.57630600  1
  C  518  1  0.62989700  0.66810000  0.57019300  1
  C  519  1  0.61712000  0.65132100  0.55945000  1
  C  520  1  0.59367700  0.65181400  0.55414900  1
  C  541  1  0.04293600  0.28386500  0.83286400  1
  C  542  1  0.06628200  0.28995800  0.83826000  1
  C  543  1  0.07108000  0.30697400  0.85488100  1
  C  544  1  0.05295800  0.31826400  0.86750500  1
  C  545  1  0.02948400  0.31232600  0.86126800  1
  C  546  1  0.02449300  0.29535900  0.84453200  1
  C  547  1  0.05804800  0.33719600  0.88525100  1
  C  548  1  0.05295100  0.35090100  0.87808100  1
  C  549  1  0.03158000  0.36126600  0.88194900  1
  C  550  1  0.02822600  0.37502100  0.87669400  1
  C  551  1  0.04576500  0.37852600  0.86668000  1
  C  552  1  0.06590700  0.36682100  0.86074300  1
  C  553  1  0.06906500  0.35303300  0.86598500  1
  C  554  1  0.08312500  0.33847700  0.89279200  1
  C  555  1  0.04370800  0.34162800  0.90284000  1
  C  556  1  0.04355500  0.36031000  0.91848700  1
  C  557  1  0.03048900  0.36533300  0.93487800  1
  C  558  1  0.01748400  0.35172400  0.93670500  1
  C  559  1  0.01851100  0.33282700  0.92190400  1
  C  560  1  0.03165900  0.32790000  0.90545800  1
  C  561  1  0.09250300  0.32363500  0.89506600  1
  C  562  1  0.11606600  0.32370100  0.90048000  1
  C  563  1  0.13078600  0.33926300  0.90515700  1
  C  564  1  0.12112400  0.35494700  0.90478800  1
  C  565  1  0.09769400  0.35463500  0.89906600  1
  C  586  1  0.04294800  0.56128000  0.71377500  1
  C  587  1  0.06629600  0.56062800  0.70770500  1
  C  588  1  0.07109600  0.56024400  0.69069300  1
  C  589  1  0.05297300  0.56154700  0.67938500  1
  C  590  1  0.02950000  0.56118200  0.68529300  1
  C  591  1  0.02450500  0.56140400  0.70225500  1
  C  592  1  0.05804800  0.56036200  0.66045200  1
  C  593  1  0.05295100  0.53948800  0.64673500  1
  C  594  1  0.03160300  0.53299600  0.63633700  1
  C  595  1  0.02825800  0.51398700  0.62257400  1
  C  596  1  0.04578800  0.50046700  0.61909200  1
  C  597  1  0.06589300  0.50622800  0.63083600  1
  C  598  1  0.06903700  0.52525800  0.64463800  1
  C  599  1  0.08312500  0.56661800  0.65916800  1
  C  600  1  0.04370300  0.57352400  0.65603000  1
  C  601  1  0.04357800  0.57051700  0.63735700  1
  C  602  1  0.03050300  0.58188400  0.63234000  1
  C  603  1  0.01744500  0.59728700  0.64594400  1
  C  604  1  0.01843200  0.60135100  0.66483200  1
  C  605  1  0.03159600  0.58983500  0.66975400  1
  C  606  1  0.09248000  0.58375900  0.67399300  1
  C  607  1  0.11603400  0.58912000  0.67392300  1
  C  608  1  0.13076300  0.57824000  0.65836500  1
  C  609  1  0.12113000  0.56215200  0.64270500  1
  C  610  1  0.09770600  0.55672500  0.64301900  1
  C  631  1  0.04293100  0.16479200  0.43636200  1
  C  632  1  0.06628000  0.15938500  0.43702800  1
  C  633  1  0.07108500  0.14276200  0.43742100  1
  C  634  1  0.05296100  0.13016100  0.43613500  1
  C  635  1  0.02948400  0.13641400  0.43647400  1
  C  636  1  0.02449000  0.15314600  0.43623700  1
  C  637  1  0.05803900  0.11240600  0.43731000  1
  C  638  1  0.05293500  0.11956000  0.45818200  1
  C  639  1  0.03159400  0.11563600  0.46466700  1
  C  640  1  0.02824400  0.12088000  0.48367300  1
  C  641  1  0.04577400  0.13091000  0.49719700  1
  C  642  1  0.06588200  0.13689500  0.49144000  1
  C  643  1  0.06901600  0.13169900  0.47241800  1
  C  644  1  0.08311800  0.10486800  0.43105400  1
  C  645  1  0.04370100  0.09482000  0.42414000  1
  C  646  1  0.04359500  0.07914800  0.42713800  1
  C  647  1  0.03051700  0.06276500  0.41577100  1
  C  648  1  0.01748200  0.06095700  0.40035500  1
  C  649  1  0.01846000  0.07578500  0.39629800  1
  C  650  1  0.03161000  0.09222900  0.40782200  1
  C  651  1  0.09248500  0.10256700  0.41392400  1
  C  652  1  0.11603900  0.09713600  0.40856400  1
  C  653  1  0.13077200  0.09247000  0.41945200  1
  C  654  1  0.12113300  0.09289700  0.43553900  1
  C  655  1  0.09770600  0.09862800  0.44095900  1
  C  676  1  0.54292900  0.72275800  0.15582600  1
  C  677  1  0.56627500  0.71666400  0.15043100  1
  C  678  1  0.57107300  0.69965100  0.13380500  1
  C  679  1  0.55295100  0.68836500  0.12117800  1
  C  680  1  0.52947800  0.69430300  0.12741600  1
  C  681  1  0.52448600  0.71126600  0.14415500  1
  C  682  1  0.55804300  0.66943500  0.10343000  1
  C  683  1  0.55295100  0.65572600  0.11059700  1
  C  684  1  0.53157900  0.64536400  0.10673200  1
  C  685  1  0.52824200  0.63159000  0.11196200  1
  C  686  1  0.54578600  0.62807900  0.12197000  1
  C  687  1  0.56592500  0.63978800  0.12790900  1
  C  688  1  0.56906700  0.65359700  0.12269200  1
  C  689  1  0.58311600  0.66815800  0.09588800  1
  C  690  1  0.54370300  0.66500400  0.08584100  1
  C  691  1  0.54354400  0.64632000  0.07019400  1
  C  692  1  0.53047500  0.64130100  0.05380500  1
  C  693  1  0.51747900  0.65491300  0.05197700  1
  C  694  1  0.51850400  0.67380700  0.06678100  1
  C  695  1  0.53165100  0.67873200  0.08322700  1
  C  696  1  0.59249400  0.68300500  0.09362200  1
  C  697  1  0.61605400  0.68294100  0.08820500  1
  C  698  1  0.63077400  0.66737600  0.08351700  1
  C  699  1  0.62111400  0.65168800  0.08387900  1
  C  700  1  0.59768500  0.65199900  0.08960600  1
  C  721  1  0.54296600  0.44534200  0.27490000  1
  C  722  1  0.56631400  0.44598300  0.28096300  1
  C  723  1  0.57111300  0.44638000  0.29798100  1
  C  724  1  0.55298400  0.44511000  0.30930300  1
  C  725  1  0.52951100  0.44546600  0.30339200  1
  C  726  1  0.52452000  0.44523300  0.28642500  1
  C  727  1  0.55805500  0.44628600  0.32823500  1
  C  728  1  0.55294900  0.46715800  0.34195100  1
  C  729  1  0.53161400  0.47364400  0.35236900  1
  C  730  1  0.52826900  0.49265000  0.36613200  1
  C  731  1  0.54578400  0.50617800  0.36960300  1
  C  732  1  0.56589100  0.50041700  0.35786200  1
  C  733  1  0.56903000  0.48139200  0.34404700  1
  C  734  1  0.58313400  0.44003100  0.32952200  1
  C  735  1  0.54371900  0.43311400  0.33264900  1
  C  736  1  0.54359900  0.43611600  0.35132100  1
  C  737  1  0.53050900  0.42475400  0.35633600  1
  C  738  1  0.51744500  0.40935800  0.34273300  1
  C  739  1  0.51842500  0.40530100  0.32384700  1
  C  740  1  0.53158900  0.41681700  0.31892600  1
  C  741  1  0.59249100  0.42289100  0.31470100  1
  C  742  1  0.61604800  0.41753400  0.31476800  1
  C  743  1  0.63078500  0.42842900  0.33031800  1
  C  744  1  0.62114900  0.44451800  0.34597700  1
  C  745  1  0.59772400  0.44993900  0.34566300  1
  C  766  1  0.54293100  0.84183800  0.55229900  1
  C  767  1  0.56627900  0.84724200  0.55161800  1
  C  768  1  0.57107600  0.86386800  0.55123200  1
  C  769  1  0.55295400  0.87648200  0.55254800  1
  C  770  1  0.52947800  0.87024000  0.55223900  1
  C  771  1  0.52448800  0.85350300  0.55246600  1
  C  772  1  0.55802900  0.89423400  0.55137000  1
  C  773  1  0.55293100  0.88707000  0.53049500  1
  C  774  1  0.53157000  0.89095200  0.52400100  1
  C  775  1  0.52822300  0.88570600  0.50499200  1
  C  776  1  0.54575400  0.87567600  0.49147100  1
  C  777  1  0.56588400  0.86972500  0.49723600  1
  C  778  1  0.56904200  0.87496800  0.51626800  1
  C  779  1  0.58310400  0.90177800  0.55763100  1
  C  780  1  0.54368700  0.91182100  0.56453300  1
  C  781  1  0.54355100  0.92747900  0.56151300  1
  C  782  1  0.53047700  0.94386300  0.57287900  1
  C  783  1  0.51747000  0.94568600  0.58831300  1
  C  784  1  0.51848000  0.93087300  0.59239200  1
  C  785  1  0.53162800  0.91442800  0.58087000  1
  C  786  1  0.59248400  0.90405400  0.57474800  1
  C  787  1  0.61604100  0.90948000  0.58010400  1
  C  788  1  0.63077100  0.91413400  0.56920500  1
  C  789  1  0.62111200  0.91376000  0.55315000  1
  C  790  1  0.59767800  0.90804500  0.54774400  1
  C  811  1  0.89111200  0.44490900  0.15600200  1
  C  812  1  0.86781100  0.44579700  0.15062800  1
  C  813  1  0.86312000  0.44601600  0.13390000  1
  C  814  1  0.88129800  0.44430800  0.12117300  1
  C  815  1  0.90474200  0.44442300  0.12737600  1
  C  816  1  0.90962200  0.44437100  0.14421300  1
  C  817  1  0.87639200  0.44519400  0.10324800  1
  C  818  1  0.88138100  0.46604400  0.11024400  1
  C  819  1  0.90284300  0.47260200  0.10659600  1
  C  820  1  0.90614200  0.49161700  0.11182300  1
  C  821  1  0.88844500  0.50508100  0.12159400  1
  C  822  1  0.86812900  0.49923600  0.12725800  1
  C  823  1  0.86500700  0.48021100  0.12203100  1
  C  824  1  0.85140400  0.43889000  0.09552600  1
  C  825  1  0.89095000  0.43177100  0.08592800  1
  C  826  1  0.89210900  0.43460300  0.07017500  1
  C  827  1  0.90503500  0.42263400  0.05388900  1
  C  828  1  0.91694200  0.40682100  0.05235500  1
  C  829  1  0.91441700  0.40278400  0.06707700  1
  C  830  1  0.90159900  0.41498100  0.08347000  1
  C  831  1  0.84161300  0.42211700  0.09379400  1
  C  832  1  0.81807800  0.41684300  0.08822200  1
  C  833  1  0.80379400  0.42744800  0.08289400  1
  C  834  1  0.81392300  0.44306400  0.08266400  1
  C  835  1  0.83734400  0.44838600  0.08850600  1
  C  856  1  0.89112000  0.84166600  0.27425300  1
  C  857  1  0.86782200  0.84704900  0.28051900  1
  C  858  1  0.86313700  0.86377900  0.29746600  1
  C  859  1  0.88132900  0.87648300  0.30849500  1
  C  860  1  0.90477000  0.87027800  0.30240100  1
  C  861  1  0.90963900  0.85344200  0.28550700  1
  C  862  1  0.87643400  0.89441200  0.32730400  1
  C  863  1  0.88143000  0.88741300  0.34115500  1
  C  864  1  0.90288000  0.89108600  0.35138200  1
  C  865  1  0.90617300  0.88586600  0.36517600  1
  C  866  1  0.88848000  0.87608300  0.36885700  1
  C  867  1  0.86817300  0.87040700  0.35733700  1
  C  868  1  0.86506400  0.87561700  0.34352600  1
  C  869  1  0.85144900  0.90214600  0.32873400  1
  C  870  1  0.89100000  0.91172700  0.33119100  1
  C  871  1  0.89214300  0.92748800  0.34977400  1
  C  872  1  0.90506000  0.94377600  0.35408700  1
  C  873  1  0.91696400  0.94530800  0.33980400  1
  C  874  1  0.91445400  0.93057800  0.32104900  1
  C  875  1  0.90164900  0.91418000  0.31685700  1
  C  876  1  0.84166400  0.90389900  0.31370300  1
  C  877  1  0.81810800  0.90942400  0.31399000  1
  C  878  1  0.80381900  0.91473700  0.32991700  1
  C  879  1  0.81394600  0.91493800  0.34575000  1
  C  880  1  0.83738600  0.90914500  0.34524600  1
  C  901  1  0.89111400  0.72338900  0.55274500  1
  C  902  1  0.86781700  0.71710500  0.55182100  1
  C  903  1  0.86313100  0.70015700  0.55160300  1
  C  904  1  0.88131200  0.68915800  0.55334100  1
  C  905  1  0.90475300  0.69527400  0.55327800  1
  C  906  1  0.90962600  0.71216600  0.55333400  1
  C  907  1  0.87639500  0.67035300  0.55246200  1
  C  908  1  0.88137800  0.65650600  0.53160900  1
  C  909  1  0.90286100  0.64633100  0.52504600  1
  C  910  1  0.90616300  0.63254600  0.50602900  1
  C  911  1  0.88845000  0.62882800  0.49257000  1
  C  912  1  0.86810300  0.64030200  0.49842300  1
  C  913  1  0.86497000  0.65408500  0.51745000  1
  C  914  1  0.85141300  0.66893700  0.55877800  1
  C  915  1  0.89096000  0.66645500  0.56588200  1
  C  916  1  0.89214900  0.64786100  0.56302700  1
  C  917  1  0.90506600  0.64354400  0.57499900  1
  C  918  1  0.91692800  0.65782900  0.59083900  1
  C  919  1  0.91436200  0.67659300  0.59490000  1
  C  920  1  0.90155700  0.68078900  0.58269600  1
  C  921  1  0.84160200  0.68399700  0.57552800  1
  C  922  1  0.81806000  0.68369900  0.58079100  1
  C  923  1  0.80379600  0.66774900  0.57020600  1
  C  924  1  0.81394500  0.65189100  0.55461500  1
  C  925  1  0.83736900  0.65241100  0.54930000  1
  C  946  1  0.39111700  0.56172800  0.83267800  1
  C  947  1  0.36781900  0.56083700  0.83805500  1
  C  948  1  0.36313400  0.56062200  0.85478700  1
  C  949  1  0.38131600  0.56233100  0.86751100  1
  C  950  1  0.40475700  0.56221000  0.86130100  1
  C  951  1  0.40963100  0.56226500  0.84446300  1
  C  952  1  0.37641600  0.56144600  0.88543600  1
  C  953  1  0.38140800  0.54059700  0.87844100  1
  C  954  1  0.40286600  0.53404100  0.88209600  1
  C  955  1  0.40616400  0.51502700  0.87687400  1
  C  956  1  0.38846500  0.50156300  0.86710400  1
  C  957  1  0.36815500  0.50740500  0.86142900  1
  C  958  1  0.36503400  0.52643000  0.86665600  1
  C  959  1  0.35142900  0.56775100  0.89316400  1
  C  960  1  0.39097600  0.57487200  0.90275400  1
  C  961  1  0.39213600  0.57204500  0.91851200  1
  C  962  1  0.40505200  0.58402200  0.93479900  1
  C  963  1  0.41694500  0.59984100  0.93633500  1
  C  964  1  0.41443700  0.60386400  0.92160200  1
  C  965  1  0.40162400  0.59166100  0.90521000  1
  C  966  1  0.34163500  0.58452300  0.89489600  1
  C  967  1  0.31809100  0.58978400  0.90045300  1
  C  968  1  0.30381700  0.57918700  0.90579700  1
  C  969  1  0.31394800  0.56356500  0.90601400  1
  C  970  1  0.33737300  0.55825200  0.90018300  1
  C  991  1  0.39110700  0.16496400  0.71441500  1
  C  992  1  0.36780800  0.15959300  0.70814500  1
  C  993  1  0.36311800  0.14286700  0.69119500  1
  C  994  1  0.38130400  0.13015300  0.68017200  1
  C  995  1  0.40474900  0.13635000  0.68626400  1
  C  996  1  0.40962200  0.15318200  0.70316300  1
  C  997  1  0.37640000  0.11222000  0.66136700  1
  C  998  1  0.38139400  0.11921200  0.64751000  1
  C  999  1  0.40285000  0.11554700  0.63729400  1
  C  1000  1  0.40615300  0.12076700  0.62350200  1
  C  1001  1  0.38845100  0.13052500  0.61979600  1
  C  1002  1  0.36813400  0.13619400  0.63130300  1
  C  1003  1  0.36502200  0.13099500  0.64512200  1
  C  1004  1  0.35141500  0.10449200  0.65994900  1
  C  1005  1  0.39096200  0.09490500  0.65748200  1
  C  1006  1  0.39210400  0.07914200  0.63889800  1
  C  1007  1  0.40503100  0.06285800  0.63458600  1
  C  1008  1  0.41693100  0.06132500  0.64886900  1
  C  1009  1  0.41441900  0.07605700  0.66762500  1
  C  1010  1  0.40160800  0.09245000  0.67181500  1
  C  1011  1  0.34162300  0.10276700  0.67499400  1
  C  1012  1  0.31808600  0.09719600  0.67469600  1
  C  1013  1  0.30380600  0.09184900  0.65875700  1
  C  1014  1  0.31392800  0.09164300  0.64292100  1
  C  1015  1  0.33734900  0.09748400  0.64343800  1
  C  1036  1  0.39111900  0.28324600  0.43592900  1
  C  1037  1  0.36782100  0.28953000  0.43685300  1
  C  1038  1  0.36313600  0.30648000  0.43707500  1
  C  1039  1  0.38131800  0.31748100  0.43534300  1
  C  1040  1  0.40475900  0.31136800  0.43541100  1
  C  1041  1  0.40963300  0.29447400  0.43535200  1
  C  1042  1  0.37640000  0.33628800  0.43622500  1
  C  1043  1  0.38137800  0.35013600  0.45708000  1
  C  1044  1  0.40285700  0.36031400  0.46364800  1
  C  1045  1  0.40614300  0.37411200  0.48265900  1
  C  1046  1  0.38843000  0.37782500  0.49611700  1
  C  1047  1  0.36808800  0.36634300  0.49026000  1
  C  1048  1  0.36497400  0.35254400  0.47123700  1
  C  1049  1  0.35142000  0.33770200  0.42990700  1
  C  1050  1  0.39096400  0.34019400  0.42281100  1
  C  1051  1  0.39215600  0.35878800  0.42566700  1
  C  1052  1  0.40506900  0.36310500  0.41369400  1
  C  1053  1  0.41693500  0.34882200  0.39785400  1
  C  1054  1  0.41437200  0.33006000  0.39379700  1
  C  1055  1  0.40157100  0.32586300  0.40600000  1
  C  1056  1  0.34162100  0.32264700  0.41314900  1
  C  1057  1  0.31807400  0.32293700  0.40789100  1
  C  1058  1  0.30380600  0.33888500  0.41847300  1
  C  1059  1  0.31395100  0.35474500  0.43406500  1
  C  1060  1  0.33737300  0.35422700  0.43938500  1
  C  1081  1  0.90825500  0.76671600  0.19508100  1
  C  1082  1  0.90202900  0.78475800  0.19809200  1
  C  1083  1  0.90253800  0.80079900  0.21655500  1
  C  1084  1  0.90940100  0.79898500  0.23221800  1
  C  1085  1  0.91563500  0.78090800  0.22900100  1
  C  1086  1  0.91494800  0.76503300  0.21078100  1
  C  1088  1  0.89008800  0.82017700  0.20392500  1
  C  1089  1  0.88942900  0.80434900  0.18577000  1
  C  1095  1  0.90886500  0.75115100  0.17709900  1
  C  1097  1  0.91116700  0.81436400  0.25031300  1
  C  1099  1  0.90824400  0.44066800  0.23093900  1
  C  1100  1  0.90201700  0.42563700  0.21289700  1
  C  1101  1  0.90252900  0.42805900  0.19685600  1
  C  1102  1  0.90939900  0.44553400  0.19866900  1
  C  1103  1  0.91563600  0.46039400  0.21674700  1
  C  1104  1  0.91493300  0.45805200  0.23262400  1
  C  1106  1  0.89007400  0.39605200  0.17747800  1
  C  1107  1  0.88941200  0.39372500  0.19330500  1
  C  1113  1  0.90885300  0.43824700  0.24650200  1
  C  1115  1  0.91117300  0.44824500  0.18328700  1
  C  1117  1  0.90827800  0.80255500  0.55696600  1
  C  1118  1  0.90203300  0.79954900  0.57199700  1
  C  1119  1  0.90253700  0.78108700  0.56957900  1
  C  1120  1  0.90942200  0.76542300  0.55211100  1
  C  1121  1  0.91566800  0.76863500  0.53725000  1
  C  1122  1  0.91498500  0.78685200  0.53958900  1
  C  1124  1  0.89005700  0.79372500  0.60158200  1
  C  1125  1  0.88939800  0.81187700  0.60390200  1
  C  1131  1  0.90890100  0.82053500  0.55937900  1
  C  1133  1  0.91117700  0.74733000  0.54940200  1
  C  1135  1  0.40822300  0.23991100  0.79358700  1
  C  1136  1  0.40200400  0.22186800  0.79057900  1
  C  1137  1  0.40252100  0.20582400  0.77211800  1
  C  1138  1  0.40939300  0.20763500  0.75645300  1
  C  1139  1  0.41561100  0.22571600  0.75966900  1
  C  1140  1  0.41490400  0.24159300  0.77788600  1
  C  1142  1  0.39007600  0.18644800  0.78475000  1
  C  1143  1  0.38940800  0.20227700  0.80290300  1
  C  1149  1  0.40882700  0.25547600  0.81156900  1
  C  1151  1  0.41116200  0.19225300  0.73836200  1
  C  1153  1  0.40825800  0.56595300  0.75773200  1
  C  1154  1  0.40202900  0.58098400  0.77577300  1
  C  1155  1  0.40253800  0.57856200  0.79181400  1
  C  1156  1  0.40940300  0.56108500  0.79000100  1
  C  1157  1  0.41563900  0.54622600  0.77192300  1
  C  1158  1  0.41495400  0.54857000  0.75604800  1
  C  1160  1  0.39008300  0.61056900  0.81119000  1
  C  1161  1  0.38942500  0.61289600  0.79536300  1
  C  1167  1  0.40886900  0.56837000  0.74216600  1
  C  1169  1  0.41117100  0.55837200  0.80538100  1
  C  1171  1  0.40826100  0.20407200  0.43169700  1
  C  1172  1  0.40202700  0.20707900  0.41666400  1
  C  1173  1  0.40253500  0.22554000  0.41908200  1
  C  1174  1  0.40940700  0.24120500  0.43655400  1
  C  1175  1  0.41565100  0.23799100  0.45141400  1
  C  1176  1  0.41495900  0.21977300  0.44907600  1
  C  1178  1  0.39007000  0.21290400  0.38707600  1
  C  1179  1  0.38941300  0.19475100  0.38475200  1
  C  1185  1  0.40887600  0.18609100  0.42928100  1
  C  1187  1  0.41117800  0.25929600  0.43926000  1
  C  1189  1  0.02603200  0.56597400  0.79317800  1
  C  1190  1  0.03224300  0.58092500  0.79003700  1
  C  1191  1  0.03162900  0.57839800  0.77153500  1
  C  1192  1  0.02465900  0.56089600  0.75595500  1
  C  1193  1  0.01844800  0.54611500  0.75930200  1
  C  1194  1  0.01923900  0.54856400  0.77756300  1
  C  1196  1  0.04416300  0.61036100  0.78396300  1
  C  1197  1  0.04492600  0.61279000  0.80215500  1
  C  1203  1  0.02547500  0.56852800  0.81121600  1
  C  1205  1  0.02284900  0.55806500  0.73781500  1
  C  1207  1  0.02601200  0.20446000  0.75815900  1
  C  1208  1  0.03224500  0.20759400  0.77624400  1
  C  1209  1  0.03163100  0.22609500  0.79222600  1
  C  1210  1  0.02464800  0.24167700  0.79031200  1
  C  1211  1  0.01841900  0.23833600  0.77218900  1
  C  1212  1  0.01920900  0.22007800  0.75637200  1
  C  1214  1  0.04420100  0.21365800  0.81174300  1
  C  1215  1  0.04495900  0.19546800  0.79597700  1
  C  1221  1  0.02544300  0.18642400  0.74266800  1
  C  1223  1  0.02282900  0.25981200  0.80562900  1
  C  1225  1  0.02601200  0.23949900  0.43166100  1
  C  1226  1  0.03222900  0.22141000  0.41670900  1
  C  1227  1  0.03161500  0.20543100  0.41923100  1
  C  1228  1  0.02465000  0.20735000  0.43673300  1
  C  1229  1  0.01842800  0.22547500  0.45151300  1
  C  1230  1  0.01921600  0.24129000  0.44906800  1
  C  1232  1  0.04415700  0.18590300  0.38727000  1
  C  1233  1  0.04491500  0.20166800  0.38484200  1
  C  1239  1  0.02545200  0.25498600  0.42911200  1
  C  1241  1  0.02282800  0.19203500  0.43955400  1
  C  1243  1  0.52606700  0.44065000  0.19549300  1
  C  1244  1  0.53227300  0.42569500  0.19863000  1
  C  1245  1  0.53165800  0.42822000  0.21713200  1
  C  1246  1  0.52469800  0.44572500  0.23271500  1
  C  1247  1  0.51848500  0.46050700  0.22936900  1
  C  1248  1  0.51928300  0.45806100  0.21111000  1
  C  1250  1  0.54418100  0.39625500  0.20470000  1
  C  1251  1  0.54494000  0.39382600  0.18650900  1
  C  1257  1  0.52550900  0.43809700  0.17745500  1
  C  1259  1  0.52287200  0.44854800  0.25085100  1
  C  1261  1  0.52599300  0.80216000  0.23053500  1
  C  1262  1  0.53222700  0.79902500  0.21244900  1
  C  1263  1  0.53161900  0.78052500  0.19646900  1
  C  1264  1  0.52463300  0.76494300  0.19838000  1
  C  1265  1  0.51839900  0.76828400  0.21650200  1
  C  1266  1  0.51918300  0.78654200  0.23231800  1
  C  1268  1  0.54419100  0.79296300  0.17695200  1
  C  1269  1  0.54494700  0.81115300  0.19271900  1
  C  1275  1  0.52541700  0.82019400  0.24602300  1
  C  1277  1  0.52282100  0.74680600  0.18306500  1
  C  1279  1  0.52605100  0.76714400  0.55702400  1
  C  1280  1  0.53226100  0.78523700  0.57197600  1
  C  1281  1  0.53163500  0.80121300  0.56945100  1
  C  1282  1  0.52465900  0.79929000  0.55195000  1
  C  1283  1  0.51845100  0.78116200  0.53716800  1
  C  1284  1  0.51926400  0.76534800  0.53961300  1
  C  1286  1  0.54417700  0.82074700  0.60141100  1
  C  1287  1  0.54494700  0.80498400  0.60383900  1
  C  1293  1  0.52550100  0.75165800  0.55957500  1
  C  1295  1  0.52283300  0.81460100  0.54912200  1
  C  1297  1  0.74177700  0.67187400  0.07781600  1
  C  1298  1  0.72530100  0.68182900  0.07301500  1
  C  1299  1  0.70100100  0.67670900  0.07041500  1
  C  1300  1  0.69285700  0.66156900  0.07260500  1
  C  1301  1  0.70942300  0.65155200  0.07709000  1
  C  1302  1  0.73333400  0.65666600  0.07974500  1
  C  1304  1  0.69302800  0.70138500  0.06364200  1
  C  1305  1  0.71693100  0.70645800  0.06620500  1
  C  1311  1  0.76521500  0.67759000  0.08189200  1
  C  1313  1  0.66932700  0.65649600  0.07122700  1
  C  1315  1  0.74181400  0.41823400  0.32579600  1
  C  1316  1  0.72532700  0.40348600  0.31584400  1
  C  1317  1  0.70102800  0.40601700  0.32096300  1
  C  1318  1  0.69289000  0.42335500  0.33609700  1
  C  1319  1  0.70946300  0.43785400  0.34610500  1
  C  1320  1  0.73338000  0.43537700  0.34100400  1
  C  1322  1  0.69303800  0.37456600  0.29629700  1
  C  1323  1  0.71694300  0.37204500  0.29122500  1
  C  1329  1  0.76525200  0.41658200  0.32007800  1
  C  1331  1  0.66935900  0.42706200  0.34116700  1
  C  1333  1  0.74180300  0.91988300  0.57944400  1
  C  1334  1  0.72530500  0.92466400  0.59418100  1
  C  1335  1  0.70100100  0.92722800  0.59163300  1
  C  1336  1  0.69287600  0.92501500  0.57429000  1
  C  1337  1  0.70946100  0.92055100  0.55980600  1
  C  1338  1  0.73337900  0.91793700  0.56229500  1
  C  1340  1  0.69299100  0.93400500  0.62307900  1
  C  1341  1  0.71689700  0.93147700  0.62561600  1
  C  1347  1  0.76524600  0.91583700  0.58111300  1
  C  1349  1  0.66935000  0.92635700  0.57056300  1
  C  1351  1  0.24179600  0.33476900  0.91087900  1
  C  1352  1  0.22531300  0.32482800  0.91569200  1
  C  1353  1  0.20101300  0.32994600  0.91827700  1
  C  1354  1  0.19287400  0.34506900  0.91605700  1
  C  1355  1  0.20944700  0.35508100  0.91157200  1
  C  1356  1  0.23336100  0.34997000  0.90893300  1
  C  1358  1  0.19302900  0.30529700  0.92508900  1
  C  1359  1  0.21693200  0.30022600  0.92253900  1
  C  1365  1  0.26523700  0.32905700  0.90682000  1
  C  1367  1  0.16934500  0.35014500  0.91743000  1
  C  1369  1  0.24177300  0.58841100  0.66289900  1
  C  1370  1  0.22530300  0.60317200  0.67284500  1
  C  1371  1  0.20100500  0.60065700  0.66772100  1
  C  1372  1  0.19285500  0.58332500  0.65258700  1
  C  1373  1  0.20941500  0.56881500  0.64258100  1
  C  1374  1  0.23332500  0.57126900  0.64769700  1
  C  1376  1  0.19304200  0.63211700  0.69238300  1
  C  1377  1  0.21694500  0.63462100  0.69745800  1
  C  1383  1  0.26521100  0.59004900  0.66861500  1
  C  1385  1  0.16932400  0.57964400  0.64750800  1
  C  1387  1  0.24178900  0.08677400  0.40927300  1
  C  1388  1  0.22531100  0.08198300  0.39452100  1
  C  1389  1  0.20101000  0.07938600  0.39703900  1
  C  1390  1  0.19286400  0.08157400  0.41436800  1
  C  1391  1  0.20942900  0.08605700  0.42887100  1
  C  1392  1  0.23334700  0.08869000  0.42640600  1
  C  1394  1  0.19303800  0.07262800  0.36559400  1
  C  1395  1  0.21694300  0.07518900  0.36308600  1
  C  1401  1  0.26522500  0.09086200  0.40764200  1
  C  1403  1  0.16932900  0.08021400  0.41806700  1
  C  1405  1  0.19277500  0.58909300  0.91125600  1
  C  1406  1  0.20927100  0.60385700  0.91616400  1
  C  1407  1  0.23354400  0.60130900  0.91880300  1
  C  1408  1  0.24164600  0.58393800  0.91653700  1
  C  1409  1  0.22505400  0.56943200  0.91196500  1
  C  1410  1  0.20116100  0.57192300  0.90928000  1
  C  1412  1  0.24158300  0.63280000  0.92573000  1
  C  1413  1  0.21770300  0.63533600  0.92312800  1
  C  1419  1  0.16939100  0.59075700  0.90709100  1
  C  1421  1  0.26516900  0.58020300  0.91788400  1
  C  1423  1  0.19280500  0.08641100  0.66319300  1
  C  1424  1  0.20927400  0.08148000  0.67304500  1
  C  1425  1  0.23354600  0.07880100  0.66785100  1
  C  1426  1  0.24166900  0.08104800  0.65273900  1
  C  1427  1  0.22510000  0.08563300  0.64280100  1
  C  1428  1  0.20121100  0.08836600  0.64799100  1
  C  1430  1  0.24153900  0.07187500  0.69242200  1
  C  1431  1  0.21766000  0.07451600  0.69756700  1
  C  1437  1  0.16942800  0.09061500  0.66902600  1
  C  1439  1  0.26520000  0.07966300  0.64765800  1
  C  1441  1  0.19282000  0.33444700  0.40859300  1
  C  1442  1  0.20928700  0.32458900  0.39380800  1
  C  1443  1  0.23355600  0.32978700  0.39631600  1
  C  1444  1  0.24168100  0.34490900  0.41366900  1
  C  1445  1  0.22511600  0.35484300  0.42819600  1
  C  1446  1  0.20122700  0.34965400  0.42574500  1
  C  1448  1  0.24154600  0.30520700  0.36482400  1
  C  1449  1  0.21766700  0.30005700  0.36232600  1
  C  1455  1  0.16944300  0.32861300  0.40696500  1
  C  1457  1  0.26520900  0.34999600  0.41735800  1
  C  1459  1  0.69281100  0.41755500  0.07743500  1
  C  1460  1  0.70927800  0.40276800  0.07249900  1
  C  1461  1  0.73354800  0.40528000  0.06981100  1
  C  1462  1  0.74167500  0.42263900  0.07205900  1
  C  1463  1  0.72510900  0.43717100  0.07667100  1
  C  1464  1  0.70121800  0.43471200  0.07939400  1
  C  1466  1  0.74153700  0.37378000  0.06287400  1
  C  1467  1  0.71766100  0.37127800  0.06552300  1
  C  1473  1  0.66943300  0.41591900  0.08163400  1
  C  1475  1  0.76520400  0.42632500  0.07065600  1
  C  1477  1  0.69277700  0.92021400  0.32548800  1
  C  1478  1  0.70927300  0.92511700  0.31562900  1
  C  1479  1  0.73354800  0.92775400  0.32081400  1
  C  1480  1  0.74165000  0.92548800  0.33591900  1
  C  1481  1  0.72505800  0.92092200  0.34585800  1
  C  1482  1  0.70116300  0.91824100  0.34068500  1
  C  1484  1  0.74158700  0.93467500  0.29624600  1
  C  1485  1  0.71770500  0.93207600  0.29111000  1
  C  1491  1  0.66939300  0.91605200  0.31966000  1
  C  1493  1  0.76517400  0.92682900  0.34099700  1
  C  1495  1  0.69280400  0.67217800  0.58010400  1
  C  1496  1  0.70927500  0.68202200  0.59488900  1
  C  1497  1  0.73354600  0.67682700  0.59236700  1
  C  1498  1  0.74166800  0.66172500  0.57500200  1
  C  1499  1  0.72509700  0.65179700  0.56047600  1
  C  1500  1  0.70120800  0.65698600  0.56293800  1
  C  1502  1  0.74154200  0.70137600  0.62387300  1
  C  1503  1  0.71766600  0.70652100  0.62638300  1
  C  1509  1  0.66942100  0.67800500  0.58174800  1
  C  1511  1  0.76519400  0.65663500  0.57130500  1
  C  1513  1  0.95329800  0.64184300  0.01113800  1
  C  1514  1  0.96083300  0.64884500  0.99924600  1
  C  1515  1  0.97227500  0.63685000  0.98171900  1
  C  1516  1  0.97642600  0.61761400  0.97575900  1
  C  1517  1  0.96909100  0.61081500  0.98774300  1
  C  1518  1  0.95795000  0.62264000  0.00501600  1
  C  1520  1  0.97492300  0.66260200  0.97583800  1
  C  1521  1  0.96374400  0.67443700  0.99306800  1
  C  1527  1  0.94172800  0.65327600  0.02827600  1
  C  1529  1  0.98638700  0.60482500  0.95851500  1
  C  1531  1  0.95329700  0.38158900  0.35583500  1
  C  1532  1  0.96084000  0.36269800  0.34883100  1
  C  1533  1  0.97228200  0.35716500  0.36082700  1
  C  1534  1  0.97642500  0.37044000  0.38006400  1
  C  1535  1  0.96908000  0.38921900  0.38686400  1
  C  1536  1  0.95794200  0.39466900  0.37504000  1
  C  1538  1  0.97494500  0.32553600  0.33507200  1
  C  1539  1  0.96376700  0.33093000  0.32323700  1
  C  1545  1  0.94173400  0.38729500  0.34440000  1
  C  1547  1  0.98639200  0.36598400  0.39285100  1
  C  1549  1  0.95329900  0.98652400  0.61605300  1
  C  1550  1  0.96086200  0.99841200  0.63493900  1
  C  1551  1  0.97230800  0.01593600  0.64046100  1
  C  1552  1  0.97642600  0.02189800  0.62718400  1
  C  1553  1  0.96907300  0.00991400  0.60840700  1
  C  1554  1  0.95792900  0.99264600  0.60296900  1
  C  1556  1  0.97500800  0.02181300  0.67208900  1
  C  1557  1  0.96383100  0.00458500  0.66670400  1
  C  1563  1  0.94172900  0.96938800  0.61035700  1
  C  1565  1  0.98641700  0.03912800  0.63162000  1
  C  1567  1  0.45330000  0.36480700  0.97755200  1
  C  1568  1  0.46084400  0.35780600  0.98944200  1
  C  1569  1  0.47228600  0.36980200  0.00696900  1
  C  1570  1  0.47642300  0.38904100  0.01293300  1
  C  1571  1  0.46908400  0.39583900  0.00095000  1
  C  1572  1  0.45794500  0.38401300  0.98367700  1
  C  1574  1  0.47496000  0.34404800  0.01284400  1
  C  1575  1  0.46378200  0.33221100  0.99561500  1
  C  1581  1  0.44173100  0.35337300  0.96041500  1
  C  1583  1  0.48639300  0.40183000  0.03017500  1
  C  1585  1  0.45328300  0.62502700  0.63284400  1
  C  1586  1  0.46082100  0.64391900  0.63984400  1
  C  1587  1  0.47226100  0.64945100  0.62784800  1
  C  1588  1  0.47641200  0.63617300  0.60861300  1
  C  1589  1  0.46907300  0.61739100  0.60181500  1
  C  1590  1  0.45793200  0.61194500  0.61364100  1
  C  1592  1  0.47491600  0.68108300  0.65359800  1
  C  1593  1  0.46373600  0.67569100  0.66543500  1
  C  1599  1  0.44171700  0.61932400  0.64428000  1
  C  1601  1  0.48637400  0.64062600  0.59582200  1
  C  1603  1  0.45328800  0.02011000  0.37260400  1
  C  1604  1  0.46082600  0.00821900  0.35371200  1
  C  1605  1  0.47227400  0.99069400  0.34818000  1
  C  1606  1  0.47642400  0.98473600  0.36145800  1
  C  1607  1  0.46908500  0.99671800  0.38023900  1
  C  1608  1  0.45794300  0.01398900  0.38568600  1
  C  1610  1  0.47492500  0.98481400  0.31655000  1
  C  1611  1  0.46374100  0.00204000  0.32194000  1
  C  1617  1  0.44171500  0.03724600  0.37830700  1
  C  1619  1  0.48639100  0.96749300  0.35700300  1
  C  1621  1  0.97932200  0.36261300  0.97664000  1
  C  1622  1  0.97240000  0.35585600  0.98884600  1
  C  1623  1  0.96085500  0.36792300  0.00630300  1
  C  1624  1  0.95592600  0.38698000  0.01184000  1
  C  1625  1  0.96276100  0.39347900  0.99947700  1
  C  1626  1  0.97406500  0.38159900  0.98229700  1
  C  1628  1  0.95945900  0.34252600  0.01281900  1
  C  1629  1  0.97074500  0.33065600  0.99565000  1
  C  1635  1  0.99052600  0.35108200  0.95943600  1
  C  1637  1  0.94511400  0.39979500  0.02875400  1
  C  1639  1  0.97926100  0.62632100  0.63505800  1
  C  1640  1  0.97236100  0.64528800  0.64181600  1
  C  1641  1  0.96083800  0.65068800  0.62974900  1
  C  1642  1  0.95590900  0.63717300  0.61069000  1
  C  1643  1  0.96272800  0.61830700  0.60418700  1
  C  1644  1  0.97400800  0.61299700  0.61606900  1
  C  1646  1  0.95945700  0.68259900  0.65514700  1
  C  1647  1  0.97072500  0.67729200  0.66701700  1
  C  1653  1  0.99045100  0.62063900  0.64658600  1
  C  1655  1  0.94513500  0.64128600  0.59787300  1
  C  1657  1  0.97929600  0.02103800  0.37132100  1
  C  1658  1  0.97240500  0.00882400  0.35235200  1
  C  1659  1  0.96087800  0.99135900  0.34695500  1
  C  1660  1  0.95593200  0.98582600  0.36047500  1
  C  1661  1  0.96274200  0.99819400  0.37934200  1
  C  1662  1  0.97402800  0.01538300  0.38464900  1
  C  1664  1  0.95952300  0.98483400  0.31503900  1
  C  1665  1  0.97079700  0.00200700  0.32034200  1
  C  1671  1  0.99049400  0.03824400  0.37699700  1
  C  1673  1  0.94515200  0.96889700  0.35636500  1
  C  1675  1  0.47932700  0.64403300  0.01203900  1
  C  1676  1  0.47242500  0.65079300  0.99983200  1
  C  1677  1  0.46089000  0.63872700  0.98236700  1
  C  1678  1  0.45594800  0.61967400  0.97683100  1
  C  1679  1  0.46276900  0.61316800  0.98919000  1
  C  1680  1  0.47406400  0.62504700  0.00637800  1
  C  1682  1  0.45952200  0.66412500  0.97585300  1
  C  1683  1  0.47080200  0.67599200  0.99302600  1
  C  1689  1  0.49052600  0.65556000  0.02924500  1
  C  1691  1  0.44515800  0.60685900  0.95990400  1
  C  1693  1  0.47925700  0.38032800  0.35362000  1
  C  1694  1  0.47234800  0.36136300  0.34686400  1
  C  1695  1  0.46081900  0.35597000  0.35893600  1
  C  1696  1  0.45589700  0.36948900  0.37799500  1
  C  1697  1  0.46271700  0.38835200  0.38449200  1
  C  1698  1  0.47400300  0.39365600  0.37260700  1
  C  1700  1  0.45943200  0.32405700  0.33354200  1
  C  1701  1  0.47070200  0.32935800  0.32166800  1
  C  1707  1  0.49045100  0.38600500  0.34208900  1
  C  1709  1  0.44510600  0.36538600  0.39081400  1
  C  1711  1  0.47929600  0.98561200  0.61735500  1
  C  1712  1  0.47239400  0.99782100  0.63632200  1
  C  1713  1  0.46086000  0.01528400  0.64171900  1
  C  1714  1  0.45592300  0.02082200  0.62820100  1
  C  1715  1  0.46274400  0.00845800  0.60933500  1
  C  1716  1  0.47403300  0.99127100  0.60402900  1
  C  1718  1  0.45948700  0.02180100  0.67363200  1
  C  1719  1  0.47076500  0.00462900  0.66832900  1
  C  1725  1  0.49049600  0.96840600  0.61167800  1
  C  1727  1  0.44513300  0.03774700  0.63231000  1
  C  1729  1  0.88536800  0.55311500  0.13013200  1
  C  1730  1  0.87476300  0.57069100  0.14269500  1
  C  1731  1  0.88076800  0.58723000  0.14203600  1
  C  1732  1  0.89741000  0.58641000  0.12873500  1
  C  1733  1  0.90823900  0.56893100  0.11655400  1
  C  1734  1  0.90226100  0.55260700  0.11717500  1
  C  1736  1  0.85382000  0.60510100  0.16729100  1
  C  1737  1  0.84785600  0.58882500  0.16793400  1
  C  1743  1  0.87807000  0.53657700  0.12948300  1
  C  1745  1  0.90281700  0.60179600  0.12667100  1
  C  1747  1  0.88538300  0.58931200  0.44454800  1
  C  1748  1  0.87479800  0.58430600  0.42696600  1
  C  1749  1  0.88080700  0.56710900  0.41042800  1
  C  1750  1  0.89742700  0.55461700  0.41125500  1
  C  1751  1  0.90822500  0.55990300  0.42874300  1
  C  1752  1  0.90225600  0.57685500  0.44506200  1
  C  1754  1  0.85390100  0.57451000  0.39254500  1
  C  1755  1  0.84793300  0.59142800  0.40882000  1
  C  1761  1  0.87807600  0.60520000  0.46108100  1
  C  1763  1  0.90283700  0.53716900  0.39586200  1
  C  1765  1  0.88538100  0.86755100  0.40835500  1
  C  1766  1  0.87476700  0.85498500  0.41336300  1
  C  1767  1  0.88076200  0.85564000  0.43056100  1
  C  1768  1  0.89739500  0.86894400  0.44305100  1
  C  1769  1  0.90822700  0.88113100  0.43776300  1
  C  1770  1  0.90226400  0.88050800  0.42081300  1
  C  1772  1  0.85381600  0.83038000  0.42316100  1
  C  1773  1  0.84786300  0.82974100  0.40624200  1
  C  1779  1  0.87809100  0.86820100  0.39246600  1
  C  1781  1  0.90280800  0.87099100  0.46049400  1
  C  1783  1  0.38536500  0.45354100  0.85859000  1
  C  1784  1  0.37477000  0.43596600  0.84600800  1
  C  1785  1  0.38077900  0.41941900  0.84665200  1
  C  1786  1  0.39740200  0.42023100  0.85995900  1
  C  1787  1  0.40822800  0.43770900  0.87215500  1
  C  1788  1  0.40225500  0.45403900  0.87154300  1
  C  1790  1  0.35385400  0.40155700  0.82137300  1
  C  1791  1  0.34789000  0.41784100  0.82074600  1
  C  1797  1  0.37806800  0.47008400  0.85925300  1
  C  1799  1  0.40282200  0.40482600  0.86199100  1
  C  1801  1  0.38535600  0.41733000  0.54414800  1
  C  1802  1  0.37477500  0.42233300  0.56172900  1
  C  1803  1  0.38078900  0.43953100  0.57826800  1
  C  1804  1  0.39741100  0.45202100  0.57744100  1
  C  1805  1  0.40821200  0.44673200  0.55995300  1
  C  1806  1  0.40222800  0.42978600  0.54363000  1
  C  1808  1  0.35388400  0.43213100  0.59615200  1
  C  1809  1  0.34791500  0.41521300  0.57987800  1
  C  1815  1  0.37805400  0.40143900  0.52761300  1
  C  1817  1  0.40282400  0.46946900  0.59283300  1
  C  1819  1  0.38537500  0.13904400  0.58029000  1
  C  1820  1  0.37479800  0.15164400  0.57531200  1
  C  1821  1  0.38082100  0.15102000  0.55813400  1
  C  1822  1  0.39744100  0.13771300  0.54563200  1
  C  1823  1  0.40823000  0.12548600  0.55089100  1
  C  1824  1  0.40225600  0.12608800  0.56782700  1
  C  1826  1  0.35391800  0.17631500  0.56557200  1
  C  1827  1  0.34793800  0.17692200  0.58247100  1
  C  1833  1  0.37806100  0.13836300  0.59615600  1
  C  1835  1  0.40286800  0.13569600  0.52820200  1
  C  1837  1  0.04887000  0.41831200  0.85862400  1
  C  1838  1  0.05937800  0.42351300  0.84617100  1
  C  1839  1  0.05333700  0.44081600  0.84706900  1
  C  1840  1  0.03676400  0.45322500  0.86051100  1
  C  1841  1  0.02604200  0.44775200  0.87259200  1
  C  1842  1  0.03205200  0.43069900  0.87173000  1
  C  1844  1  0.08011600  0.43367900  0.82177500  1
  C  1845  1  0.08611600  0.41665800  0.82090000  1
  C  1851  1  0.05617900  0.40228900  0.85901600  1
  C  1853  1  0.03132300  0.47075700  0.86278800  1
  C  1855  1  0.04890200  0.13897800  0.54503700  1
  C  1856  1  0.05939800  0.15146400  0.56268500  1
  C  1857  1  0.05334200  0.15061000  0.57911100  1
  C  1858  1  0.03676900  0.13718000  0.57810500  1
  C  1859  1  0.02604900  0.12507400  0.56055500  1
  C  1860  1  0.03207200  0.12589400  0.54434300  1
  C  1862  1  0.08011300  0.17592400  0.59723700  1
  C  1863  1  0.08612600  0.17675300  0.58106900  1
  C  1869  1  0.05621500  0.13854700  0.52860500  1
  C  1871  1  0.03130700  0.13495600  0.59339000  1
  C  1873  1  0.04889900  0.45261300  0.57933300  1
  C  1874  1  0.05940500  0.43496300  0.57414900  1
  C  1875  1  0.05335200  0.41854700  0.55685800  1
  C  1876  1  0.03676700  0.41956300  0.54444800  1
  C  1877  1  0.02604800  0.43711600  0.54990700  1
  C  1878  1  0.03207000  0.45331800  0.56694600  1
  C  1880  1  0.08013900  0.40040700  0.56401300  1
  C  1881  1  0.08614900  0.41656300  0.58102000  1
  C  1887  1  0.05620900  0.46903700  0.59534500  1
  C  1889  1  0.03132100  0.40429800  0.52692300  1
  C  1891  1  0.54888600  0.58830100  0.13003200  1
  C  1892  1  0.55937900  0.58312300  0.14250800  1
  C  1893  1  0.55332300  0.56583200  0.14163300  1
  C  1894  1  0.53675700  0.55341400  0.12819300  1
  C  1895  1  0.52606000  0.55886300  0.11608300  1
  C  1896  1  0.53206900  0.57591100  0.11693300  1
  C  1898  1  0.58008100  0.57300000  0.16694900  1
  C  1899  1  0.58609300  0.59000800  0.16780000  1
  C  1905  1  0.55621000  0.60431000  0.12962000  1
  C  1907  1  0.53131200  0.53588900  0.12593900  1
  C  1909  1  0.54886900  0.86761100  0.44362600  1
  C  1910  1  0.55936800  0.85514500  0.42597300  1
  C  1911  1  0.55332300  0.85603200  0.40956200  1
  C  1912  1  0.53675700  0.86947400  0.41058800  1
  C  1913  1  0.52604600  0.88156900  0.42814400  1
  C  1914  1  0.53205800  0.88071700  0.44433900  1
  C  1916  1  0.58008600  0.83072200  0.39141000  1
  C  1917  1  0.58608900  0.82985900  0.40756200  1
  C  1923  1  0.55617400  0.86800900  0.46004500  1
  C  1925  1  0.53130400  0.87173200  0.39532300  1
  C  1927  1  0.54891300  0.55402500  0.40936800  1
  C  1928  1  0.55940300  0.57167600  0.41453700  1
  C  1929  1  0.55334900  0.58809800  0.43182200  1
  C  1930  1  0.53678300  0.58708500  0.44424700  1
  C  1931  1  0.52606900  0.56953200  0.43879800  1
  C  1932  1  0.53209700  0.55332500  0.42176600  1
  C  1934  1  0.58010600  0.60623500  0.42464000  1
  C  1935  1  0.58611600  0.59007200  0.40763600  1
  C  1941  1  0.55621800  0.53759800  0.39336000  1
  C  1943  1  0.53132100  0.60236600  0.46175900  1
  N  41  1  0.93030600  0.64613500  0.03675600  1
  N  42  1  0.78172400  0.66588600  0.07961700  1
  N  43  1  0.89611300  0.73658900  0.17280800  1
  N  44  1  0.88621600  0.61195000  0.12571500  1
  N  86  1  0.93033100  0.40292500  0.35153600  1
  N  87  1  0.78176500  0.42600500  0.33177900  1
  N  88  1  0.89610000  0.44851000  0.26106400  1
  N  89  1  0.88623100  0.52606600  0.38570900  1
  N  131  1  0.93030200  0.96090300  0.59473800  1
  N  132  1  0.78175400  0.91809100  0.57167000  1
  N  133  1  0.89612800  0.82483000  0.54912200  1
  N  134  1  0.88620900  0.87194100  0.47160300  1
  N  176  1  0.43032400  0.36051100  0.95192400  1
  N  177  1  0.28174900  0.34075600  0.90908700  1
  N  178  1  0.39608400  0.27004400  0.81586400  1
  N  179  1  0.38621400  0.39468100  0.86295200  1
  N  221  1  0.43028700  0.60370600  0.63714200  1
  N  222  1  0.28172000  0.58062500  0.65690900  1
  N  223  1  0.39610900  0.55810600  0.72760800  1
  N  224  1  0.38621900  0.48057100  0.60298800  1
  N  266  1  0.43030500  0.04573200  0.39393500  1
  N  267  1  0.28173600  0.08859500  0.41707300  1
  N  268  1  0.39612100  0.18179700  0.43954800  1
  N  269  1  0.38625800  0.13475000  0.51710300  1
  N  311  1  0.00464700  0.60854800  0.95160500  1
  N  312  1  0.15278100  0.58138200  0.90933000  1
  N  313  1  0.03819300  0.55832200  0.81561600  1
  N  314  1  0.04790400  0.48190100  0.86379800  1
  N  356  1  0.00466100  0.04605300  0.64226900  1
  N  357  1  0.15281400  0.08835500  0.65740700  1
  N  358  1  0.03816100  0.18203400  0.72806500  1
  N  359  1  0.04789900  0.13395000  0.60351900  1
  N  401  1  0.00466300  0.35536300  0.38913000  1
  N  402  1  0.15283200  0.34023700  0.41632800  1
  N  403  1  0.03817200  0.26959000  0.43932300  1
  N  404  1  0.04790800  0.39416800  0.51578200  1
  N  446  1  0.50465600  0.39810600  0.03708100  1
  N  447  1  0.65282100  0.42528000  0.07937500  1
  N  448  1  0.53823200  0.44829900  0.17305200  1
  N  449  1  0.54790500  0.52475700  0.12493500  1
  N  491  1  0.50465500  0.96058600  0.34637300  1
  N  492  1  0.65278300  0.91829200  0.33127500  1
  N  493  1  0.53815500  0.82459400  0.26062000  1
  N  494  1  0.54788500  0.87272600  0.38518000  1
  N  536  1  0.50463000  0.65126200  0.59954500  1
  N  537  1  0.65281100  0.66638700  0.57237500  1
  N  538  1  0.53821300  0.73704800  0.54936100  1
  N  539  1  0.54791400  0.61249200  0.47289600  1
  N  581  1  0.00472300  0.35806000  0.95230000  1
  N  582  1  0.15359100  0.33770700  0.90789000  1
  N  583  1  0.03995200  0.26724200  0.81734100  1
  N  584  1  0.04244100  0.39321300  0.86418000  1
  N  626  1  0.00467500  0.60654300  0.63960800  1
  N  627  1  0.15356700  0.58253300  0.65994100  1
  N  628  1  0.03996400  0.56236100  0.73039000  1
  N  629  1  0.04246400  0.48327400  0.60441600  1
  N  671  1  0.00470900  0.04536600  0.39110000  1
  N  672  1  0.15357700  0.08975600  0.41517000  1
  N  673  1  0.03994300  0.18031500  0.43526300  1
  N  674  1  0.04244800  0.13342400  0.51438700  1
  N  716  1  0.50471800  0.64857700  0.03638000  1
  N  717  1  0.65357800  0.66893300  0.08078300  1
  N  718  1  0.53994700  0.73937700  0.17135500  1
  N  719  1  0.54245900  0.61339800  0.12447700  1
  N  761  1  0.50467200  0.40010100  0.34906500  1
  N  762  1  0.65359200  0.42414900  0.32873400  1
  N  763  1  0.53998000  0.44424800  0.25828000  1
  N  764  1  0.54246400  0.52336800  0.38428200  1
  N  806  1  0.50469900  0.96127800  0.59756900  1
  N  807  1  0.65358100  0.91683600  0.57347500  1
  N  808  1  0.53994900  0.82631900  0.55340600  1
  N  809  1  0.54243200  0.87317600  0.47428400  1
  N  851  1  0.92914900  0.39523900  0.03693600  1
  N  852  1  0.78095900  0.42330000  0.08010600  1
  N  853  1  0.89402400  0.44391500  0.17158900  1
  N  854  1  0.89182200  0.52232700  0.12424500  1
  N  896  1  0.92917000  0.96072500  0.34363900  1
  N  897  1  0.78096400  0.91744100  0.32853200  1
  N  898  1  0.89402500  0.82607000  0.25767800  1
  N  899  1  0.89185100  0.87343300  0.38345400  1
  N  941  1  0.92912600  0.65399100  0.60242300  1
  N  942  1  0.78095600  0.66910600  0.57433700  1
  N  943  1  0.89402100  0.73996500  0.55372800  1
  N  944  1  0.89182800  0.61422500  0.47532900  1
  N  986  1  0.42916300  0.61141800  0.95174700  1
  N  987  1  0.28096200  0.58327700  0.90849700  1
  N  988  1  0.39402400  0.56270600  0.81708200  1
  N  989  1  0.39183800  0.48431800  0.86445700  1
  N  1031  1  0.42914500  0.04591100  0.64503200  1
  N  1032  1  0.28096400  0.08909600  0.66012800  1
  N  1033  1  0.39401800  0.18055100  0.73099600  1
  N  1034  1  0.39182800  0.13316600  0.60519400  1
  N  1076  1  0.42912600  0.35266000  0.38626800  1
  N  1077  1  0.28096600  0.33752600  0.41434200  1
  N  1078  1  0.39402400  0.26666600  0.43493800  1
  N  1079  1  0.39180100  0.39242600  0.51336000  1
  N  1087  1  0.89661400  0.81780200  0.21851000  1
  N  1090  1  0.89543000  0.78735400  0.18355900  1
  N  1105  1  0.89660400  0.41301100  0.17985300  1
  N  1108  1  0.89541400  0.40850900  0.21030100  1
  N  1123  1  0.89659900  0.77913800  0.58462800  1
  N  1126  1  0.89541900  0.81408300  0.58911800  1
  N  1141  1  0.39660600  0.18882100  0.77016500  1
  N  1144  1  0.39540400  0.21927200  0.80511200  1
  N  1159  1  0.39661300  0.59360900  0.80881600  1
  N  1162  1  0.39542800  0.59811100  0.77836800  1
  N  1177  1  0.39660400  0.22749100  0.40403300  1
  N  1180  1  0.39542100  0.19254400  0.39953900  1
  N  1195  1  0.03754600  0.59337800  0.76946300  1
  N  1198  1  0.03893000  0.59807700  0.80448500  1
  N  1213  1  0.03756900  0.22816100  0.80927100  1
  N  1216  1  0.03894600  0.19314400  0.77894000  1
  N  1231  1  0.03753900  0.18838200  0.40425200  1
  N  1234  1  0.03891700  0.21870900  0.39955800  1
  N  1249  1  0.53757100  0.41323900  0.21920300  1
  N  1252  1  0.53895300  0.40854100  0.18418100  1
  N  1267  1  0.53755900  0.77845900  0.17942300  1
  N  1270  1  0.53893000  0.81347600  0.20975500  1
  N  1285  1  0.53755200  0.81826600  0.58442900  1
  N  1288  1  0.53895300  0.78794100  0.58912700  1
  N  1303  1  0.68602000  0.68678800  0.06583300  1
  N  1306  1  0.73203400  0.69654900  0.07076700  1
  N  1321  1  0.68603900  0.39136000  0.31088900  1
  N  1324  1  0.73205300  0.38651200  0.30113000  1
  N  1339  1  0.68600100  0.93179600  0.60628100  1
  N  1342  1  0.73202000  0.92693000  0.61116000  1
  N  1357  1  0.18602700  0.31988000  0.92287300  1
  N  1360  1  0.23204100  0.31012300  0.91796500  1
  N  1375  1  0.18602900  0.61532700  0.67779200  1
  N  1378  1  0.23204100  0.62014200  0.68755800  1
  N  1393  1  0.18603000  0.07481300  0.38238000  1
  N  1396  1  0.23204600  0.07974100  0.37755400  1
  N  1411  1  0.24854600  0.61598000  0.92347900  1
  N  1414  1  0.20258000  0.62085600  0.91846800  1
  N  1429  1  0.24852400  0.07410700  0.67784500  1
  N  1432  1  0.20256100  0.07919300  0.68774700  1
  N  1447  1  0.24853200  0.31978900  0.38162700  1
  N  1450  1  0.20257100  0.30988200  0.37682500  1
  N  1465  1  0.74852400  0.39058800  0.06510800  1
  N  1468  1  0.70256500  0.38577900  0.07020800  1
  N  1483  1  0.74855000  0.93242500  0.31081600  1
  N  1486  1  0.70258200  0.92742200  0.30093400  1
  N  1501  1  0.74852600  0.68680900  0.60705600  1
  N  1504  1  0.70256500  0.69671100  0.61188500  1
  N  1519  1  0.97867600  0.64436000  0.97083600  1
  N  1522  1  0.95713300  0.66712500  0.00398500  1
  N  1537  1  0.97869100  0.33877400  0.35331500  1
  N  1540  1  0.95714900  0.34915700  0.33054900  1
  N  1555  1  0.97873500  0.02681600  0.65884800  1
  N  1558  1  0.95718900  0.99367300  0.64848200  1
  N  1573  1  0.47869800  0.36229200  0.01784900  1
  N  1576  1  0.45715900  0.33952400  0.98470200  1
  N  1591  1  0.47866500  0.66784100  0.63535500  1
  N  1594  1  0.45712300  0.65746100  0.65812300  1
  N  1609  1  0.47867900  0.97981200  0.32978900  1
  N  1612  1  0.45712700  0.01295700  0.34017000  1
  N  1627  1  0.95503600  0.36058500  0.01745300  1
  N  1630  1  0.97679000  0.33775400  0.98443200  1
  N  1645  1  0.95503500  0.66918000  0.63708600  1
  N  1648  1  0.97675000  0.65897100  0.65991900  1
  N  1663  1  0.95508600  0.98020000  0.32846300  1
  N  1666  1  0.97681000  0.01323500  0.33866500  1
  N  1681  1  0.45508800  0.64606500  0.97121500  1
  N  1684  1  0.47682500  0.66889300  0.00424700  1
  N  1699  1  0.45501200  0.33747900  0.35160200  1
  N  1702  1  0.47673500  0.34767700  0.32876400  1
  N  1717  1  0.45505800  0.02643900  0.66021100  1
  N  1720  1  0.47679100  0.99340700  0.65000900  1
  N  1735  1  0.86994100  0.60367300  0.15444200  1
  N  1738  1  0.85849100  0.57237000  0.15569000  1
  N  1753  1  0.87000300  0.56308100  0.39397900  1
  N  1756  1  0.85854600  0.59563100  0.42528000  1
  N  1771  1  0.86993200  0.84322900  0.43458900  1
  N  1774  1  0.85850200  0.84198800  0.40203800  1
  N  1789  1  0.36996400  0.40297700  0.83422600  1
  N  1792  1  0.35851100  0.43429600  0.83300900  1
  N  1807  1  0.36998700  0.44355700  0.59471600  1
  N  1810  1  0.35852300  0.41101000  0.56341700  1
  N  1825  1  0.37002400  0.16346400  0.55413500  1
  N  1828  1  0.35854300  0.16464200  0.58664600  1
  N  1843  1  0.06406300  0.44502300  0.83474900  1
  N  1846  1  0.07557900  0.41227500  0.83305400  1
  N  1861  1  0.06405800  0.16296100  0.59563200  1
  N  1864  1  0.07560000  0.16457100  0.56453800  1
  N  1879  1  0.06407700  0.40202300  0.55266600  1
  N  1882  1  0.07561300  0.43309700  0.58539000  1
  N  1897  1  0.56403200  0.56164800  0.15397500  1
  N  1900  1  0.57557400  0.59437000  0.15562400  1
  N  1915  1  0.56404000  0.84369800  0.39303500  1
  N  1918  1  0.57556200  0.84202600  0.42409900  1
  N  1933  1  0.56406000  0.60462200  0.43599800  1
  N  1936  1  0.57559700  0.57353800  0.40328300  1
