# generated using pymatgen
data_H9C20(NO)4
_symmetry_space_group_name_H-M   'P 1'
_cell_length_a   19.47760000
_cell_length_b   33.73619281
_cell_length_c   116.86500000
_cell_angle_alpha   90.00000000
_cell_angle_beta   90.00000000
_cell_angle_gamma   90.00000000
_symmetry_Int_Tables_number   1
_chemical_formula_structural   H9C20(NO)4
_chemical_formula_sum   'H216 C480 N96 O96'
_cell_volume   76791.99957144
_cell_formula_units_Z   24
loop_
 _symmetry_equiv_pos_site_id
 _symmetry_equiv_pos_as_xyz
  1  'x, y, z'
loop_
 _atom_site_type_symbol
 _atom_site_label
 _atom_site_symmetry_multiplicity
 _atom_site_fract_x
 _atom_site_fract_y
 _atom_site_fract_z
 _atom_site_occupancy
  C  1  1  0.52081800  0.51104400  0.08664200  1
  C  2  1  0.99522600  0.02078000  0.09770600  1
  C  3  1  0.03814200  0.03160100  0.10689600  1
  C  4  1  0.60938200  0.53409400  0.10513500  1
  C  5  1  0.63896800  0.52548300  0.09440500  1
  C  6  1  0.59380800  0.51304800  0.08559700  1
  C  10  1  0.97672200  0.99975400  0.07726900  1
  C  11  1  0.40418300  0.49483900  0.07836500  1
  C  12  1  0.35964800  0.48458300  0.06921500  1
  C  13  1  0.88997000  0.97981900  0.05831000  1
  C  14  1  0.96070900  0.98514300  0.05649200  1
  C  15  1  0.00248000  0.99409500  0.06598600  1
  C  27  1  0.96763500  0.00433300  0.75333600  1
  C  28  1  0.96511800  0.98640300  0.76435800  1
  C  29  1  0.92780000  0.00262000  0.77356500  1
  C  30  1  0.88926800  0.03733200  0.77183700  1
  C  31  1  0.88787100  0.05658700  0.76112700  1
  C  32  1  0.92899200  0.04013700  0.75231900  1
  C  36  1  0.50645400  0.48788200  0.74396100  1
  C  37  1  0.55092500  0.45445800  0.74509800  1
  C  38  1  0.58847100  0.43728400  0.73594100  1
  C  39  1  0.57967600  0.45451700  0.72500900  1
  C  40  1  0.53559300  0.48688900  0.72316100  1
  C  41  1  0.50111600  0.50322800  0.73264900  1
  C  53  1  0.50411800  0.48095500  0.42003500  1
  C  54  1  0.53191300  0.48877100  0.43107700  1
  C  55  1  0.52639900  0.46198700  0.44028300  1
  C  56  1  0.49402900  0.42524900  0.43854200  1
  C  57  1  0.46607300  0.41483600  0.42782400  1
  C  58  1  0.47008300  0.44362100  0.41901400  1
  C  62  1  0.00928200  0.00864300  0.41063100  1
  C  63  1  0.03787400  0.04743900  0.41174400  1
  C  64  1  0.04485600  0.07482100  0.40259400  1
  C  65  1  0.02291900  0.06196000  0.39167500  1
  C  66  1  0.99584500  0.02386100  0.38984500  1
  C  67  1  0.98838600  0.99848200  0.39933400  1
  C  79  1  0.99050600  0.01759200  0.57804700  1
  C  80  1  0.99267300  0.00222700  0.56673700  1
  C  81  1  0.97439100  0.02482100  0.55705500  1
  C  82  1  0.95139900  0.06398500  0.55884300  1
  C  83  1  0.94849500  0.08169500  0.56979400  1
  C  84  1  0.96891800  0.05773100  0.57914900  1
  C  88  1  0.49654800  0.49124100  0.58765200  1
  C  89  1  0.53850800  0.45696600  0.58649100  1
  C  90  1  0.55944200  0.43309800  0.59583700  1
  C  91  1  0.53982100  0.44586500  0.60689100  1
  C  92  1  0.49875300  0.47973400  0.60862700  1
  C  93  1  0.47636600  0.50113500  0.59896400  1
  C  105  1  0.03214400  0.00147300  0.91133800  1
  C  106  1  0.50856900  0.50971000  0.90008600  1
  C  107  1  0.55171000  0.50756100  0.89042600  1
  C  108  1  0.12137500  0.99800800  0.89212800  1
  C  109  1  0.14867000  0.98892800  0.90303000  1
  C  110  1  0.10277900  0.99124600  0.91241700  1
  C  114  1  0.98697900  0.00335900  0.92099100  1
  C  115  1  0.91458700  0.99948000  0.91982700  1
  C  116  1  0.86836600  0.00066800  0.92918800  1
  C  117  1  0.39731800  0.50404000  0.94024400  1
  C  118  1  0.46862100  0.50777500  0.94197200  1
  C  119  1  0.51190600  0.50841500  0.93230300  1
  C  131  1  0.48399800  0.48042700  0.24473700  1
  C  132  1  0.50815300  0.48811000  0.23349100  1
  C  133  1  0.48346600  0.46757200  0.22383000  1
  C  134  1  0.43428100  0.43752100  0.22552400  1
  C  135  1  0.40692800  0.42844200  0.23642100  1
  C  136  1  0.43331700  0.45023400  0.24581100  1
  C  140  1  0.00943000  0.00205500  0.25439000  1
  C  141  1  0.03987200  0.04017600  0.25323000  1
  C  142  1  0.06481800  0.06266900  0.26259200  1
  C  143  1  0.05531500  0.04651300  0.27364300  1
  C  144  1  0.02519400  0.00901200  0.27536800  1
  C  145  1  0.00453900  0.98705500  0.26570300  1
  C  157  1  0.56331300  0.49351100  0.96912300  1
  C  158  1  0.06047900  0.02964500  0.97519800  1
  C  160  1  0.57269300  0.49643700  0.99309100  1
  C  161  1  0.57913600  0.45919200  0.98752900  1
  C  162  1  0.57535700  0.45843300  0.97544600  1
  C  164  1  0.56967800  0.49852400  0.00511700  1
  C  165  1  0.05079500  0.03784200  0.02179100  1
  C  166  1  0.04928800  0.00394500  0.02887900  1
  C  167  1  0.56235300  0.46676500  0.02371200  1
  C  170  1  0.57247300  0.46335100  0.01177300  1
  C  171  1  0.58204300  0.42645300  0.00624300  1
  C  172  1  0.58546200  0.42439300  0.99421200  1
  C  177  1  0.54862400  0.49215400  0.95722900  1
  C  178  1  0.03158000  0.00718100  0.04063300  1
  C  181  1  0.97233800  0.03424600  0.63580600  1
  C  182  1  0.41933400  0.51467800  0.64184300  1
  C  184  1  0.96262300  0.03726800  0.65977800  1
  C  185  1  0.01536600  0.05917800  0.65426500  1
  C  186  1  0.01871900  0.05775100  0.64219100  1
  C  188  1  0.96080100  0.03466300  0.67180200  1
  C  189  1  0.41126100  0.50555800  0.68843300  1
  C  190  1  0.46278400  0.52171200  0.69554400  1
  C  191  1  0.01180900  0.04683900  0.69042300  1
  C  194  1  0.01201800  0.05365900  0.67849000  1
  C  195  1  0.06266100  0.07694500  0.67300000  1
  C  196  1  0.06425800  0.07973800  0.66096900  1
  C  201  1  0.98230300  0.02783500  0.62391400  1
  C  202  1  0.46674100  0.51110100  0.70728900  1
  C  205  1  0.95664200  0.96846100  0.30250200  1
  C  206  1  0.51237900  0.45183500  0.30856200  1
  C  208  1  0.95657000  0.96215600  0.32646900  1
  C  209  1  0.89737500  0.97752500  0.32092900  1
  C  210  1  0.89801600  0.97987000  0.30884700  1
  C  212  1  0.96133900  0.96258300  0.33849300  1
  C  213  1  0.53003400  0.45244800  0.35514700  1
  C  214  1  0.47998600  0.47010000  0.36225300  1
  C  215  1  0.91754600  0.98206000  0.35710400  1
  C  218  1  0.90721000  0.97869900  0.34517000  1
  C  219  1  0.84696700  0.99231300  0.33966200  1
  C  220  1  0.84203900  0.99167300  0.32762700  1
  C  225  1  0.96186300  0.97660300  0.29061700  1
  C  226  1  0.49391700  0.47739800  0.37399500  1
  C  229  1  0.31890900  0.02429900  0.08271900  1
  C  230  1  0.85750700  0.50622400  0.09157800  1
  C  232  1  0.46219200  0.01046400  0.08100300  1
  C  233  1  0.42758700  0.02891800  0.07174200  1
  C  234  1  0.35604000  0.03514400  0.07274400  1
  C  236  1  0.53339200  0.00301000  0.08036200  1
  C  237  1  0.13514600  0.47762000  0.08910200  1
  C  238  1  0.17646700  0.48726300  0.07951200  1
  C  239  1  0.64226600  0.00616800  0.07027000  1
  C  242  1  0.57102000  0.01421200  0.07048400  1
  C  243  1  0.53649900  0.03303500  0.06131600  1
  C  244  1  0.46531900  0.04020100  0.06192300  1
  C  249  1  0.24665300  0.02986700  0.08340700  1
  C  250  1  0.24846500  0.47997700  0.07955600  1
  C  253  1  0.80024000  0.14734900  0.74945100  1
  C  254  1  0.80807000  0.17568800  0.75830900  1
  C  256  1  0.74924800  0.22589100  0.74774200  1
  C  257  1  0.73880800  0.19934400  0.73848600  1
  C  258  1  0.76531500  0.16047300  0.73948400  1
  C  260  1  0.72479200  0.26521200  0.74710100  1
  C  261  1  0.71208000  0.32881600  0.75582700  1
  C  262  1  0.67683300  0.34462100  0.74624500  1
  C  263  1  0.66546100  0.31802900  0.73701600  1
  C  266  1  0.68905000  0.27838900  0.73723100  1
  C  267  1  0.67798300  0.25169300  0.72807300  1
  C  268  1  0.70288500  0.21253300  0.72867600  1
  C  273  1  0.82798300  0.10842900  0.75013800  1
  C  274  1  0.65171200  0.38425500  0.74628700  1
  C  277  1  0.37421900  0.32550200  0.41614000  1
  C  278  1  0.32775500  0.31525200  0.42499200  1
  C  280  1  0.28189600  0.26074600  0.41442100  1
  C  281  1  0.32695900  0.26880000  0.40516800  1
  C  282  1  0.37202600  0.30148000  0.40617100  1
  C  284  1  0.23514200  0.22886000  0.41377700  1
  C  285  1  0.14610600  0.19069000  0.42250200  1
  C  286  1  0.14003300  0.16517500  0.41291800  1
  C  287  1  0.18560200  0.17279200  0.40368900  1
  C  290  1  0.23326200  0.20440700  0.40390700  1
  C  291  1  0.27884800  0.21222600  0.39475000  1
  C  292  1  0.32514400  0.24425100  0.39535800  1
  C  297  1  0.41870500  0.35884000  0.41682900  1
  C  298  1  0.09316300  0.13279200  0.41295300  1
  C  301  1  0.88024200  0.17957400  0.58047900  1
  C  302  1  0.82399300  0.18666900  0.57304700  1
  C  304  1  0.79439500  0.24723300  0.58238100  1
  C  305  1  0.84925200  0.24241500  0.59024100  1
  C  306  1  0.89112400  0.20835500  0.58916300  1
  C  308  1  0.75035500  0.28031200  0.58318800  1
  C  309  1  0.65357100  0.31590700  0.57603300  1
  C  310  1  0.65790400  0.34499100  0.58475900  1
  C  311  1  0.71335700  0.34093000  0.59255600  1
  C  314  1  0.76017400  0.30893500  0.59192900  1
  C  315  1  0.81552200  0.30435200  0.59966400  1
  C  316  1  0.85970100  0.27137900  0.59882400  1
  C  321  1  0.92205800  0.14503800  0.57974600  1
  C  322  1  0.60965000  0.37658000  0.58534400  1
  C  325  1  0.82800000  0.46865700  0.91355500  1
  C  326  1  0.36762700  0.99300100  0.90618700  1
  C  328  1  0.97237200  0.47642300  0.91557400  1
  C  329  1  0.93704500  0.45143200  0.92335200  1
  C  330  1  0.86493200  0.44808800  0.92219700  1
  C  332  1  0.04393300  0.48171700  0.91645500  1
  C  333  1  0.64577300  0.01242300  0.90941300  1
  C  334  1  0.68696800  0.99555600  0.91815000  1
  C  335  1  0.15293500  0.46978300  0.92591100  1
  C  338  1  0.08153300  0.46236400  0.92521800  1
  C  339  1  0.04643800  0.43694000  0.93288500  1
  C  340  1  0.97483700  0.43148300  0.93195200  1
  C  345  1  0.75514800  0.46646000  0.91281900  1
  C  346  1  0.75844300  0.00394000  0.91874000  1
  C  349  1  0.28686300  0.34888900  0.24693900  1
  C  350  1  0.30356800  0.31690600  0.23957100  1
  C  352  1  0.22639900  0.27280000  0.24897000  1
  C  353  1  0.20657400  0.30295600  0.25675000  1
  C  354  1  0.23757500  0.34069600  0.25558700  1
  C  356  1  0.19859200  0.23436300  0.24985900  1
  C  357  1  0.19375400  0.16808300  0.24282200  1
  C  358  1  0.14787200  0.15591600  0.25155500  1
  C  359  1  0.12623700  0.18582200  0.25931500  1
  C  362  1  0.15078800  0.22523700  0.25862200  1
  C  363  1  0.13020200  0.25549400  0.26628500  1
  C  364  1  0.15778500  0.29403000  0.26534800  1
  C  369  1  0.31994600  0.38643000  0.24620500  1
  C  370  1  0.12473200  0.11598600  0.25214900  1
  C  373  1  0.01648100  0.01587100  0.19596700  1
  C  374  1  0.55234100  0.48833300  0.18908400  1
  C  376  1  0.00829600  0.01681600  0.17192800  1
  C  377  1  0.97418100  0.04698100  0.17820100  1
  C  378  1  0.97910300  0.04601000  0.19027100  1
  C  380  1  0.00156700  0.01478300  0.15994900  1
  C  381  1  0.52624500  0.48039500  0.14260700  1
  C  382  1  0.48993300  0.50867900  0.13609000  1
  C  383  1  0.95825900  0.04047900  0.14193200  1
  C  386  1  0.96256600  0.04372600  0.15397600  1
  C  387  1  0.92995900  0.07434400  0.16021400  1
  C  388  1  0.93520100  0.07574500  0.17224400  1
  C  393  1  0.01288100  0.01143800  0.20808300  1
  C  394  1  0.48974200  0.50631300  0.12400600  1
  C  397  1  0.46318300  0.49915500  0.86255600  1
  C  398  1  0.98642400  0.03077700  0.85562700  1
  C  400  1  0.46560100  0.49427000  0.83852000  1
  C  401  1  0.43754300  0.46219800  0.84483600  1
  C  402  1  0.43667600  0.46530400  0.85690000  1
  C  404  1  0.47185400  0.49177100  0.82654000  1
  C  405  1  0.01083700  0.02110400  0.80915100  1
  C  406  1  0.98653700  0.98870300  0.80268100  1
  C  407  1  0.45469700  0.45704900  0.80856400  1
  C  410  1  0.44787200  0.45772200  0.82061100  1
  C  411  1  0.41837400  0.42617700  0.82689400  1
  C  412  1  0.41384800  0.42824000  0.83892400  1
  C  417  1  0.47162300  0.49971500  0.87467200  1
  C  418  1  0.98995100  0.98960700  0.79059500  1
  C  421  1  0.51497700  0.48120100  0.52923200  1
  C  422  1  0.45582600  0.47717000  0.52232000  1
  C  424  1  0.52087000  0.48506000  0.50520300  1
  C  425  1  0.58309100  0.48687100  0.51150200  1
  C  426  1  0.57897800  0.48479400  0.52356900  1
  C  428  1  0.52137900  0.48956300  0.49322900  1
  C  429  1  0.45771000  0.49470300  0.47586800  1
  C  430  1  0.51841500  0.49867500  0.46938200  1
  C  431  1  0.58188300  0.49838400  0.47524100  1
  C  434  1  0.58441000  0.49451600  0.48728300  1
  C  435  1  0.64655700  0.49532800  0.49354700  1
  C  436  1  0.14932500  0.99146000  0.50507200  1
  C  441  1  0.01956600  0.98427500  0.54134000  1
  C  442  1  0.01275400  0.99974300  0.45732200  1
  C  445  1  0.02081800  0.01104300  0.08664200  1
  C  446  1  0.49522500  0.52078200  0.09770600  1
  C  447  1  0.53814100  0.53160100  0.10689600  1
  C  448  1  0.10938600  0.03409200  0.10513500  1
  C  449  1  0.13896900  0.02548200  0.09440500  1
  C  450  1  0.09380800  0.01304900  0.08559700  1
  C  454  1  0.47672200  0.49975400  0.07726900  1
  C  455  1  0.90418300  0.99483900  0.07836500  1
  C  456  1  0.85964800  0.98458300  0.06921500  1
  C  457  1  0.38997000  0.47981700  0.05831000  1
  C  458  1  0.46071000  0.48514000  0.05649200  1
  C  459  1  0.50248200  0.49409500  0.06598600  1
  C  471  1  0.46762500  0.50433300  0.75333600  1
  C  472  1  0.46510800  0.48640300  0.76435800  1
  C  473  1  0.42779300  0.50262600  0.77356600  1
  C  474  1  0.38926200  0.53733600  0.77183800  1
  C  475  1  0.38787000  0.55659200  0.76112900  1
  C  476  1  0.42898800  0.54014100  0.75232100  1
  C  480  1  0.00646700  0.98787900  0.74396100  1
  C  481  1  0.05093000  0.95445200  0.74509600  1
  C  482  1  0.08847200  0.93728100  0.73593900  1
  C  483  1  0.07966300  0.95451100  0.72500700  1
  C  484  1  0.03557500  0.98687700  0.72316100  1
  C  485  1  0.00112900  0.00322600  0.73265100  1
  C  497  1  0.00389200  0.98100200  0.42000900  1
  C  498  1  0.03122200  0.98893400  0.43107500  1
  C  499  1  0.02556700  0.96216200  0.44027800  1
  C  500  1  0.99355700  0.92533500  0.43852500  1
  C  501  1  0.96594900  0.91484200  0.42779000  1
  C  502  1  0.97010300  0.94359100  0.41897200  1
  C  506  1  0.50937500  0.50859900  0.41065600  1
  C  507  1  0.53785300  0.54742100  0.41176700  1
  C  508  1  0.54481400  0.57478900  0.40261300  1
  C  509  1  0.52287900  0.56190600  0.39169700  1
  C  510  1  0.49583000  0.52379600  0.38987000  1
  C  511  1  0.48846700  0.49841400  0.39936000  1
  C  523  1  0.47702900  0.51482400  0.57799800  1
  C  524  1  0.47664400  0.49897400  0.56674200  1
  C  525  1  0.45859200  0.52169500  0.55708200  1
  C  526  1  0.43828500  0.56133100  0.55878100  1
  C  527  1  0.43802200  0.57943400  0.56969000  1
  C  528  1  0.45715600  0.55526400  0.57908300  1
  C  532  1  0.00696600  0.99342200  0.58774800  1
  C  533  1  0.04748000  0.95852200  0.58678800  1
  C  534  1  0.06327800  0.93346600  0.59615200  1
  C  535  1  0.04092200  0.94578800  0.60709300  1
  C  536  1  0.00137500  0.98034100  0.60865500  1
  C  537  1  0.98342600  0.00274200  0.59892200  1
  C  549  1  0.53214500  0.50147300  0.91133800  1
  C  550  1  0.00856800  0.00970900  0.90008600  1
  C  551  1  0.05170900  0.00756000  0.89042600  1
  C  552  1  0.62137800  0.49800800  0.89212800  1
  C  553  1  0.64867200  0.48892900  0.90303000  1
  C  554  1  0.60277900  0.49124700  0.91241700  1
  C  558  1  0.48697900  0.50335800  0.92099100  1
  C  559  1  0.41458400  0.49948100  0.91982700  1
  C  560  1  0.36836500  0.50067000  0.92918800  1
  C  561  1  0.89732000  0.00403900  0.94024400  1
  C  562  1  0.96862300  0.00777500  0.94196300  1
  C  563  1  0.01190600  0.00841400  0.93230300  1
  C  575  1  0.98399700  0.98042700  0.24473600  1
  C  576  1  0.00815200  0.98811300  0.23348900  1
  C  577  1  0.98346300  0.96757100  0.22382900  1
  C  578  1  0.93427700  0.93752100  0.22552400  1
  C  579  1  0.90692800  0.92844100  0.23642100  1
  C  580  1  0.93331700  0.95023700  0.24581000  1
  C  584  1  0.50942700  0.50205400  0.25439100  1
  C  585  1  0.53987100  0.54017300  0.25323200  1
  C  586  1  0.56481700  0.56266800  0.26259300  1
  C  587  1  0.55531400  0.54651100  0.27364400  1
  C  588  1  0.52518800  0.50901100  0.27537000  1
  C  589  1  0.50453400  0.48705200  0.26570500  1
  C  601  1  0.06331300  0.99351100  0.96912300  1
  C  602  1  0.56048000  0.52964400  0.97519800  1
  C  604  1  0.07269500  0.99643900  0.99309100  1
  C  605  1  0.07913400  0.95919200  0.98752900  1
  C  606  1  0.07535400  0.95843600  0.97544600  1
  C  608  1  0.06967600  0.99852300  0.00511700  1
  C  609  1  0.55079600  0.53784000  0.02179100  1
  C  610  1  0.54928700  0.50394500  0.02887900  1
  C  611  1  0.06235000  0.96676500  0.02371200  1
  C  614  1  0.07247400  0.96335000  0.01177300  1
  C  615  1  0.08204400  0.92645200  0.00624300  1
  C  616  1  0.08546300  0.92439200  0.99421200  1
  C  621  1  0.04862500  0.99215300  0.95722900  1
  C  622  1  0.53158000  0.50718200  0.04063300  1
  C  625  1  0.47219800  0.53418600  0.63579000  1
  C  626  1  0.91942500  0.01467300  0.64183100  1
  C  628  1  0.46270200  0.53738400  0.65976200  1
  C  629  1  0.51541800  0.55925900  0.65422500  1
  C  630  1  0.51864200  0.55776600  0.64214300  1
  C  632  1  0.46092500  0.53478700  0.67178700  1
  C  633  1  0.91111900  0.00543300  0.68844500  1
  C  634  1  0.96260300  0.02162300  0.69555800  1
  C  635  1  0.51201100  0.54691100  0.69040400  1
  C  638  1  0.51218600  0.55375500  0.67846800  1
  C  639  1  0.56279500  0.57703300  0.67296400  1
  C  640  1  0.56433000  0.57981600  0.66092800  1
  C  645  1  0.48176900  0.52751900  0.62390000  1
  C  646  1  0.96661900  0.01102900  0.70730100  1
  C  649  1  0.45665200  0.46846400  0.30250700  1
  C  650  1  0.01236600  0.95182900  0.30855700  1
  C  652  1  0.45658700  0.46216500  0.32647500  1
  C  653  1  0.39739100  0.47753100  0.32093400  1
  C  654  1  0.39802700  0.47987300  0.30885200  1
  C  656  1  0.46135500  0.46259800  0.33849900  1
  C  657  1  0.03003400  0.95244200  0.35513900  1
  C  658  1  0.97998700  0.97010000  0.36224300  1
  C  659  1  0.41755600  0.48206600  0.35711100  1
  C  662  1  0.40722200  0.47871100  0.34517600  1
  C  663  1  0.34697800  0.49232300  0.33966800  1
  C  664  1  0.34205300  0.49167600  0.32763300  1
  C  669  1  0.46186700  0.47660400  0.29062000  1
  C  670  1  0.99393200  0.97743000  0.37398200  1
  C  673  1  0.81890900  0.52430000  0.08271900  1
  C  674  1  0.35750700  0.00622500  0.09157800  1
  C  676  1  0.96219200  0.51046300  0.08100300  1
  C  677  1  0.92758700  0.52891800  0.07174200  1
  C  678  1  0.85604000  0.53514600  0.07274400  1
  C  680  1  0.03339200  0.50301100  0.08036200  1
  C  681  1  0.63514400  0.97762000  0.08910200  1
  C  682  1  0.67646500  0.98726200  0.07951200  1
  C  683  1  0.14226600  0.50616800  0.07027000  1
  C  686  1  0.07101800  0.51421300  0.07048400  1
  C  687  1  0.03649900  0.53303500  0.06131600  1
  C  688  1  0.96531800  0.54020000  0.06192300  1
  C  693  1  0.74665300  0.52986700  0.08340700  1
  C  694  1  0.74846500  0.97997900  0.07955600  1
  C  697  1  0.30024100  0.64735500  0.74945300  1
  C  698  1  0.30806200  0.67569500  0.75831000  1
  C  700  1  0.24924400  0.72589300  0.74774100  1
  C  701  1  0.23880800  0.69934600  0.73848600  1
  C  702  1  0.26531600  0.66047400  0.73948400  1
  C  704  1  0.22479000  0.76521300  0.74709900  1
  C  705  1  0.21208000  0.82881800  0.75582400  1
  C  706  1  0.17683500  0.84462000  0.74624200  1
  C  707  1  0.16546100  0.81802900  0.73701200  1
  C  710  1  0.18904800  0.77838900  0.73722900  1
  C  711  1  0.17798300  0.75169100  0.72807000  1
  C  712  1  0.20288500  0.71253100  0.72867500  1
  C  717  1  0.32798300  0.60843500  0.75013900  1
  C  718  1  0.15171900  0.88425400  0.74628300  1
  C  721  1  0.87421000  0.82545700  0.41611700  1
  C  722  1  0.82773600  0.81524000  0.42497100  1
  C  724  1  0.78187200  0.76071700  0.41440900  1
  C  725  1  0.82692900  0.76874900  0.40515500  1
  C  726  1  0.87201000  0.80142100  0.40615200  1
  C  728  1  0.73511600  0.72883100  0.41377100  1
  C  729  1  0.64608100  0.69068500  0.42250300  1
  C  730  1  0.63999000  0.66516100  0.41292200  1
  C  731  1  0.68555100  0.67275500  0.40369000  1
  C  734  1  0.73322100  0.70436800  0.40390300  1
  C  735  1  0.77879700  0.71216900  0.39474400  1
  C  736  1  0.82510200  0.74419100  0.39534600  1
  C  741  1  0.91872100  0.85878600  0.41679900  1
  C  742  1  0.59311000  0.63278300  0.41296300  1
  C  745  1  0.37886500  0.67914000  0.58023200  1
  C  746  1  0.32264900  0.68684900  0.57284500  1
  C  748  1  0.29483100  0.74729200  0.58231500  1
  C  749  1  0.34993100  0.74206000  0.59010200  1
  C  750  1  0.39112200  0.70775900  0.58891100  1
  C  752  1  0.25092800  0.78031900  0.58324900  1
  C  753  1  0.15397200  0.81601000  0.57624600  1
  C  754  1  0.15861300  0.84473600  0.58505500  1
  C  755  1  0.21403300  0.84041700  0.59284500  1
  C  758  1  0.26097400  0.80854600  0.59208200  1
  C  759  1  0.31664000  0.80369400  0.59974100  1
  C  760  1  0.36082600  0.77075600  0.59874700  1
  C  765  1  0.41863000  0.64384800  0.57949600  1
  C  766  1  0.11105500  0.87657400  0.58567900  1
  C  769  1  0.32799900  0.96865600  0.91355500  1
  C  770  1  0.86762800  0.49299800  0.90618700  1
  C  772  1  0.47237000  0.97642200  0.91557400  1
  C  773  1  0.43704600  0.95143400  0.92335200  1
  C  774  1  0.36493100  0.94809100  0.92219700  1
  C  776  1  0.54393200  0.98171600  0.91645500  1
  C  777  1  0.14577200  0.51242300  0.90941300  1
  C  778  1  0.18697200  0.49555600  0.91815000  1
  C  779  1  0.65293400  0.96978300  0.92591100  1
  C  782  1  0.58153000  0.96236300  0.92521800  1
  C  783  1  0.54643700  0.93694300  0.93288500  1
  C  784  1  0.47483700  0.93148300  0.93195200  1
  C  789  1  0.25514600  0.96646300  0.91281900  1
  C  790  1  0.25844400  0.50393900  0.91874000  1
  C  793  1  0.78686300  0.84888900  0.24693900  1
  C  794  1  0.80356800  0.81690500  0.23957100  1
  C  796  1  0.72639900  0.77279900  0.24897000  1
  C  797  1  0.70657400  0.80295600  0.25675000  1
  C  798  1  0.73757500  0.84069600  0.25558700  1
  C  800  1  0.69859100  0.73436200  0.24985900  1
  C  801  1  0.69375100  0.66808300  0.24282200  1
  C  802  1  0.64787300  0.65591500  0.25155500  1
  C  803  1  0.62623600  0.68582100  0.25931600  1
  C  806  1  0.65078800  0.72523500  0.25862200  1
  C  807  1  0.63020000  0.75549400  0.26628500  1
  C  808  1  0.65778500  0.79403100  0.26534800  1
  C  813  1  0.81994600  0.88643000  0.24620500  1
  C  814  1  0.62473100  0.61598500  0.25215000  1
  C  817  1  0.51648000  0.51587300  0.19596700  1
  C  818  1  0.05234300  0.98833200  0.18908400  1
  C  820  1  0.50829700  0.51681500  0.17192800  1
  C  821  1  0.47418000  0.54698200  0.17820100  1
  C  822  1  0.47910000  0.54601000  0.19027100  1
  C  824  1  0.50156700  0.51478200  0.15995000  1
  C  825  1  0.02624600  0.98039400  0.14260700  1
  C  826  1  0.98993200  0.00868000  0.13608900  1
  C  827  1  0.45826000  0.54047800  0.14193300  1
  C  830  1  0.46256400  0.54372700  0.15397600  1
  C  831  1  0.42996000  0.57434400  0.16021500  1
  C  832  1  0.43519900  0.57574600  0.17224400  1
  C  837  1  0.51288100  0.51143800  0.20808300  1
  C  838  1  0.98974200  0.00631200  0.12400600  1
  C  841  1  0.96318800  0.99915400  0.86255600  1
  C  842  1  0.48641600  0.53078000  0.85562800  1
  C  844  1  0.96560200  0.99427000  0.83851800  1
  C  845  1  0.93754400  0.96219700  0.84483500  1
  C  846  1  0.93667900  0.96530400  0.85690000  1
  C  848  1  0.97185000  0.99177400  0.82653800  1
  C  849  1  0.51083700  0.52110200  0.80915300  1
  C  850  1  0.48653700  0.48870000  0.80268200  1
  C  851  1  0.95469500  0.95705200  0.80856200  1
  C  854  1  0.94786800  0.95772400  0.82060900  1
  C  855  1  0.91837200  0.92618000  0.82689200  1
  C  856  1  0.91384500  0.92824000  0.83892200  1
  C  861  1  0.97162900  0.99971300  0.87467200  1
  C  862  1  0.48994700  0.48960400  0.79059700  1
  C  865  1  0.02244300  0.97997600  0.52923200  1
  C  866  1  0.96193000  0.97692300  0.52261800  1
  C  868  1  0.02419100  0.98501900  0.50521200  1
  C  869  1  0.08747600  0.98620400  0.51123500  1
  C  870  1  0.08549800  0.98342100  0.52330100  1
  C  872  1  0.02294000  0.98991800  0.49324500  1
  C  873  1  0.95711400  0.99522700  0.47609900  1
  C  874  1  0.01703000  0.99898200  0.46939800  1
  C  875  1  0.08115400  0.99881400  0.47504700  1
  C  878  1  0.08517500  0.99486000  0.48706900  1
  C  879  1  0.14823200  0.99544100  0.49306900  1
  C  880  1  0.64584300  0.49192200  0.50557400  1
  C  885  1  0.50996500  0.48514600  0.54134700  1
  C  886  1  0.51523800  0.49993500  0.45730000  1
  H  7  1  0.94420200  0.02008800  0.09950900  1
  H  8  1  0.61680500  0.50171900  0.07855800  1
  H  9  1  0.64024200  0.54169400  0.11188200  1
  H  16  1  0.38146800  0.50078800  0.08593300  1
  H  17  1  0.85960700  0.97341400  0.05139900  1
  H  18  1  0.05312900  0.99740600  0.06421200  1
  H  20  1  0.96622800  0.96090500  0.04085200  1
  H  22  1  0.26497700  0.48099000  0.06281000  1
  H  24  1  0.02864200  0.06104000  0.12162400  1
  H  26  1  0.73511100  0.52825400  0.10034800  1
  H  33  1  0.49054700  0.46079300  0.76609100  1
  H  34  1  0.93530300  0.05745900  0.74532500  1
  H  35  1  0.86256600  0.04903800  0.77858700  1
  H  42  1  0.55449900  0.44065700  0.75273500  1
  H  43  1  0.60452000  0.44256600  0.71809900  1
  H  44  1  0.96995500  0.02651500  0.73087000  1
  H  46  1  0.56883200  0.50173400  0.70749600  1
  H  48  1  0.64164900  0.39191400  0.72954700  1
  H  50  1  0.88806000  0.98355100  0.78835400  1
  H  52  1  0.83618500  0.10345900  0.76708200  1
  H  59  1  0.05602200  0.01469800  0.43286400  1
  H  60  1  0.44140900  0.43791500  0.41198500  1
  H  61  1  0.48991600  0.40603200  0.44529100  1
  H  68  1  0.05755300  0.05595100  0.41934200  1
  H  69  1  0.02843600  0.08036500  0.38476700  1
  H  70  1  0.46851700  0.47132700  0.39758400  1
  H  72  1  0.95683700  0.03314300  0.37418900  1
  H  74  1  0.08657100  0.12403900  0.39620700  1
  H  76  1  0.57482300  0.45168100  0.45504300  1
  H  78  1  0.42198200  0.36542600  0.43376900  1
  H  85  1  0.48526300  0.46947500  0.56545300  1
  H  86  1  0.96631600  0.06984400  0.58708700  1
  H  87  1  0.93677800  0.08028600  0.55186700  1
  H  94  1  0.56023800  0.45117400  0.57875100  1
  H  95  1  0.55513300  0.42988200  0.61388900  1
  H  96  1  0.94928500  0.02530300  0.60015100  1
  H  98  1  0.47165900  0.46818500  0.62481800  1
  H  100  1  0.62012100  0.39021300  0.60183700  1
  H  102  1  0.94060600  0.02229700  0.54092300  1
  H  104  1  0.90067400  0.12954400  0.56377800  1
  H  111  1  0.45994400  0.52006400  0.89880300  1
  H  112  1  0.12174600  0.98528200  0.92029700  1
  H  113  1  0.15279900  0.99669700  0.88511200  1
  H  120  1  0.89507300  0.99149200  0.91208300  1
  H  121  1  0.36571200  0.50425600  0.94724300  1
  H  122  1  0.56246600  0.51458900  0.93370600  1
  H  124  1  0.46481100  0.52699400  0.95816200  1
  H  126  1  0.77380200  0.99143000  0.93520400  1
  H  128  1  0.56321600  0.52719600  0.87444100  1
  H  130  1  0.24383000  0.98568000  0.89690300  1
  H  137  1  0.04812600  0.00716100  0.23221200  1
  H  138  1  0.41486000  0.44374000  0.25369200  1
  H  139  1  0.41666200  0.42244200  0.21850700  1
  H  146  1  0.03767000  0.05393200  0.24549000  1
  H  147  1  0.07141500  0.06220700  0.28064700  1
  H  148  1  0.48844800  0.45869700  0.26710500  1
  H  150  1  0.05582700  0.00128900  0.29157500  1
  H  152  1  0.09823000  0.11456900  0.26860900  1
  H  154  1  0.50717800  0.45193600  0.20784700  1
  H  156  1  0.35453000  0.38246700  0.23029600  1
  H  163  1  0.57623100  0.43175900  0.97127900  1
  H  168  1  0.05255700  0.05598500  0.97108200  1
  H  173  1  0.56266600  0.44176900  0.02867400  1
  H  174  1  0.04097600  0.06547900  0.02497500  1
  H  187  1  0.05842000  0.07159100  0.63807400  1
  H  192  1  0.38388500  0.49753400  0.63770900  1
  H  197  1  0.04905100  0.05949800  0.69540400  1
  H  198  1  0.37472300  0.48678200  0.69159800  1
  H  211  1  0.85749300  0.99276100  0.30469500  1
  H  216  1  0.55584900  0.44271400  0.30443100  1
  H  221  1  0.87992800  0.99436500  0.36208000  1
  H  222  1  0.57648200  0.44360300  0.35831500  1
  H  235  1  0.33082900  0.04827900  0.06607000  1
  H  240  1  0.83496800  0.49590300  0.09886600  1
  H  245  1  0.66966100  0.01572300  0.06336000  1
  H  246  1  0.15537900  0.46421900  0.09617600  1
  H  259  1  0.75816000  0.14128800  0.73281400  1
  H  264  1  0.83486700  0.16958700  0.76559300  1
  H  269  1  0.63733100  0.32691300  0.73011300  1
  H  270  1  0.72214100  0.34565800  0.76289300  1
  H  283  1  0.40439800  0.30749700  0.39950500  1
  H  288  1  0.32347800  0.33170600  0.43227600  1
  H  293  1  0.18634700  0.15428600  0.39678600  1
  H  294  1  0.11581400  0.18729000  0.42956800  1
  H  307  1  0.93064400  0.20472700  0.59482600  1
  H  312  1  0.80987200  0.16696700  0.56687200  1
  H  317  1  0.72132400  0.36207400  0.59866100  1
  H  318  1  0.61553100  0.31652000  0.57002000  1
  H  331  1  0.83901400  0.43032700  0.92781900  1
  H  336  1  0.34591400  0.01047300  0.90006100  1
  H  341  1  0.18048300  0.45519600  0.93202900  1
  H  342  1  0.66581000  0.03122800  0.90344100  1
  H  355  1  0.22387800  0.36253600  0.26120900  1
  H  360  1  0.34060600  0.31903400  0.23344700  1
  H  365  1  0.09060000  0.17934100  0.26543900  1
  H  366  1  0.21193500  0.14865800  0.23684200  1
  H  379  1  0.95191900  0.06621500  0.19497300  1
  H  384  1  0.58145700  0.46630900  0.19261300  1
  H  389  1  0.93133700  0.06116500  0.13735700  1
  H  390  1  0.55142800  0.45730400  0.13880200  1
  H  403  1  0.42002600  0.44166800  0.86164000  1
  H  408  1  0.00482500  0.05642400  0.85911600  1
  H  413  1  0.43701500  0.43321100  0.80401400  1
  H  414  1  0.03281100  0.04519200  0.80531000  1
  H  427  1  0.13009800  0.98643200  0.52784700  1
  H  432  1  0.40816700  0.47364200  0.52582400  1
  H  437  1  0.12517800  0.00169300  0.47033200  1
  H  438  1  0.41053800  0.49376600  0.47204200  1
  H  451  1  0.44420100  0.52008800  0.09950900  1
  H  452  1  0.11680700  0.00171900  0.07855800  1
  H  453  1  0.14024300  0.04169200  0.11188200  1
  H  460  1  0.88146900  0.00078900  0.08593300  1
  H  461  1  0.35960700  0.47341400  0.05139900  1
  H  462  1  0.55313100  0.49740300  0.06421200  1
  H  464  1  0.46623200  0.46090500  0.04085200  1
  H  466  1  0.76497700  0.98099300  0.06281000  1
  H  468  1  0.52863800  0.56104100  0.12162400  1
  H  470  1  0.23511200  0.02825400  0.10034800  1
  H  477  1  0.99056400  0.96079200  0.76608900  1
  H  478  1  0.43530100  0.55746000  0.74532500  1
  H  479  1  0.36256100  0.54904500  0.77858800  1
  H  486  1  0.05449600  0.94064800  0.75273200  1
  H  487  1  0.10449000  0.94255400  0.71809700  1
  H  488  1  0.46994000  0.52651400  0.73086900  1
  H  490  1  0.06872400  0.00169000  0.70749200  1
  H  492  1  0.14164400  0.89190800  0.72954300  1
  H  494  1  0.38805400  0.48356000  0.78835700  1
  H  496  1  0.33619000  0.60346700  0.76708300  1
  H  503  1  0.55711300  0.51443500  0.43283600  1
  H  504  1  0.94170600  0.93779300  0.41192000  1
  H  505  1  0.98933200  0.90615700  0.44528100  1
  H  512  1  0.55737300  0.55597800  0.41937500  1
  H  513  1  0.52836000  0.58030800  0.38478800  1
  H  514  1  0.96831100  0.97143400  0.39755400  1
  H  516  1  0.45674500  0.53308900  0.37422000  1
  H  518  1  0.58649300  0.62400600  0.39621800  1
  H  520  1  0.07427100  0.95229700  0.45502200  1
  H  522  1  0.92190400  0.86542300  0.43373500  1
  H  529  1  0.00167800  0.97271100  0.56545100  1
  H  530  1  0.45644300  0.56767800  0.58697100  1
  H  531  1  0.42474500  0.57775300  0.55176300  1
  H  538  1  0.07142700  0.95268500  0.57920400  1
  H  539  1  0.05283400  0.92893600  0.61410200  1
  H  540  1  0.44186800  0.52335400  0.60036300  1
  H  542  1  0.97030500  0.96859700  0.62464200  1
  H  544  1  0.11952700  0.88878100  0.60231000  1
  H  546  1  0.42372300  0.51781700  0.54105900  1
  H  548  1  0.39576800  0.62875500  0.56355500  1
  H  555  1  0.95994300  0.02006100  0.89880300  1
  H  556  1  0.62174500  0.48528300  0.92029700  1
  H  557  1  0.65279900  0.49669800  0.88511200  1
  H  564  1  0.39507200  0.49149300  0.91208300  1
  H  565  1  0.86571300  0.00425500  0.94724300  1
  H  566  1  0.06246600  0.01459000  0.93370600  1
  H  568  1  0.96481100  0.02699500  0.95816200  1
  H  570  1  0.27380300  0.49142700  0.93520400  1
  H  572  1  0.06321900  0.02719500  0.87444100  1
  H  574  1  0.74383300  0.48568000  0.89690300  1
  H  581  1  0.54812600  0.50716100  0.23221300  1
  H  582  1  0.91486000  0.94374200  0.25369100  1
  H  583  1  0.91665900  0.92244200  0.21850700  1
  H  590  1  0.53766900  0.55393000  0.24549200  1
  H  591  1  0.57141600  0.56220600  0.28064700  1
  H  592  1  0.98845700  0.95869700  0.26710400  1
  H  594  1  0.55583200  0.50128900  0.29157600  1
  H  596  1  0.59823000  0.61456800  0.26861000  1
  H  598  1  0.00717600  0.95193500  0.20784600  1
  H  600  1  0.85453000  0.88246700  0.23029600  1
  H  607  1  0.07623200  0.93175800  0.97127900  1
  H  612  1  0.55255800  0.55598400  0.97108200  1
  H  617  1  0.06266400  0.94176800  0.02867400  1
  H  618  1  0.54097600  0.56547800  0.02497500  1
  H  631  1  0.55827600  0.57156100  0.63799400  1
  H  636  1  0.88399500  0.99757800  0.63767500  1
  H  641  1  0.54928700  0.55954700  0.69538200  1
  H  642  1  0.87460300  0.98664600  0.69161100  1
  H  655  1  0.35750200  0.49276100  0.30470000  1
  H  660  1  0.05583900  0.94270500  0.30442600  1
  H  665  1  0.37992800  0.49436500  0.36208700  1
  H  666  1  0.07648300  0.94360600  0.35830600  1
  H  679  1  0.83082700  0.54828000  0.06607000  1
  H  684  1  0.33496600  0.99590300  0.09886600  1
  H  689  1  0.16966000  0.51572200  0.06336000  1
  H  690  1  0.65537800  0.96421900  0.09617600  1
  H  703  1  0.25816700  0.64129000  0.73281500  1
  H  708  1  0.33485800  0.66959500  0.76559400  1
  H  713  1  0.13733500  0.82691000  0.73011000  1
  H  714  1  0.22213800  0.84566100  0.76289000  1
  H  727  1  0.90438200  0.80742600  0.39948400  1
  H  732  1  0.82345300  0.83170600  0.43225100  1
  H  737  1  0.68628400  0.65424000  0.39679000  1
  H  738  1  0.61579500  0.68730000  0.42957000  1
  H  751  1  0.43066000  0.70362700  0.59454300  1
  H  756  1  0.30743000  0.66733000  0.56669500  1
  H  761  1  0.22203000  0.86137700  0.59900400  1
  H  762  1  0.11584000  0.81688500  0.57025100  1
  H  775  1  0.33901100  0.93032700  0.92781900  1
  H  780  1  0.84591500  0.51047200  0.90006100  1
  H  785  1  0.68048000  0.95519900  0.93202900  1
  H  786  1  0.16581100  0.53122700  0.90344100  1
  H  799  1  0.72387800  0.86253600  0.26120900  1
  H  804  1  0.84060500  0.81903400  0.23344700  1
  H  809  1  0.59060000  0.67934100  0.26544000  1
  H  810  1  0.71193100  0.64865600  0.23684200  1
  H  823  1  0.45192000  0.56621300  0.19497300  1
  H  828  1  0.08145800  0.96631200  0.19261300  1
  H  833  1  0.43133700  0.56116500  0.13735700  1
  H  834  1  0.05142800  0.95730400  0.13880200  1
  H  847  1  0.92003100  0.94166700  0.86163200  1
  H  852  1  0.50481700  0.55642600  0.85911600  1
  H  857  1  0.93701400  0.93321400  0.80401300  1
  H  858  1  0.53281100  0.54519200  0.80531100  1
  H  871  1  0.62281200  0.48817900  0.52829400  1
  H  876  1  0.91483600  0.97408400  0.52638600  1
  H  881  1  0.62644800  0.50137800  0.47067800  1
  H  882  1  0.90950000  0.99425800  0.47242900  1
  N  19  1  0.98735300  0.98110900  0.04568200  1
  N  21  1  0.28937700  0.48229200  0.07006000  1
  N  23  1  0.01221900  0.03750900  0.11760800  1
  N  25  1  0.70906000  0.52674000  0.09325600  1
  N  45  1  0.52797900  0.50200100  0.71233200  1
  N  47  1  0.62755100  0.40348600  0.73679700  1
  N  49  1  0.93143300  0.98651500  0.78425500  1
  N  51  1  0.85142500  0.09117700  0.75998800  1
  N  71  1  0.97663200  0.01253700  0.37903200  1
  N  73  1  0.07628200  0.11117600  0.40345300  1
  N  75  1  0.54848100  0.47192000  0.45098800  1
  N  77  1  0.43274600  0.37921600  0.42667900  1
  N  97  1  0.47921600  0.49006100  0.61949600  1
  N  99  1  0.60003600  0.40006000  0.59476700  1
  N  101  1  0.97313400  0.00969600  0.54612600  1
  N  103  1  0.92174500  0.11927100  0.57070500  1
  N  123  1  0.49385200  0.51231000  0.95283900  1
  N  125  1  0.79852300  0.99678000  0.92813600  1
  N  127  1  0.52913100  0.51560900  0.87955000  1
  N  129  1  0.21767100  0.98103500  0.90386000  1
  N  149  1  0.01929000  0.99416600  0.28623700  1
  N  151  1  0.09392300  0.09953200  0.26154300  1
  N  153  1  0.50693600  0.47479200  0.21295500  1
  N  155  1  0.36059800  0.39787800  0.23724800  1
  N  159  1  0.06442300  0.02982300  0.98675000  1
  N  169  1  0.05948900  0.03395700  0.01036200  1
  N  183  1  0.41689800  0.51654600  0.65339500  1
  N  193  1  0.41284400  0.51192200  0.67700800  1
  N  207  1  0.51078700  0.44970700  0.32011400  1
  N  217  1  0.51971500  0.45003900  0.34372300  1
  N  231  1  0.92582700  0.49988100  0.09042300  1
  N  241  1  0.06690100  0.48539200  0.08918500  1
  N  255  1  0.78339100  0.21301700  0.75715600  1
  N  265  1  0.73455700  0.29080700  0.75591300  1
  N  279  1  0.28410500  0.28425200  0.42383600  1
  N  289  1  0.19187000  0.22093700  0.42258900  1
  N  303  1  0.78403400  0.21924400  0.57423300  1
  N  313  1  0.69809400  0.28512200  0.57564000  1
  N  327  1  0.43640800  0.99607800  0.90743700  1
  N  337  1  0.57741300  0.00556500  0.90896800  1
  N  351  1  0.27383200  0.28096600  0.24082600  1
  N  361  1  0.21762400  0.20569700  0.24236800  1
  N  375  1  0.54631300  0.48933500  0.17756400  1
  N  385  1  0.53133700  0.48458600  0.15408100  1
  N  399  1  0.98781200  0.02710700  0.84411000  1
  N  409  1  0.00215100  0.02169600  0.82062800  1
  N  423  1  0.46053200  0.47981100  0.51080500  1
  N  433  1  0.46127400  0.48994200  0.48734000  1
  N  463  1  0.48735400  0.48110900  0.04568200  1
  N  465  1  0.78937700  0.98229100  0.07006000  1
  N  467  1  0.51222000  0.53750800  0.11760800  1
  N  469  1  0.20906100  0.02673900  0.09325600  1
  N  489  1  0.02789800  0.00196300  0.71233400  1
  N  491  1  0.12754800  0.90348300  0.73679200  1
  N  493  1  0.43142300  0.48652200  0.78425700  1
  N  495  1  0.35142700  0.59118400  0.75999000  1
  N  515  1  0.47658200  0.51247900  0.37905700  1
  N  517  1  0.57621100  0.61115300  0.40346600  1
  N  519  1  0.04712200  0.97223400  0.45099000  1
  N  521  1  0.93272600  0.87918900  0.42664400  1
  N  541  1  0.97933500  0.99052600  0.61940700  1
  N  543  1  0.10166100  0.89959100  0.59518800  1
  N  545  1  0.45794000  0.50649100  0.54619900  1
  N  547  1  0.41557900  0.61791200  0.57051600  1
  N  567  1  0.99385300  0.01231000  0.95283900  1
  N  569  1  0.29852500  0.49678100  0.92813600  1
  N  571  1  0.02913500  0.01560700  0.87955000  1
  N  573  1  0.71767400  0.48103200  0.90386000  1
  N  593  1  0.51929300  0.49416300  0.28623900  1
  N  595  1  0.59392200  0.59953100  0.26154400  1
  N  597  1  0.00693500  0.97479200  0.21295500  1
  N  599  1  0.86059800  0.89787800  0.23724700  1
  N  603  1  0.56442400  0.52982200  0.98675000  1
  N  613  1  0.55948900  0.53395700  0.01036200  1
  N  627  1  0.91688000  0.01646000  0.65338700  1
  N  637  1  0.91272600  0.01178600  0.67701900  1
  N  651  1  0.01077200  0.94969700  0.32010800  1
  N  661  1  0.01970500  0.95002600  0.34371500  1
  N  675  1  0.42582800  0.99987900  0.09042300  1
  N  685  1  0.56690100  0.98539200  0.08918500  1
  N  699  1  0.28338100  0.71302300  0.75715600  1
  N  709  1  0.23455300  0.79081200  0.75591000  1
  N  723  1  0.78408000  0.78424000  0.42382000  1
  N  733  1  0.69185200  0.72092800  0.42258500  1
  N  747  1  0.28351200  0.71963000  0.57412700  1
  N  757  1  0.19849400  0.78528400  0.57574500  1
  N  771  1  0.93640900  0.49607800  0.90743700  1
  N  781  1  0.07741200  0.50556600  0.90896800  1
  N  795  1  0.77383200  0.78096500  0.24082600  1
  N  805  1  0.71762300  0.70569600  0.24236800  1
  N  819  1  0.04631100  0.98933400  0.17756400  1
  N  829  1  0.03133500  0.98458900  0.15408100  1
  N  843  1  0.48780700  0.52710700  0.84411200  1
  N  853  1  0.50215100  0.52169500  0.82063000  1
  N  867  1  0.96468700  0.98002400  0.51108800  1
  N  877  1  0.96209500  0.99044900  0.48756200  1
  O  175  1  0.58517000  0.39232000  0.01233200  1
  O  176  1  0.59171600  0.38835400  0.98919700  1
  O  179  1  0.58031800  0.46384600  0.95092200  1
  O  180  1  0.04870100  0.04125000  0.04608200  1
  O  199  1  0.11219500  0.09555200  0.67911800  1
  O  200  1  0.11527400  0.10091400  0.65599000  1
  O  203  1  0.01066900  0.05779700  0.61780100  1
  O  204  1  0.40710900  0.50255200  0.71273600  1
  O  223  1  0.79423800  0.00775300  0.34577300  1
  O  224  1  0.78476500  0.00653800  0.32263800  1
  O  227  1  0.90354000  0.97484300  0.28431400  1
  O  228  1  0.53647700  0.45184700  0.37945600  1
  O  247  1  0.57076100  0.04428500  0.05176100  1
  O  248  1  0.43411500  0.05811700  0.05294100  1
  O  251  1  0.21414200  0.04356000  0.07392200  1
  O  252  1  0.27669600  0.46598300  0.08936700  1
  O  271  1  0.64384800  0.26316400  0.71852700  1
  O  272  1  0.69153400  0.18795000  0.71970400  1
  O  275  1  0.82382300  0.08536900  0.74064200  1
  O  276  1  0.65866300  0.40539800  0.75609000  1
  O  295  1  0.27871400  0.18943000  0.38520300  1
  O  296  1  0.36770900  0.25087000  0.38638600  1
  O  299  1  0.45543500  0.36828700  0.40734000  1
  O  300  1  0.05789100  0.12571700  0.42275000  1
  O  319  1  0.82686600  0.33119900  0.60807700  1
  O  320  1  0.91173500  0.26789100  0.60645300  1
  O  323  1  0.97020500  0.13979400  0.58799000  1
  O  324  1  0.56373400  0.37967200  0.57665300  1
  O  343  1  0.08059500  0.41773200  0.94132200  1
  O  344  1  0.94304700  0.40723600  0.93952500  1
  O  347  1  0.72186800  0.44546200  0.92101600  1
  O  348  1  0.78604100  0.02548500  0.91007200  1
  O  367  1  0.08433800  0.24801500  0.27473000  1
  O  368  1  0.13731000  0.32204900  0.27292200  1
  O  371  1  0.30512300  0.41355000  0.25440400  1
  O  372  1  0.14323600  0.09139800  0.24348800  1
  O  391  1  0.89190100  0.10226900  0.15481100  1
  O  392  1  0.90197400  0.10497900  0.17794700  1
  O  395  1  0.99854100  0.04422300  0.21434700  1
  O  396  1  0.48320500  0.46978900  0.11928200  1
  O  415  1  0.39547800  0.39310900  0.82153400  1
  O  416  1  0.38673100  0.39706900  0.84467000  1
  O  419  1  0.42981500  0.47618600  0.88097900  1
  O  420  1  0.04846900  0.00403400  0.78588500  1
  O  439  1  0.20846500  0.00058800  0.48746200  1
  O  440  1  0.21058000  0.99298000  0.51054900  1
  O  443  1  0.07451200  0.97163500  0.54744100  1
  O  444  1  0.96109900  0.02123500  0.45263000  1
  O  619  1  0.08517000  0.89232000  0.01233200  1
  O  620  1  0.09171500  0.88835400  0.98919700  1
  O  623  1  0.08031900  0.96384500  0.95092200  1
  O  624  1  0.54870200  0.54124900  0.04608200  1
  O  643  1  0.61235000  0.59563600  0.67907800  1
  O  644  1  0.61532600  0.60098600  0.65594300  1
  O  647  1  0.50847800  0.55756400  0.61761900  1
  O  648  1  0.90700900  0.00249700  0.71275600  1
  O  667  1  0.29424500  0.50775700  0.34577800  1
  O  668  1  0.28477300  0.50653600  0.32264300  1
  O  671  1  0.40354400  0.47484000  0.28431800  1
  O  672  1  0.03646100  0.95187600  0.37944900  1
  O  691  1  0.07075900  0.54428400  0.05176100  1
  O  692  1  0.93411400  0.55811800  0.05294100  1
  O  695  1  0.71414000  0.54356100  0.07392200  1
  O  696  1  0.77669600  0.96598300  0.08936700  1
  O  715  1  0.14384800  0.76315900  0.71852400  1
  O  716  1  0.19153700  0.68794600  0.71970300  1
  O  719  1  0.32383200  0.58537700  0.74064400  1
  O  720  1  0.15868100  0.90540400  0.75608500  1
  O  739  1  0.77864700  0.68936300  0.38519800  1
  O  740  1  0.86765800  0.75079800  0.38637300  1
  O  743  1  0.95548800  0.86819700  0.40731100  1
  O  744  1  0.55784100  0.62573100  0.42276100  1
  O  763  1  0.32819400  0.83022600  0.60822800  1
  O  764  1  0.41309100  0.76693200  0.60631900  1
  O  767  1  0.46650600  0.63757300  0.58772300  1
  O  768  1  0.06584000  0.88066800  0.57691700  1
  O  787  1  0.58059400  0.91773500  0.94132200  1
  O  788  1  0.44304300  0.90723900  0.93952500  1
  O  791  1  0.22186500  0.94546500  0.92101600  1
  O  792  1  0.28604200  0.52548600  0.91007200  1
  O  811  1  0.58433800  0.74801500  0.27473000  1
  O  812  1  0.63731100  0.82204800  0.27292200  1
  O  815  1  0.80512400  0.91354900  0.25440400  1
  O  816  1  0.64323600  0.59139700  0.24348900  1
  O  835  1  0.39190100  0.60227000  0.15481100  1
  O  836  1  0.40197400  0.60497900  0.17794700  1
  O  839  1  0.49854100  0.54422200  0.21434700  1
  O  840  1  0.98320100  0.96979200  0.11928200  1
  O  859  1  0.89547500  0.89311100  0.82153200  1
  O  860  1  0.88673500  0.89706900  0.84466900  1
  O  863  1  0.92981600  0.97618500  0.88097900  1
  O  864  1  0.54846500  0.50402800  0.78588600  1
  O  883  1  0.70757700  0.50032000  0.48817200  1
  O  884  1  0.70623200  0.49376000  0.51130400  1
  O  887  1  0.56609700  0.47577400  0.54764400  1
  O  888  1  0.46435400  0.52199400  0.45259200  1
