# generated using pymatgen
data_H36C47N4
_symmetry_space_group_name_H-M   'P 1'
_cell_length_a   33.18810000
_cell_length_b   37.81460000
_cell_length_c   37.81460000
_cell_angle_alpha   90.00000000
_cell_angle_beta   90.00280000
_cell_angle_gamma   90.00000000
_symmetry_Int_Tables_number   1
_chemical_formula_structural   H36C47N4
_chemical_formula_sum   'H576 C752 N64'
_cell_volume   47457.12351896
_cell_formula_units_Z   16
loop_
 _symmetry_equiv_pos_site_id
 _symmetry_equiv_pos_as_xyz
  1  'x, y, z'
loop_
 _atom_site_type_symbol
 _atom_site_label
 _atom_site_symmetry_multiplicity
 _atom_site_fract_x
 _atom_site_fract_y
 _atom_site_fract_z
 _atom_site_occupancy
  H  25  1  0.00877600  0.23772900  0.94426300  1
  H  26  1  0.00976500  0.17831300  0.96328700  1
  H  27  1  0.01089900  0.08717000  0.05485300  1
  H  28  1  0.01121900  0.06843000  0.11436400  1
  H  29  1  0.00495300  0.17468300  0.14791300  1
  H  30  1  0.00470000  0.27172600  0.05045600  1
  H  31  1  0.08548400  0.19177400  0.06946900  1
  H  32  1  0.14287300  0.26061400  0.14114700  1
  H  33  1  0.07900500  0.28217700  0.15946100  1
  H  34  1  0.92720500  0.19224400  0.06736500  1
  H  35  1  0.93140500  0.28342800  0.15671300  1
  H  36  1  0.86806400  0.26414200  0.13486600  1
  H  39  1  0.98265600  0.13866200  0.01506300  1
  H  40  1  0.03609400  0.13990200  0.01612500  1
  H  42  1  0.00501000  0.25968500  0.16811900  1
  H  43  1  0.00553700  0.29260100  0.13473300  1
  H  47  1  0.00470000  0.31448200  0.00438000  1
  H  48  1  0.00871900  0.12879600  0.19086600  1
  H  49  1  0.85498400  0.19981500  0.06375500  1
  H  51  1  0.15747900  0.18880100  0.07773600  1
  H  76  1  0.00880700  0.77431200  0.82099600  1
  H  77  1  0.00976300  0.83371800  0.80196600  1
  H  78  1  0.01087900  0.92485200  0.71040400  1
  H  79  1  0.01120900  0.94358800  0.65089700  1
  H  80  1  0.00491100  0.83733800  0.61734400  1
  H  81  1  0.00467300  0.74029400  0.71481000  1
  H  82  1  0.08544500  0.82025500  0.69577000  1
  H  83  1  0.14280500  0.75141900  0.62407200  1
  H  84  1  0.07893000  0.72983500  0.60579300  1
  H  85  1  0.92716300  0.81978900  0.69789200  1
  H  86  1  0.93133900  0.72857300  0.60858000  1
  H  87  1  0.86800300  0.74787500  0.63042100  1
  H  90  1  0.98262900  0.87336100  0.75019200  1
  H  91  1  0.03606400  0.87212100  0.74913000  1
  H  93  1  0.00493500  0.75231500  0.59715100  1
  H  94  1  0.00547700  0.71940800  0.63054800  1
  H  98  1  0.00476300  0.69754000  0.76089000  1
  H  99  1  0.00868500  0.88322300  0.57439000  1
  H  100  1  0.85494700  0.81220500  0.70152500  1
  H  102  1  0.15744700  0.82329300  0.68738200  1
  H  127  1  0.00878000  0.94435200  0.11438100  1
  H  128  1  0.00975400  0.92533300  0.05496200  1
  H  129  1  0.01087700  0.83377100  0.96380800  1
  H  130  1  0.01120200  0.77426200  0.94507000  1
  H  131  1  0.00489900  0.74070900  0.05131900  1
  H  132  1  0.00465500  0.83815800  0.14836400  1
  H  133  1  0.08543600  0.81910700  0.06839500  1
  H  134  1  0.14278800  0.74745000  0.13727900  1
  H  135  1  0.07890800  0.72918400  0.15886700  1
  H  136  1  0.92716600  0.82124900  0.06883400  1
  H  137  1  0.93130300  0.73196100  0.16007700  1
  H  138  1  0.86797600  0.75378800  0.14073800  1
  H  141  1  0.98262900  0.87356200  0.01530000  1
  H  142  1  0.03606400  0.87249700  0.01654700  1
  H  144  1  0.00491400  0.72053400  0.13637700  1
  H  145  1  0.00544700  0.75394700  0.16926700  1
  H  149  1  0.00471200  0.88422200  0.19112600  1
  H  150  1  0.00867800  0.69775700  0.00543500  1
  H  151  1  0.85495300  0.82483200  0.07631000  1
  H  153  1  0.15743000  0.81072100  0.06536700  1
  H  178  1  0.00882200  0.06766200  0.65092900  1
  H  179  1  0.00981200  0.08669400  0.71034500  1
  H  180  1  0.01092100  0.17829000  0.80148200  1
  H  181  1  0.01122400  0.23781500  0.82020000  1
  H  182  1  0.00500700  0.27131900  0.71393200  1
  H  183  1  0.00476900  0.17384900  0.61692100  1
  H  184  1  0.08554400  0.19290100  0.69689100  1
  H  185  1  0.14291800  0.26452800  0.62799100  1
  H  186  1  0.07904300  0.28280900  0.60639900  1
  H  187  1  0.92727700  0.19078400  0.69643500  1
  H  188  1  0.93144200  0.28001600  0.60513400  1
  H  189  1  0.86810900  0.25817400  0.62444700  1
  H  192  1  0.98270700  0.13848100  0.74998800  1
  H  193  1  0.03614300  0.13953900  0.74875800  1
  H  195  1  0.00504300  0.29147200  0.62887700  1
  H  196  1  0.00558600  0.25805200  0.59599300  1
  H  200  1  0.00477200  0.12778000  0.57417100  1
  H  201  1  0.00873300  0.31428600  0.75980200  1
  H  202  1  0.85505900  0.18713300  0.68884500  1
  H  204  1  0.15753400  0.20121600  0.69988500  1
  H  229  1  0.50891400  0.73791900  0.44452500  1
  H  230  1  0.50964600  0.67851900  0.46354900  1
  H  231  1  0.51063700  0.58736300  0.55495300  1
  H  232  1  0.51075200  0.56850500  0.61442000  1
  H  233  1  0.50479200  0.67471000  0.64816800  1
  H  234  1  0.50400900  0.77193200  0.55069500  1
  H  235  1  0.58501000  0.69346800  0.56845600  1
  H  236  1  0.64229900  0.76435600  0.63818900  1
  H  237  1  0.57833600  0.78335900  0.65894200  1
  H  238  1  0.42693600  0.69153500  0.56834400  1
  H  239  1  0.43066000  0.78153400  0.65888100  1
  H  240  1  0.36738400  0.76025400  0.63883500  1
  H  243  1  0.48239800  0.63881200  0.51530600  1
  H  244  1  0.53583600  0.64020300  0.51630000  1
  H  246  1  0.50473500  0.75913800  0.66880300  1
  H  247  1  0.50444900  0.79242400  0.63577900  1
  H  251  1  0.50513200  0.81470100  0.50453100  1
  H  252  1  0.50782000  0.62868100  0.69104900  1
  H  253  1  0.35473200  0.69167200  0.57115700  1
  H  255  1  0.65712100  0.69778100  0.56888500  1
  H  280  1  0.50896500  0.27410600  0.32070200  1
  H  281  1  0.50966100  0.33349800  0.30167500  1
  H  282  1  0.51060400  0.42464800  0.21028200  1
  H  283  1  0.51071600  0.44350900  0.15081900  1
  H  284  1  0.50469900  0.33730900  0.11706200  1
  H  285  1  0.50395100  0.24007900  0.21453700  1
  H  286  1  0.58494400  0.31849100  0.19678500  1
  H  287  1  0.64217500  0.24764900  0.12697600  1
  H  288  1  0.57819500  0.22870300  0.10620300  1
  H  289  1  0.42687000  0.32044000  0.19697200  1
  H  290  1  0.43051800  0.23055000  0.10632500  1
  H  291  1  0.36725500  0.25176600  0.12647000  1
  H  294  1  0.48235900  0.37320300  0.24992800  1
  H  295  1  0.53579400  0.37181200  0.24892600  1
  H  297  1  0.50459300  0.25297700  0.09637800  1
  H  298  1  0.50431900  0.21964400  0.12935200  1
  H  302  1  0.50519300  0.19731000  0.26070200  1
  H  303  1  0.50773000  0.38333900  0.07418500  1
  H  304  1  0.35466600  0.32013000  0.19438700  1
  H  306  1  0.65705700  0.31410900  0.19637600  1
  H  331  1  0.50891400  0.44407200  0.61458600  1
  H  332  1  0.50963400  0.42506300  0.55517800  1
  H  333  1  0.51061000  0.33368100  0.46399900  1
  H  334  1  0.51072500  0.27421400  0.44513100  1
  H  335  1  0.50465600  0.24045100  0.55132200  1
  H  336  1  0.50388200  0.33789600  0.64856800  1
  H  337  1  0.58490500  0.32021800  0.57026800  1
  H  338  1  0.64206100  0.25030100  0.64105800  1
  H  339  1  0.57806200  0.22945300  0.65987100  1
  H  340  1  0.42683600  0.32043200  0.56821200  1
  H  341  1  0.43039200  0.22962300  0.65794200  1
  H  342  1  0.36715200  0.24984900  0.63675100  1
  H  345  1  0.48234400  0.37332700  0.51544900  1
  H  346  1  0.53577900  0.37231700  0.51685300  1
  H  348  1  0.50447900  0.21967600  0.63549900  1
  H  349  1  0.50418900  0.25257000  0.66891200  1
  H  353  1  0.50511400  0.38404800  0.69135000  1
  H  354  1  0.50773600  0.19757900  0.50530000  1
  H  355  1  0.35463900  0.31792000  0.56852300  1
  H  357  1  0.65702100  0.31998200  0.57491700  1
  H  382  1  0.50896200  0.56794000  0.15071200  1
  H  383  1  0.50967600  0.58696900  0.21011400  1
  H  384  1  0.51063400  0.67839700  0.30126500  1
  H  385  1  0.51074900  0.73787900  0.32010700  1
  H  386  1  0.50478300  0.77158600  0.21389000  1
  H  387  1  0.50402700  0.67410800  0.11669200  1
  H  388  1  0.58501000  0.69186800  0.19513400  1
  H  389  1  0.64227800  0.76165000  0.12428600  1
  H  390  1  0.57830600  0.78241200  0.10530300  1
  H  391  1  0.42694500  0.69169300  0.19704500  1
  H  392  1  0.43062100  0.78230900  0.10712700  1
  H  393  1  0.36735100  0.76218700  0.12835400  1
  H  396  1  0.48240100  0.63873000  0.24981400  1
  H  397  1  0.53583900  0.63972900  0.24843500  1
  H  399  1  0.50469900  0.79224700  0.12955000  1
  H  400  1  0.50442100  0.75926000  0.09623100  1
  H  404  1  0.50520800  0.62794800  0.07392600  1
  H  405  1  0.50782900  0.81447700  0.25990000  1
  H  406  1  0.35474700  0.69435400  0.19679600  1
  H  408  1  0.65712400  0.69233300  0.19085000  1
  H  414  1  0.06394800  0.97427700  0.19594800  1
  H  415  1  0.06498100  0.03722100  0.19593500  1
  H  418  1  0.93286100  0.93980100  0.16260300  1
  H  419  1  0.91933800  0.97536400  0.13543200  1
  H  420  1  0.90640900  0.97544400  0.18104000  1
  H  422  1  0.93483700  0.07495400  0.16309200  1
  H  423  1  0.90737900  0.03974900  0.18116600  1
  H  424  1  0.92034400  0.03995600  0.13556700  1
  H  432  1  0.06398300  0.03771800  0.56938100  1
  H  433  1  0.06499000  0.97478300  0.56937000  1
  H  436  1  0.93289400  0.07222700  0.60266500  1
  H  437  1  0.91930800  0.03665200  0.62979400  1
  H  438  1  0.90645400  0.03660800  0.58416800  1
  H  440  1  0.93480700  0.93707200  0.60210700  1
  H  441  1  0.90738800  0.97229700  0.58402000  1
  H  442  1  0.92029300  0.97206400  0.62963200  1
  H  450  1  0.06391100  0.69267200  0.85093100  1
  H  451  1  0.06492400  0.69262400  0.91385900  1
  H  454  1  0.93287000  0.72611900  0.81644200  1
  H  455  1  0.91928400  0.75322300  0.85203900  1
  H  456  1  0.90641800  0.70760000  0.85204300  1
  H  458  1  0.93478900  0.72547700  0.95159900  1
  H  459  1  0.90735500  0.70743300  0.91636000  1
  H  460  1  0.92029300  0.75304000  0.91663000  1
  H  468  1  0.06399600  0.31922300  0.91435600  1
  H  469  1  0.06503600  0.31929500  0.85140200  1
  H  472  1  0.93289100  0.28588700  0.94877200  1
  H  473  1  0.91935300  0.25878600  0.91316100  1
  H  474  1  0.90643600  0.30439800  0.91316800  1
  H  476  1  0.93484600  0.28660100  0.81362000  1
  H  477  1  0.90737900  0.30457300  0.84886700  1
  H  478  1  0.92039600  0.25898600  0.84856100  1
  H  486  1  0.56388500  0.47441200  0.69613100  1
  H  487  1  0.56458100  0.53735900  0.69603300  1
  H  490  1  0.43296500  0.43935400  0.66284200  1
  H  491  1  0.41935200  0.47475900  0.63549800  1
  H  492  1  0.40634700  0.47498900  0.68108800  1
  H  494  1  0.43435400  0.57451400  0.66285300  1
  H  495  1  0.40702800  0.53929500  0.68107500  1
  H  496  1  0.42001500  0.53935000  0.63547900  1
  H  504  1  0.56392200  0.53756200  0.06917700  1
  H  505  1  0.56456600  0.47462400  0.06924700  1
  H  508  1  0.43301300  0.57268900  0.10241700  1
  H  509  1  0.41933100  0.53727700  0.12972200  1
  H  510  1  0.40639200  0.53708600  0.08411500  1
  H  512  1  0.43429400  0.43753000  0.10233900  1
  H  513  1  0.40701600  0.47277500  0.08410600  1
  H  514  1  0.41994800  0.47269100  0.12971400  1
  H  522  1  0.56385800  0.19249300  0.35106300  1
  H  523  1  0.56451200  0.19253600  0.41399400  1
  H  526  1  0.43298900  0.22587200  0.31596300  1
  H  527  1  0.41929800  0.25315100  0.35139300  1
  H  528  1  0.40636200  0.20754500  0.35155400  1
  H  530  1  0.43428200  0.22572300  0.45112500  1
  H  531  1  0.40699200  0.20752700  0.41587000  1
  H  532  1  0.41994800  0.25312800  0.41598400  1
  H  540  1  0.56395800  0.81938700  0.41419800  1
  H  541  1  0.56464800  0.81938700  0.35124000  1
  H  544  1  0.43301600  0.78612000  0.44920500  1
  H  545  1  0.41937600  0.75886100  0.41374500  1
  H  546  1  0.40639200  0.80445700  0.41361700  1
  H  548  1  0.43435700  0.78639200  0.31404600  1
  H  549  1  0.40703400  0.80450400  0.34931900  1
  H  550  1  0.42006600  0.75891900  0.34914500  1
  H  558  1  0.76224300  0.26193500  0.07131300  1
  H  559  1  0.70695200  0.28776500  0.10243000  1
  H  562  1  0.83673600  0.19603500  0.15456200  1
  H  563  1  0.79740900  0.18497800  0.18318800  1
  H  564  1  0.82874800  0.22195500  0.19240400  1
  H  566  1  0.72007700  0.25322800  0.22160600  1
  H  567  1  0.77278500  0.25070100  0.22408700  1
  H  568  1  0.74356700  0.21224200  0.21561900  1
  H  576  1  0.76224300  0.75002000  0.69392600  1
  H  577  1  0.70701200  0.72413300  0.66277500  1
  H  580  1  0.83667000  0.81604700  0.61073700  1
  H  581  1  0.79734200  0.82707800  0.58209500  1
  H  582  1  0.82873000  0.79012900  0.57288300  1
  H  584  1  0.72011000  0.75876000  0.54362500  1
  H  585  1  0.77281900  0.76132500  0.54117100  1
  H  586  1  0.74356100  0.79976300  0.54962700  1
  H  594  1  0.76233000  0.81731400  0.13862300  1
  H  595  1  0.70707200  0.78619700  0.16450100  1
  H  598  1  0.83664900  0.73410300  0.07253700  1
  H  599  1  0.79725200  0.70555000  0.06145900  1
  H  600  1  0.82863400  0.69621500  0.09837900  1
  H  602  1  0.72001700  0.66706000  0.12978400  1
  H  603  1  0.77272200  0.66454500  0.12720100  1
  H  604  1  0.74346200  0.67307900  0.08878200  1
  H  612  1  0.76209200  0.19465700  0.62703400  1
  H  613  1  0.70675300  0.22576800  0.60126100  1
  H  616  1  0.83693800  0.27800100  0.69249900  1
  H  617  1  0.79771000  0.30675700  0.70349000  1
  H  618  1  0.82901900  0.31576400  0.66644200  1
  H  620  1  0.72035400  0.34508600  0.63523500  1
  H  621  1  0.77306600  0.34745800  0.63770800  1
  H  622  1  0.74387500  0.33917900  0.67622100  1
  H  630  1  0.24797200  0.74628300  0.07325700  1
  H  631  1  0.30289100  0.71977800  0.10430800  1
  H  634  1  0.17633200  0.81512700  0.15603500  1
  H  635  1  0.21644300  0.82631600  0.18380100  1
  H  636  1  0.18463600  0.79000700  0.19434700  1
  H  638  1  0.29311700  0.75760400  0.22269000  1
  H  639  1  0.24050300  0.76097600  0.22590200  1
  H  640  1  0.27028600  0.79879000  0.21614700  1
  H  648  1  0.24792700  0.26588400  0.69197600  1
  H  649  1  0.30274100  0.29250100  0.66088200  1
  H  652  1  0.17649700  0.19674900  0.60929100  1
  H  653  1  0.21664300  0.18560200  0.58154900  1
  H  654  1  0.18473900  0.22182900  0.57094400  1
  H  656  1  0.29311300  0.25444500  0.54256800  1
  H  657  1  0.24050700  0.25096200  0.53935500  1
  H  658  1  0.27039300  0.21322200  0.54915400  1
  H  666  1  0.24788000  0.19664700  0.14241800  1
  H  667  1  0.30276200  0.22770400  0.16897400  1
  H  670  1  0.17641000  0.27937600  0.07337800  1
  H  671  1  0.21658700  0.30706400  0.06217200  1
  H  672  1  0.18473800  0.31773700  0.09841400  1
  H  674  1  0.29315200  0.34603600  0.13096300  1
  H  675  1  0.24054600  0.34928100  0.12752300  1
  H  676  1  0.27038000  0.33945400  0.08975900  1
  H  684  1  0.24811900  0.81541300  0.62311900  1
  H  685  1  0.30302700  0.78434300  0.59660500  1
  H  688  1  0.17625300  0.73259000  0.69172500  1
  H  689  1  0.21629300  0.70472800  0.70284900  1
  H  690  1  0.18446300  0.69432200  0.66651500  1
  H  692  1  0.29289200  0.66585400  0.63409300  1
  H  693  1  0.24027500  0.66273400  0.63746300  1
  H  694  1  0.27008800  0.67236500  0.67529100  1
  H  721  1  0.24982600  0.47573200  0.18226600  1
  H  722  1  0.25081500  0.41631600  0.20129000  1
  H  723  1  0.25194900  0.32517300  0.29285600  1
  H  724  1  0.25226900  0.30643300  0.35236700  1
  H  725  1  0.24600300  0.41268600  0.38591600  1
  H  726  1  0.24575000  0.50972900  0.28845900  1
  H  727  1  0.32653400  0.42977700  0.30747200  1
  H  728  1  0.38392300  0.49861700  0.37915000  1
  H  729  1  0.32005500  0.52018000  0.39746400  1
  H  730  1  0.16825500  0.43024700  0.30536800  1
  H  731  1  0.17245500  0.52143100  0.39471600  1
  H  732  1  0.10911400  0.50214500  0.37286900  1
  H  735  1  0.22370600  0.37666500  0.25306600  1
  H  736  1  0.27714400  0.37790500  0.25412800  1
  H  738  1  0.24606000  0.49768800  0.40612200  1
  H  739  1  0.24658700  0.53060400  0.37273600  1
  H  743  1  0.24575000  0.55248500  0.24238300  1
  H  744  1  0.24976900  0.36679900  0.42886900  1
  H  745  1  0.09603430  0.43781800  0.30175800  1
  H  747  1  0.39852900  0.42680400  0.31573900  1
  H  772  1  0.24985700  0.01231530  0.05899930  1
  H  773  1  0.25081300  0.07172130  0.03996930  1
  H  774  1  0.25192900  0.16285500  0.94840700  1
  H  775  1  0.25225900  0.18159100  0.88890000  1
  H  776  1  0.24596100  0.07534130  0.85534700  1
  H  777  1  0.24572300  0.97829700  0.95281300  1
  H  778  1  0.32649500  0.05825830  0.93377300  1
  H  779  1  0.38385500  0.98942200  0.86207500  1
  H  780  1  0.31998000  0.96783800  0.84379600  1
  H  781  1  0.16821300  0.05779230  0.93589500  1
  H  782  1  0.17238900  0.96657600  0.84658300  1
  H  783  1  0.10905300  0.98587800  0.86842400  1
  H  786  1  0.22367900  0.11136400  0.98819500  1
  H  787  1  0.27711400  0.11012400  0.98713300  1
  H  789  1  0.24598500  0.99031800  0.83515400  1
  H  790  1  0.24652700  0.95741100  0.86855100  1
  H  794  1  0.24581300  0.93554300  0.99889300  1
  H  795  1  0.24973500  0.12122600  0.81239300  1
  H  796  1  0.09599730  0.05020830  0.93952800  1
  H  798  1  0.39849700  0.06129630  0.92538500  1
  H  823  1  0.24983000  0.18235500  0.35238400  1
  H  824  1  0.25080400  0.16333600  0.29296500  1
  H  825  1  0.25192700  0.07177430  0.20181100  1
  H  826  1  0.25225200  0.01226530  0.18307300  1
  H  827  1  0.24594900  0.97871200  0.28932200  1
  H  828  1  0.24570500  0.07616130  0.38636700  1
  H  829  1  0.32648600  0.05711030  0.30639800  1
  H  830  1  0.38383800  0.98545300  0.37528200  1
  H  831  1  0.31995800  0.96718700  0.39687000  1
  H  832  1  0.16821600  0.05925230  0.30683700  1
  H  833  1  0.17235300  0.96996400  0.39808000  1
  H  834  1  0.10902600  0.99179100  0.37874100  1
  H  837  1  0.22367900  0.11156500  0.25330300  1
  H  838  1  0.27711400  0.11050000  0.25455000  1
  H  840  1  0.24596400  0.95853700  0.37438000  1
  H  841  1  0.24649700  0.99195000  0.40727000  1
  H  845  1  0.24576200  0.12222500  0.42912900  1
  H  846  1  0.24972800  0.93576000  0.24343800  1
  H  847  1  0.09600330  0.06283530  0.31431300  1
  H  849  1  0.39848000  0.04872430  0.30337000  1
  H  874  1  0.24987200  0.30566500  0.88893200  1
  H  875  1  0.25086200  0.32469700  0.94834800  1
  H  876  1  0.25197100  0.41629300  0.03948530  1
  H  877  1  0.25227400  0.47581800  0.05820330  1
  H  878  1  0.24605700  0.50932200  0.95193500  1
  H  879  1  0.24581900  0.41185200  0.85492400  1
  H  880  1  0.32659400  0.43090400  0.93489400  1
  H  881  1  0.38396800  0.50253100  0.86599400  1
  H  882  1  0.32009300  0.52081200  0.84440200  1
  H  883  1  0.16832700  0.42878700  0.93443800  1
  H  884  1  0.17249200  0.51801900  0.84313700  1
  H  885  1  0.10915900  0.49617700  0.86245000  1
  H  888  1  0.22375700  0.37648400  0.98799100  1
  H  889  1  0.27719300  0.37754200  0.98676100  1
  H  891  1  0.24609300  0.52947500  0.86688000  1
  H  892  1  0.24663600  0.49605500  0.83399600  1
  H  896  1  0.24582200  0.36578300  0.81217400  1
  H  897  1  0.24978300  0.55228900  0.99780500  1
  H  898  1  0.09610930  0.42513600  0.92684800  1
  H  900  1  0.39858400  0.43921900  0.93788800  1
  H  925  1  0.74996400  0.97592200  0.68252800  1
  H  926  1  0.75069600  0.91652200  0.70155200  1
  H  927  1  0.75168700  0.82536600  0.79295600  1
  H  928  1  0.75180200  0.80650800  0.85242300  1
  H  929  1  0.74584200  0.91271300  0.88617100  1
  H  930  1  0.74505900  0.00993531  0.78869800  1
  H  931  1  0.82606000  0.93147100  0.80645900  1
  H  932  1  0.88334900  0.00235931  0.87619200  1
  H  933  1  0.81938600  0.02136230  0.89694500  1
  H  934  1  0.66798600  0.92953800  0.80634700  1
  H  935  1  0.67171000  0.01953730  0.89688400  1
  H  936  1  0.60843400  0.99825700  0.87683800  1
  H  939  1  0.72344800  0.87681500  0.75330900  1
  H  940  1  0.77688600  0.87820600  0.75430300  1
  H  942  1  0.74578500  0.99714100  0.90680600  1
  H  943  1  0.74549900  0.03042730  0.87378200  1
  H  947  1  0.74618200  0.05270430  0.74253400  1
  H  948  1  0.74887000  0.86668400  0.92905200  1
  H  949  1  0.59578200  0.92967500  0.80916000  1
  H  951  1  0.89817100  0.93578400  0.80688800  1
  H  976  1  0.75001500  0.51210900  0.55870500  1
  H  977  1  0.75071100  0.57150100  0.53967800  1
  H  978  1  0.75165400  0.66265100  0.44828500  1
  H  979  1  0.75176600  0.68151200  0.38882200  1
  H  980  1  0.74574900  0.57531200  0.35506500  1
  H  981  1  0.74500100  0.47808200  0.45254000  1
  H  982  1  0.82599400  0.55649400  0.43478800  1
  H  983  1  0.88322500  0.48565200  0.36497900  1
  H  984  1  0.81924500  0.46670600  0.34420600  1
  H  985  1  0.66792000  0.55844300  0.43497500  1
  H  986  1  0.67156800  0.46855300  0.34432800  1
  H  987  1  0.60830500  0.48976900  0.36447300  1
  H  990  1  0.72340900  0.61120600  0.48793100  1
  H  991  1  0.77684400  0.60981500  0.48692900  1
  H  993  1  0.74564300  0.49098000  0.33438100  1
  H  994  1  0.74536900  0.45764700  0.36735500  1
  H  998  1  0.74624300  0.43531300  0.49870500  1
  H  999  1  0.74878000  0.62134200  0.31218800  1
  H  1000  1  0.59571600  0.55813300  0.43239000  1
  H  1002  1  0.89810700  0.55211200  0.43437900  1
  H  1027  1  0.74996400  0.68207500  0.85258900  1
  H  1028  1  0.75068400  0.66306600  0.79318100  1
  H  1029  1  0.75166000  0.57168400  0.70200200  1
  H  1030  1  0.75177500  0.51221700  0.68313400  1
  H  1031  1  0.74570600  0.47845400  0.78932500  1
  H  1032  1  0.74493200  0.57589900  0.88657100  1
  H  1033  1  0.82595500  0.55822100  0.80827100  1
  H  1034  1  0.88311100  0.48830400  0.87906100  1
  H  1035  1  0.81911200  0.46745600  0.89787400  1
  H  1036  1  0.66788600  0.55843500  0.80621500  1
  H  1037  1  0.67144200  0.46762600  0.89594500  1
  H  1038  1  0.60820200  0.48785200  0.87475400  1
  H  1041  1  0.72339400  0.61133000  0.75345200  1
  H  1042  1  0.77682900  0.61032000  0.75485600  1
  H  1044  1  0.74552900  0.45767900  0.87350200  1
  H  1045  1  0.74523900  0.49057300  0.90691500  1
  H  1049  1  0.74616400  0.62205100  0.92935300  1
  H  1050  1  0.74878600  0.43558200  0.74330300  1
  H  1051  1  0.59568900  0.55592300  0.80652600  1
  H  1053  1  0.89807100  0.55798500  0.81292000  1
  H  1078  1  0.75001200  0.80594300  0.38871500  1
  H  1079  1  0.75072600  0.82497200  0.44811700  1
  H  1080  1  0.75168400  0.91640000  0.53926800  1
  H  1081  1  0.75179900  0.97588200  0.55811000  1
  H  1082  1  0.74583300  0.00958931  0.45189300  1
  H  1083  1  0.74507700  0.91211100  0.35469500  1
  H  1084  1  0.82606000  0.92987100  0.43313700  1
  H  1085  1  0.88332800  0.99965300  0.36228900  1
  H  1086  1  0.81935600  0.02041530  0.34330600  1
  H  1087  1  0.66799500  0.92969600  0.43504800  1
  H  1088  1  0.67167100  0.02031230  0.34513000  1
  H  1089  1  0.60840100  0.00019031  0.36635700  1
  H  1092  1  0.72345100  0.87673300  0.48781700  1
  H  1093  1  0.77688900  0.87773200  0.48643800  1
  H  1095  1  0.74574900  0.03025030  0.36755300  1
  H  1096  1  0.74547100  0.99726300  0.33423400  1
  H  1100  1  0.74625800  0.86595100  0.31192900  1
  H  1101  1  0.74887900  0.05248030  0.49790300  1
  H  1102  1  0.59579700  0.93235700  0.43479900  1
  H  1104  1  0.89817400  0.93033600  0.42885300  1
  H  1110  1  0.30499800  0.21228000  0.43395100  1
  H  1111  1  0.30603100  0.27522400  0.43393800  1
  H  1114  1  0.17391100  0.17780400  0.40060600  1
  H  1115  1  0.16038800  0.21336700  0.37343500  1
  H  1116  1  0.14745900  0.21344700  0.41904300  1
  H  1118  1  0.17588700  0.31295700  0.40109500  1
  H  1119  1  0.14842900  0.27775200  0.41916900  1
  H  1120  1  0.16139400  0.27795900  0.37357000  1
  H  1128  1  0.30503300  0.27572100  0.80738400  1
  H  1129  1  0.30604000  0.21278600  0.80737300  1
  H  1132  1  0.17394400  0.31023000  0.84066800  1
  H  1133  1  0.16035800  0.27465500  0.86779700  1
  H  1134  1  0.14750400  0.27461100  0.82217100  1
  H  1136  1  0.17585700  0.17507500  0.84011000  1
  H  1137  1  0.14843800  0.21030000  0.82202300  1
  H  1138  1  0.16134300  0.21006700  0.86763500  1
  H  1146  1  0.30496100  0.93067500  0.08893430  1
  H  1147  1  0.30597400  0.93062700  0.15186200  1
  H  1150  1  0.17392000  0.96412200  0.05444530  1
  H  1151  1  0.16033400  0.99122600  0.09004230  1
  H  1152  1  0.14746800  0.94560300  0.09004630  1
  H  1154  1  0.17583900  0.96348000  0.18960200  1
  H  1155  1  0.14840500  0.94543600  0.15436300  1
  H  1156  1  0.16134300  0.99104300  0.15463300  1
  H  1164  1  0.30504600  0.55722600  0.15235900  1
  H  1165  1  0.30608600  0.55729800  0.08940530  1
  H  1168  1  0.17394100  0.52389000  0.18677500  1
  H  1169  1  0.16040300  0.49678900  0.15116400  1
  H  1170  1  0.14748600  0.54240100  0.15117100  1
  H  1172  1  0.17589600  0.52460400  0.05162330  1
  H  1173  1  0.14842900  0.54257600  0.08687030  1
  H  1174  1  0.16144600  0.49698900  0.08656430  1
  H  1182  1  0.80493500  0.71241500  0.93413400  1
  H  1183  1  0.80563100  0.77536200  0.93403600  1
  H  1186  1  0.67401500  0.67735700  0.90084500  1
  H  1187  1  0.66040200  0.71276200  0.87350100  1
  H  1188  1  0.64739700  0.71299200  0.91909100  1
  H  1190  1  0.67540400  0.81251700  0.90085600  1
  H  1191  1  0.64807800  0.77729800  0.91907800  1
  H  1192  1  0.66106500  0.77735300  0.87348200  1
  H  1200  1  0.80497200  0.77556500  0.30718000  1
  H  1201  1  0.80561600  0.71262700  0.30725000  1
  H  1204  1  0.67406300  0.81069200  0.34042000  1
  H  1205  1  0.66038100  0.77528000  0.36772500  1
  H  1206  1  0.64744200  0.77508900  0.32211800  1
  H  1208  1  0.67534400  0.67553300  0.34034200  1
  H  1209  1  0.64806600  0.71077800  0.32210900  1
  H  1210  1  0.66099800  0.71069400  0.36771700  1
  H  1218  1  0.80490800  0.43049600  0.58906600  1
  H  1219  1  0.80556200  0.43053900  0.65199700  1
  H  1222  1  0.67403900  0.46387500  0.55396600  1
  H  1223  1  0.66034800  0.49115400  0.58939600  1
  H  1224  1  0.64741200  0.44554800  0.58955700  1
  H  1226  1  0.67533200  0.46372600  0.68912800  1
  H  1227  1  0.64804200  0.44553000  0.65387300  1
  H  1228  1  0.66099800  0.49113100  0.65398700  1
  H  1236  1  0.80500800  0.05739030  0.65220100  1
  H  1237  1  0.80569800  0.05739030  0.58924300  1
  H  1240  1  0.67406600  0.02412330  0.68720800  1
  H  1241  1  0.66042600  0.99686400  0.65174800  1
  H  1242  1  0.64744200  0.04246030  0.65162000  1
  H  1244  1  0.67540700  0.02439530  0.55204900  1
  H  1245  1  0.64808400  0.04250730  0.58732200  1
  H  1246  1  0.66111600  0.99692200  0.58714800  1
  H  1254  1  0.00329326  0.49993800  0.30931600  1
  H  1255  1  0.94800200  0.52576800  0.34043300  1
  H  1258  1  0.07778630  0.43403800  0.39256500  1
  H  1259  1  0.03845930  0.42298100  0.42119100  1
  H  1260  1  0.06979830  0.45995800  0.43040700  1
  H  1262  1  0.96112700  0.49123100  0.45960900  1
  H  1263  1  0.01383530  0.48870400  0.46209000  1
  H  1264  1  0.98461700  0.45024500  0.45362200  1
  H  1272  1  0.00329326  0.98802300  0.93192900  1
  H  1273  1  0.94806200  0.96213600  0.90077800  1
  H  1276  1  0.07772030  0.05405030  0.84874000  1
  H  1277  1  0.03839230  0.06508130  0.82009800  1
  H  1278  1  0.06978030  0.02813230  0.81088600  1
  H  1280  1  0.96116000  0.99676300  0.78162800  1
  H  1281  1  0.01386930  0.99932800  0.77917400  1
  H  1282  1  0.98461100  0.03776630  0.78763000  1
  H  1290  1  0.00338026  0.05531730  0.37662600  1
  H  1291  1  0.94812200  0.02420030  0.40250400  1
  H  1294  1  0.07769930  0.97210600  0.31054000  1
  H  1295  1  0.03830230  0.94355300  0.29946200  1
  H  1296  1  0.06968430  0.93421800  0.33638200  1
  H  1298  1  0.96106700  0.90506300  0.36778700  1
  H  1299  1  0.01377230  0.90254800  0.36520400  1
  H  1300  1  0.98451200  0.91108200  0.32678500  1
  H  1308  1  0.00314226  0.43266000  0.86503700  1
  H  1309  1  0.94780300  0.46377100  0.83926400  1
  H  1312  1  0.07798830  0.51600400  0.93050200  1
  H  1313  1  0.03876030  0.54476000  0.94149300  1
  H  1314  1  0.07006930  0.55376700  0.90444500  1
  H  1316  1  0.96140400  0.58308900  0.87323800  1
  H  1317  1  0.01411630  0.58546100  0.87571100  1
  H  1318  1  0.98492500  0.57718200  0.91422400  1
  H  1326  1  0.48902200  0.98428600  0.31126000  1
  H  1327  1  0.54394100  0.95778100  0.34231100  1
  H  1330  1  0.41738200  0.05313030  0.39403800  1
  H  1331  1  0.45749300  0.06431930  0.42180400  1
  H  1332  1  0.42568600  0.02801030  0.43235000  1
  H  1334  1  0.53416700  0.99560700  0.46069300  1
  H  1335  1  0.48155300  0.99897900  0.46390500  1
  H  1336  1  0.51133600  0.03679330  0.45415000  1
  H  1344  1  0.48897700  0.50388700  0.92997900  1
  H  1345  1  0.54379100  0.53050400  0.89888500  1
  H  1348  1  0.41754700  0.43475200  0.84729400  1
  H  1349  1  0.45769300  0.42360500  0.81955200  1
  H  1350  1  0.42578900  0.45983200  0.80894700  1
  H  1352  1  0.53416300  0.49244800  0.78057100  1
  H  1353  1  0.48155700  0.48896500  0.77735800  1
  H  1354  1  0.51144300  0.45122500  0.78715700  1
  H  1362  1  0.48893000  0.43465000  0.38042100  1
  H  1363  1  0.54381200  0.46570700  0.40697700  1
  H  1366  1  0.41746000  0.51737900  0.31138100  1
  H  1367  1  0.45763700  0.54506700  0.30017500  1
  H  1368  1  0.42578800  0.55574000  0.33641700  1
  H  1370  1  0.53420200  0.58403900  0.36896600  1
  H  1371  1  0.48159600  0.58728400  0.36552600  1
  H  1372  1  0.51143000  0.57745700  0.32776200  1
  H  1380  1  0.48916900  0.05341630  0.86112200  1
  H  1381  1  0.54407700  0.02234630  0.83460800  1
  H  1384  1  0.41730300  0.97059300  0.92972800  1
  H  1385  1  0.45734300  0.94273100  0.94085200  1
  H  1386  1  0.42551300  0.93232500  0.90451800  1
  H  1388  1  0.53394200  0.90385700  0.87209600  1
  H  1389  1  0.48132500  0.90073700  0.87546600  1
  H  1390  1  0.51113800  0.91036800  0.91329400  1
  C  1  1  0.96686700  0.22281500  0.09860600  1
  C  2  1  0.96743900  0.24960400  0.12490500  1
  C  3  1  0.04379400  0.24963300  0.12566700  1
  C  4  1  0.04501900  0.22304100  0.09919600  1
  C  5  1  0.08399300  0.21113500  0.08834100  1
  C  6  1  0.12072500  0.22434800  0.10291200  1
  C  7  1  0.11768800  0.25061000  0.12921800  1
  C  8  1  0.07993300  0.26320300  0.14015600  1
  C  9  1  0.93096300  0.26388000  0.13797400  1
  C  10  1  0.89351500  0.25235400  0.12522200  1
  C  11  1  0.89112900  0.22564500  0.09931600  1
  C  12  1  0.92819900  0.21135600  0.08651800  1
  C  13  1  0.00657800  0.21630200  0.04435000  1
  C  14  1  0.00784400  0.18923000  0.01836400  1
  C  15  1  0.00796200  0.14225600  0.06553500  1
  C  16  1  0.00639700  0.16834200  0.09250200  1
  C  17  1  0.00940100  0.10598400  0.07429800  1
  C  18  1  0.00942200  0.09491600  0.10961300  1
  C  19  1  0.00739200  0.11971400  0.13742800  1
  C  20  1  0.00598900  0.15618500  0.12815600  1
  C  21  1  0.00573600  0.25189700  0.03203600  1
  C  22  1  0.00613200  0.26101500  0.99550200  1
  C  23  1  0.00791500  0.23310000  0.97080600  1
  C  24  1  0.00861300  0.19783900  0.98203700  1
  C  37  1  0.00614500  0.20767500  0.08371700  1
  C  38  1  0.00870400  0.15128700  0.02755100  1
  C  41  1  0.00543200  0.26405800  0.13951100  1
  C  44  1  0.00748700  0.10955200  0.17303200  1
  C  45  1  0.85390500  0.21490800  0.08521300  1
  C  46  1  0.00486200  0.29656000  0.98518700  1
  C  50  1  0.15820100  0.21027900  0.09281800  1
  C  52  1  0.96681600  0.78920900  0.66666667  1
  C  53  1  0.96737900  0.76240900  0.64037100  1
  C  54  1  0.04373300  0.76238300  0.63959100  1
  C  55  1  0.04496800  0.78897900  0.66606000  1
  C  56  1  0.08394600  0.80088700  0.67690600  1
  C  57  1  0.12066800  0.78768800  0.66231000  1
  C  58  1  0.11762400  0.76141200  0.63601600  1
  C  59  1  0.07986600  0.74882200  0.62508800  1
  C  60  1  0.93089900  0.74812900  0.62730800  1
  C  61  1  0.89345500  0.75966700  0.64005600  1
  C  62  1  0.89107800  0.78639500  0.66594300  1
  C  63  1  0.92815100  0.80067500  0.67874300  1
  C  64  1  0.00654300  0.79571900  0.72091000  1
  C  65  1  0.00781500  0.82279600  0.74689200  1
  C  66  1  0.00793000  0.86976500  0.69972200  1
  C  67  1  0.00635400  0.84368000  0.67275600  1
  C  68  1  0.00938100  0.90603700  0.69095900  1
  C  69  1  0.00940200  0.91710400  0.65564400  1
  C  70  1  0.00736500  0.89230600  0.62782900  1
  C  71  1  0.00594400  0.85583600  0.63710400  1
  C  72  1  0.00570900  0.76012500  0.73322800  1
  C  73  1  0.00612900  0.75100900  0.76976100  1
  C  74  1  0.00792100  0.77893200  0.79445600  1
  C  75  1  0.00860300  0.81419100  0.78321900  1
  C  88  1  0.00609900  0.80434600  0.68154100  1
  C  89  1  0.00867300  0.86073700  0.73770500  1
  C  92  1  0.00536600  0.74795200  0.62576200  1
  C  95  1  0.00746500  0.90246900  0.59222400  1
  C  96  1  0.85385700  0.79712600  0.68005700  1
  C  97  1  0.00489000  0.71546200  0.78008300  1
  C  101  1  0.15815100  0.80175100  0.67239000  1
  C  103  1  0.96680400  0.79002600  0.09944300  1
  C  104  1  0.96736100  0.76375000  0.12625300  1
  C  105  1  0.04371400  0.76296700  0.12629600  1
  C  106  1  0.04495600  0.78941800  0.09968600  1
  C  107  1  0.08393400  0.80025200  0.08777100  1
  C  108  1  0.12065700  0.78567300  0.10099200  1
  C  109  1  0.11760700  0.75938700  0.12727500  1
  C  110  1  0.07984600  0.74846200  0.13986600  1
  C  111  1  0.93087200  0.75069400  0.14052300  1
  C  112  1  0.89343100  0.76342500  0.12895500  1
  C  113  1  0.89106300  0.78932000  0.10223400  1
  C  114  1  0.92814500  0.80210600  0.08795600  1
  C  115  1  0.00653500  0.84426900  0.09294100  1
  C  116  1  0.00781000  0.87025900  0.06587100  1
  C  117  1  0.00792600  0.82309000  0.01889400  1
  C  118  1  0.00634900  0.79611900  0.04497800  1
  C  119  1  0.00937100  0.81432600  0.98262100  1
  C  120  1  0.00938600  0.77900900  0.97155400  1
  C  121  1  0.00735800  0.75119400  0.99634900  1
  C  122  1  0.00593800  0.76046600  0.03282100  1
  C  123  1  0.00569700  0.85657900  0.12853700  1
  C  124  1  0.00611000  0.89311000  0.13766000  1
  C  125  1  0.00790200  0.91781200  0.10974800  1
  C  126  1  0.00859200  0.90658400  0.07448500  1
  C  139  1  0.00609000  0.80490400  0.08431000  1
  C  140  1  0.00867100  0.86107200  0.02792700  1
  C  143  1  0.00534200  0.74914700  0.14072700  1
  C  146  1  0.00744900  0.71558900  0.98618800  1
  C  147  1  0.85385100  0.80340200  0.09144100  1
  C  148  1  0.00485600  0.90342100  0.17321000  1
  C  152  1  0.15813600  0.79571400  0.08689800  1
  C  154  1  0.96692400  0.22199300  0.66581900  1
  C  155  1  0.96748800  0.24826100  0.63900100  1
  C  156  1  0.04384100  0.24904200  0.63897700  1
  C  157  1  0.04507400  0.22259300  0.66559200  1
  C  158  1  0.08404900  0.21174900  0.67750700  1
  C  159  1  0.12077500  0.22632600  0.66429100  1
  C  160  1  0.11773400  0.25260500  0.63800200  1
  C  161  1  0.07997600  0.26353100  0.62540200  1
  C  162  1  0.93100500  0.26130300  0.62470600  1
  C  163  1  0.89356400  0.24855500  0.63625000  1
  C  164  1  0.89118900  0.22268900  0.66299900  1
  C  165  1  0.92826300  0.20991300  0.67730000  1
  C  166  1  0.00664300  0.16774800  0.67234700  1
  C  167  1  0.00790300  0.14176800  0.69942300  1
  C  168  1  0.00801400  0.18895100  0.74639000  1
  C  169  1  0.00645800  0.21591100  0.72029400  1
  C  170  1  0.00944000  0.19772800  0.78265900  1
  C  171  1  0.00944700  0.23304900  0.79371500  1
  C  172  1  0.00743200  0.26085300  0.76890500  1
  C  173  1  0.00604200  0.25156800  0.73243700  1
  C  174  1  0.00580000  0.15543000  0.63675200  1
  C  175  1  0.00619000  0.11889800  0.62763600  1
  C  176  1  0.00796600  0.09420300  0.65555700  1
  C  177  1  0.00866700  0.10544100  0.69081600  1
  C  190  1  0.00620600  0.20711600  0.68096500  1
  C  191  1  0.00875600  0.15096400  0.73736700  1
  C  194  1  0.00547400  0.26286100  0.62453500  1
  C  197  1  0.00750700  0.29645700  0.77905100  1
  C  198  1  0.85397100  0.20859900  0.67376300  1
  C  199  1  0.00492000  0.10858400  0.59209000  1
  C  203  1  0.15824900  0.21624900  0.67837500  1
  C  205  1  0.46641400  0.72272900  0.59908200  1
  C  206  1  0.46686000  0.74919500  0.62570400  1
  C  207  1  0.54319700  0.74990600  0.62598500  1
  C  208  1  0.54449300  0.72345600  0.59937700  1
  C  209  1  0.58348900  0.71240200  0.58775600  1
  C  210  1  0.62019800  0.72665900  0.60135000  1
  C  211  1  0.61711800  0.75287600  0.62769200  1
  C  212  1  0.57931000  0.76417300  0.63984700  1
  C  213  1  0.43030800  0.76254400  0.63957600  1
  C  214  1  0.39289100  0.75005400  0.62766600  1
  C  215  1  0.39065200  0.72386900  0.60122900  1
  C  216  1  0.42781000  0.71073400  0.58741600  1
  C  217  1  0.50590100  0.71650400  0.54461000  1
  C  218  1  0.50737400  0.68944000  0.51861500  1
  C  219  1  0.50781700  0.64244000  0.56574000  1
  C  220  1  0.50631700  0.66849600  0.59274000  1
  C  221  1  0.50922100  0.60615000  0.57443200  1
  C  222  1  0.50911600  0.59500800  0.60972300  1
  C  223  1  0.50710600  0.61975600  0.63757700  1
  C  224  1  0.50588000  0.65625700  0.62837400  1
  C  225  1  0.50507800  0.75209900  0.53228200  1
  C  226  1  0.50582300  0.76121100  0.49574300  1
  C  227  1  0.50774800  0.73329400  0.47105700  1
  C  228  1  0.50830800  0.69804000  0.48229300  1
  C  241  1  0.50570800  0.70784800  0.58399200  1
  C  242  1  0.50842000  0.65150000  0.52777000  1
  C  245  1  0.50479200  0.76383000  0.64024500  1
  C  248  1  0.50687100  0.60948200  0.67315100  1
  C  249  1  0.35352700  0.71042200  0.58950500  1
  C  250  1  0.50497600  0.79674800  0.48536900  1
  C  254  1  0.65769900  0.71570300  0.58806600  1
  C  256  1  0.46632000  0.28929800  0.16616000  1
  C  257  1  0.46674500  0.26286200  0.13950700  1
  C  258  1  0.54308600  0.26213600  0.13919600  1
  C  259  1  0.54440300  0.28855500  0.16583600  1
  C  260  1  0.58340700  0.29958300  0.17746300  1
  C  261  1  0.62010400  0.28532600  0.16384900  1
  C  262  1  0.61700400  0.25913600  0.13748200  1
  C  263  1  0.57918600  0.24787400  0.12531000  1
  C  264  1  0.43018100  0.24952200  0.12564900  1
  C  265  1  0.39277300  0.26198500  0.13760500  1
  C  266  1  0.39055800  0.28813200  0.16408200  1
  C  267  1  0.42772500  0.30127000  0.17787000  1
  C  268  1  0.50584400  0.29550800  0.22061900  1
  C  269  1  0.50733200  0.32257100  0.24661200  1
  C  270  1  0.50776300  0.36957700  0.19949200  1
  C  271  1  0.50624400  0.34352100  0.17249000  1
  C  272  1  0.50917600  0.40586500  0.19080200  1
  C  273  1  0.50907700  0.41700600  0.15551400  1
  C  274  1  0.50704600  0.39226100  0.12765600  1
  C  275  1  0.50580100  0.35576200  0.13685900  1
  C  276  1  0.50503300  0.25991400  0.23294900  1
  C  277  1  0.50581000  0.25080200  0.26948600  1
  C  278  1  0.50775400  0.27872000  0.29417000  1
  C  279  1  0.50829000  0.31397400  0.28293400  1
  C  292  1  0.50563000  0.30416600  0.18123700  1
  C  293  1  0.50837800  0.36051400  0.23746000  1
  C  296  1  0.50466500  0.24824500  0.12493000  1
  C  299  1  0.50680500  0.40253800  0.09208200  1
  C  300  1  0.35344000  0.30150500  0.17591500  1
  C  301  1  0.50499700  0.21526100  0.27986600  1
  C  305  1  0.65761500  0.29621600  0.17717100  1
  C  307  1  0.46625400  0.28954400  0.59931000  1
  C  308  1  0.46665200  0.26284200  0.62569900  1
  C  309  1  0.54298600  0.26251000  0.62646900  1
  C  310  1  0.54433300  0.28919800  0.60009900  1
  C  311  1  0.58334700  0.30085500  0.58913400  1
  C  312  1  0.62002900  0.28723600  0.60342300  1
  C  313  1  0.61690100  0.26081600  0.62955600  1
  C  314  1  0.57907500  0.24860200  0.64074000  1
  C  315  1  0.43007300  0.24897800  0.63899900  1
  C  316  1  0.39268000  0.26098500  0.62655500  1
  C  317  1  0.39048900  0.28751300  0.60045400  1
  C  318  1  0.42767100  0.30129600  0.58734700  1
  C  319  1  0.50579500  0.34399700  0.59314200  1
  C  320  1  0.50730500  0.36999700  0.56608400  1
  C  321  1  0.50774500  0.32288600  0.51907000  1
  C  322  1  0.50621400  0.29588100  0.54511800  1
  C  323  1  0.50917300  0.31419600  0.48277700  1
  C  324  1  0.50907400  0.27890800  0.47163300  1
  C  325  1  0.50702800  0.25104900  0.49637200  1
  C  326  1  0.50577400  0.26024900  0.53287400  1
  C  327  1  0.50497000  0.35631500  0.62873900  1
  C  328  1  0.50575300  0.39285100  0.63786000  1
  C  329  1  0.50771500  0.41754300  0.60995300  1
  C  330  1  0.50826600  0.40631700  0.57469400  1
  C  343  1  0.50557500  0.30461800  0.58447300  1
  C  344  1  0.50835700  0.36085300  0.52814100  1
  C  347  1  0.50455400  0.24821700  0.64030100  1
  C  350  1  0.50679900  0.21547400  0.48610100  1
  C  351  1  0.35338500  0.29940800  0.58710300  1
  C  352  1  0.50493700  0.40321700  0.67340500  1
  C  356  1  0.65754500  0.30063500  0.59265900  1
  C  358  1  0.46640500  0.72248600  0.16589300  1
  C  359  1  0.46683900  0.74912900  0.13944800  1
  C  360  1  0.54317900  0.74942500  0.13873200  1
  C  361  1  0.54448700  0.72279800  0.16516400  1
  C  362  1  0.58348300  0.71117500  0.17621000  1
  C  363  1  0.62018900  0.72477800  0.16195500  1
  C  364  1  0.61710000  0.75113100  0.13575100  1
  C  365  1  0.57928900  0.76329800  0.12447000  1
  C  366  1  0.43027700  0.76298900  0.12610100  1
  C  367  1  0.39286600  0.75104300  0.13856800  1
  C  368  1  0.39064300  0.72457700  0.16472800  1
  C  369  1  0.42780700  0.71078700  0.17787000  1
  C  370  1  0.50591300  0.66802500  0.17212100  1
  C  371  1  0.50738600  0.64203500  0.19918800  1
  C  372  1  0.50781400  0.68916800  0.24618600  1
  C  373  1  0.50631100  0.71616300  0.22012400  1
  C  374  1  0.50920600  0.69787100  0.28247600  1
  C  375  1  0.50911000  0.73316400  0.29360400  1
  C  376  1  0.50710000  0.76101100  0.26884700  1
  C  377  1  0.50587400  0.75179700  0.23235000  1
  C  378  1  0.50509600  0.65569400  0.13652700  1
  C  379  1  0.50585300  0.61915800  0.12741700  1
  C  380  1  0.50778400  0.59447400  0.15533500  1
  C  381  1  0.50833200  0.60571100  0.19058900  1
  C  394  1  0.50570800  0.70740700  0.18077100  1
  C  395  1  0.50842600  0.65119600  0.23712900  1
  C  398  1  0.50476500  0.76369500  0.12483000  1
  C  401  1  0.50687700  0.79658700  0.27910400  1
  C  402  1  0.35352400  0.71277000  0.17811700  1
  C  403  1  0.50502400  0.60878400  0.09187600  1
  C  407  1  0.65769000  0.71148700  0.17290200  1
  C  409  1  0.00454300  0.04418300  0.17926600  1
  C  410  1  0.03928900  0.02460000  0.18778700  1
  C  411  1  0.03869400  0.98755000  0.18778100  1
  C  412  1  0.00332600  0.96884600  0.17927700  1
  C  413  1  0.96775300  0.98796300  0.17012200  1
  C  416  1  0.96834900  0.02596900  0.17016200  1
  C  417  1  0.92970000  0.96844600  0.16192400  1
  C  421  1  0.93087800  0.04640100  0.16212700  1
  C  427  1  0.00454600  0.96783300  0.58601800  1
  C  428  1  0.03933100  0.98740500  0.57759100  1
  C  429  1  0.03875300  0.02445600  0.57761500  1
  C  430  1  0.00336500  0.04316200  0.58604200  1
  C  431  1  0.96777400  0.02405700  0.59515800  1
  C  434  1  0.96835200  0.98605100  0.59510000  1
  C  435  1  0.92971500  0.04358300  0.60332000  1
  C  439  1  0.93086000  0.96562700  0.60308200  1
  C  445  1  0.00451300  0.70936900  0.92082500  1
  C  446  1  0.03927600  0.70088800  0.90124400  1
  C  447  1  0.03868200  0.70091200  0.86419200  1
  C  448  1  0.00332900  0.70948500  0.84549700  1
  C  449  1  0.96773800  0.71856400  0.86461000  1
  C  452  1  0.96832200  0.71848700  0.90261600  1
  C  453  1  0.92968500  0.72675100  0.84508700  1
  C  457  1  0.93083900  0.72647600  0.92304600  1
  C  463  1  0.00454900  0.30279100  0.84443900  1
  C  464  1  0.03934700  0.31114200  0.86402000  1
  C  465  1  0.03873500  0.31110000  0.90106900  1
  C  466  1  0.00334700  0.30262100  0.91975400  1
  C  467  1  0.96777700  0.29349300  0.90062200  1
  C  470  1  0.96836700  0.29358500  0.86261600  1
  C  471  1  0.92972100  0.28526600  0.92012700  1
  C  475  1  0.93089900  0.28556700  0.84217000  1
  C  481  1  0.50414100  0.54405500  0.67926700  1
  C  482  1  0.53897000  0.52462000  0.68786600  1
  C  483  1  0.53856900  0.48756600  0.68792400  1
  C  484  1  0.50331600  0.46869200  0.67942100  1
  C  485  1  0.46765800  0.48765600  0.67019500  1
  C  488  1  0.46806200  0.52567000  0.67015300  1
  C  489  1  0.42969600  0.46798600  0.66203300  1
  C  493  1  0.43050900  0.54594300  0.66201400  1
  C  499  1  0.50412000  0.46795700  0.08599900  1
  C  500  1  0.53899700  0.48737000  0.07749200  1
  C  501  1  0.53862300  0.52442700  0.07745300  1
  C  502  1  0.50335500  0.54331400  0.08588400  1
  C  503  1  0.46767600  0.52436900  0.09507400  1
  C  506  1  0.46805000  0.48635700  0.09509600  1
  C  507  1  0.42972000  0.54406300  0.10320300  1
  C  511  1  0.43047000  0.46610300  0.10318600  1
  C  517  1  0.50409900  0.20937700  0.42067900  1
  C  518  1  0.53895200  0.20081700  0.40125700  1
  C  519  1  0.53856000  0.20077300  0.36420000  1
  C  520  1  0.50332200  0.20934200  0.34532500  1
  C  521  1  0.46764300  0.21849100  0.36427900  1
  C  524  1  0.46802600  0.21849800  0.40229100  1
  C  525  1  0.42969000  0.22663800  0.34459200  1
  C  529  1  0.43045500  0.22659100  0.42255100  1
  C  535  1  0.50415600  0.80279900  0.34454700  1
  C  536  1  0.53904200  0.81121600  0.36397800  1
  C  537  1  0.53862900  0.81123200  0.40103200  1
  C  538  1  0.50335500  0.80275600  0.41988900  1
  C  539  1  0.46769400  0.79356700  0.40091000  1
  C  542  1  0.46808600  0.79358800  0.36289900  1
  C  543  1  0.42973500  0.78537400  0.42057300  1
  C  547  1  0.43053100  0.78547700  0.34261600  1
  C  553  1  0.72181500  0.26684900  0.15264400  1
  C  554  1  0.72688400  0.27225200  0.11607400  1
  C  555  1  0.75984700  0.25748600  0.09795000  1
  C  556  1  0.78957800  0.23748500  0.11565000  1
  C  557  1  0.78457600  0.23086400  0.15254300  1
  C  560  1  0.75114800  0.24636400  0.17122700  1
  C  561  1  0.81352300  0.20723400  0.17149500  1
  C  565  1  0.74646600  0.24045400  0.21016400  1
  C  571  1  0.72184300  0.74511500  0.61258000  1
  C  572  1  0.72689600  0.73971500  0.64915400  1
  C  573  1  0.75983200  0.75450500  0.66729600  1
  C  574  1  0.78954700  0.77453700  0.64961400  1
  C  575  1  0.78454900  0.78117200  0.61272300  1
  C  578  1  0.75115100  0.76564400  0.59402000  1
  C  579  1  0.81347800  0.80483200  0.59379000  1
  C  583  1  0.74648400  0.77155400  0.55508000  1
  C  589  1  0.72185500  0.73599900  0.14350200  1
  C  590  1  0.72694700  0.77256400  0.14892300  1
  C  591  1  0.75990400  0.79068400  0.13414400  1
  C  592  1  0.78962000  0.77297700  0.11413000  1
  C  593  1  0.78454000  0.73611000  0.10742500  1
  C  596  1  0.75113000  0.71742400  0.12295000  1
  C  597  1  0.81342000  0.71717300  0.08372200  1
  C  601  1  0.74640300  0.67850000  0.11699700  1
  C  607  1  0.72187300  0.27604200  0.62187800  1
  C  608  1  0.72678700  0.23943500  0.61665300  1
  C  609  1  0.75977800  0.22131700  0.63137900  1
  C  610  1  0.78962000  0.23904200  0.65123000  1
  C  611  1  0.78472000  0.27596800  0.65773200  1
  C  614  1  0.75129000  0.29465900  0.64223900  1
  C  615  1  0.81375800  0.29494400  0.68125900  1
  C  619  1  0.74672200  0.33362500  0.64802500  1
  C  625  1  0.28961100  0.74227400  0.15418300  1
  C  626  1  0.28370400  0.73610200  0.11782600  1
  C  627  1  0.25093600  0.75126000  0.09975600  1
  C  628  1  0.22207700  0.77227900  0.11737500  1
  C  629  1  0.22784200  0.77955900  0.15405600  1
  C  632  1  0.26118900  0.76381600  0.17265200  1
  C  633  1  0.19970000  0.80402600  0.17287500  1
  C  637  1  0.26673800  0.77051200  0.21136900  1
  C  643  1  0.28955400  0.26986900  0.61104600  1
  C  644  1  0.28363600  0.27607100  0.64739700  1
  C  645  1  0.25092200  0.26085700  0.66548900  1
  C  646  1  0.22212600  0.23974700  0.64789700  1
  C  647  1  0.22791200  0.23242600  0.61122900  1
  C  650  1  0.26120500  0.24822600  0.59261100  1
  C  651  1  0.19983800  0.20787300  0.59243900  1
  C  655  1  0.26677000  0.24149700  0.55390100  1
  C  661  1  0.28955600  0.27755700  0.14639400  1
  C  662  1  0.28362600  0.24120800  0.15258800  1
  C  663  1  0.25086700  0.22313900  0.13741400  1
  C  664  1  0.22202300  0.24076200  0.11637700  1
  C  665  1  0.22786300  0.27741400  0.10901300  1
  C  668  1  0.26119100  0.29601300  0.12478300  1
  C  669  1  0.19979000  0.29621100  0.08446600  1
  C  673  1  0.26678400  0.33471700  0.11803900  1
  C  679  1  0.28954700  0.73442800  0.61890800  1
  C  680  1  0.28377700  0.77081900  0.61286800  1
  C  681  1  0.25101500  0.78889400  0.62802200  1
  C  682  1  0.22208300  0.77126600  0.64895700  1
  C  683  1  0.22776700  0.73455800  0.65616100  1
  C  686  1  0.26108800  0.71594300  0.64040200  1
  C  687  1  0.19957900  0.71573400  0.68058200  1
  C  691  1  0.26654700  0.67720200  0.64702400  1
  C  697  1  0.20791700  0.46081800  0.33660900  1
  C  698  1  0.20848900  0.48760700  0.36290800  1
  C  699  1  0.28484400  0.48763600  0.36367000  1
  C  700  1  0.28606900  0.46104400  0.33719900  1
  C  701  1  0.32504300  0.44913800  0.32634400  1
  C  702  1  0.36177500  0.46235100  0.34091500  1
  C  703  1  0.35873800  0.48861300  0.36722100  1
  C  704  1  0.32098300  0.50120600  0.37815900  1
  C  705  1  0.17201300  0.50188300  0.37597700  1
  C  706  1  0.13456500  0.49035700  0.36322500  1
  C  707  1  0.13217900  0.46364800  0.33731900  1
  C  708  1  0.16924900  0.44935900  0.32452100  1
  C  709  1  0.24762800  0.45430500  0.28235300  1
  C  710  1  0.24889400  0.42723300  0.25636700  1
  C  711  1  0.24901200  0.38025900  0.30353800  1
  C  712  1  0.24744700  0.40634500  0.33050500  1
  C  713  1  0.25045100  0.34398700  0.31230100  1
  C  714  1  0.25047200  0.33291900  0.34761600  1
  C  715  1  0.24844200  0.35771700  0.37543100  1
  C  716  1  0.24703900  0.39418800  0.36615900  1
  C  717  1  0.24678600  0.48990000  0.27003900  1
  C  718  1  0.24718200  0.49901800  0.23350500  1
  C  719  1  0.24896500  0.47110300  0.20880900  1
  C  720  1  0.24966300  0.43584200  0.22004000  1
  C  733  1  0.24719500  0.44567800  0.32172000  1
  C  734  1  0.24975400  0.38929000  0.26555400  1
  C  737  1  0.24648200  0.50206100  0.37751400  1
  C  740  1  0.24853700  0.34755500  0.41103500  1
  C  741  1  0.09495530  0.45291100  0.32321600  1
  C  742  1  0.24591200  0.53456300  0.22319000  1
  C  746  1  0.39925100  0.44828200  0.33082100  1
  C  748  1  0.20786600  0.02721230  0.90466000  1
  C  749  1  0.20842900  0.00041231  0.87837400  1
  C  750  1  0.28478300  0.00038631  0.87759400  1
  C  751  1  0.28601800  0.02698230  0.90406300  1
  C  752  1  0.32499600  0.03889030  0.91490900  1
  C  753  1  0.36171800  0.02569130  0.90031300  1
  C  754  1  0.35867400  0.99941500  0.87401900  1
  C  755  1  0.32091600  0.98682500  0.86309100  1
  C  756  1  0.17194900  0.98613200  0.86531100  1
  C  757  1  0.13450500  0.99767000  0.87805900  1
  C  758  1  0.13212800  0.02439830  0.90394600  1
  C  759  1  0.16920100  0.03867830  0.91674600  1
  C  760  1  0.24759300  0.03372230  0.95891300  1
  C  761  1  0.24886500  0.06079930  0.98489500  1
  C  762  1  0.24898000  0.10776800  0.93772500  1
  C  763  1  0.24740400  0.08168330  0.91075900  1
  C  764  1  0.25043100  0.14404000  0.92896200  1
  C  765  1  0.25045200  0.15510700  0.89364700  1
  C  766  1  0.24841500  0.13030900  0.86583200  1
  C  767  1  0.24699400  0.09383930  0.87510700  1
  C  768  1  0.24675900  0.99812800  0.97123100  1
  C  769  1  0.24717900  0.98901200  0.00776431  1
  C  770  1  0.24897100  0.01693530  0.03245930  1
  C  771  1  0.24965300  0.05219430  0.02122230  1
  C  784  1  0.24714900  0.04234930  0.91954400  1
  C  785  1  0.24972300  0.09874030  0.97570800  1
  C  788  1  0.24641600  0.98595500  0.86376500  1
  C  791  1  0.24851500  0.14047200  0.83022700  1
  C  792  1  0.09490730  0.03512930  0.91806000  1
  C  793  1  0.24594000  0.95346500  0.01808630  1
  C  797  1  0.39920100  0.03975430  0.91039300  1
  C  799  1  0.20785400  0.02802930  0.33744600  1
  C  800  1  0.20841100  0.00175331  0.36425600  1
  C  801  1  0.28476400  0.00097031  0.36429900  1
  C  802  1  0.28600600  0.02742130  0.33768900  1
  C  803  1  0.32498400  0.03825530  0.32577400  1
  C  804  1  0.36170700  0.02367630  0.33899500  1
  C  805  1  0.35865700  0.99739000  0.36527800  1
  C  806  1  0.32089600  0.98646500  0.37786900  1
  C  807  1  0.17192200  0.98869700  0.37852600  1
  C  808  1  0.13448100  0.00142831  0.36695800  1
  C  809  1  0.13211300  0.02732330  0.34023700  1
  C  810  1  0.16919500  0.04010930  0.32595900  1
  C  811  1  0.24758500  0.08227230  0.33094400  1
  C  812  1  0.24886000  0.10826200  0.30387400  1
  C  813  1  0.24897600  0.06109330  0.25689700  1
  C  814  1  0.24739900  0.03412230  0.28298100  1
  C  815  1  0.25042100  0.05232930  0.22062400  1
  C  816  1  0.25043600  0.01701230  0.20955700  1
  C  817  1  0.24840800  0.98919700  0.23435200  1
  C  818  1  0.24698800  0.99846900  0.27082400  1
  C  819  1  0.24674700  0.09458230  0.36654000  1
  C  820  1  0.24716000  0.13111300  0.37566300  1
  C  821  1  0.24895200  0.15581500  0.34775100  1
  C  822  1  0.24964200  0.14458700  0.31248800  1
  C  835  1  0.24714000  0.04290730  0.32231300  1
  C  836  1  0.24972100  0.09907530  0.26593000  1
  C  839  1  0.24639200  0.98715000  0.37873000  1
  C  842  1  0.24849900  0.95359200  0.22419100  1
  C  843  1  0.09490130  0.04140530  0.32944400  1
  C  844  1  0.24590600  0.14142400  0.41121300  1
  C  848  1  0.39918600  0.03371730  0.32490100  1
  C  850  1  0.20797400  0.45999600  0.90382200  1
  C  851  1  0.20853800  0.48626400  0.87700400  1
  C  852  1  0.28489100  0.48704500  0.87698000  1
  C  853  1  0.28612400  0.46059600  0.90359500  1
  C  854  1  0.32509900  0.44975200  0.91551000  1
  C  855  1  0.36182500  0.46432900  0.90229400  1
  C  856  1  0.35878400  0.49060800  0.87600500  1
  C  857  1  0.32102600  0.50153400  0.86340500  1
  C  858  1  0.17205500  0.49930600  0.86270900  1
  C  859  1  0.13461400  0.48655800  0.87425300  1
  C  860  1  0.13223900  0.46069200  0.90100200  1
  C  861  1  0.16931300  0.44791600  0.91530300  1
  C  862  1  0.24769300  0.40575100  0.91035000  1
  C  863  1  0.24895300  0.37977100  0.93742600  1
  C  864  1  0.24906400  0.42695400  0.98439300  1
  C  865  1  0.24750800  0.45391400  0.95829700  1
  C  866  1  0.25049000  0.43573100  0.02066230  1
  C  867  1  0.25049700  0.47105200  0.03171830  1
  C  868  1  0.24848200  0.49885600  0.00690831  1
  C  869  1  0.24709200  0.48957100  0.97044000  1
  C  870  1  0.24685000  0.39343300  0.87475500  1
  C  871  1  0.24724000  0.35690100  0.86563900  1
  C  872  1  0.24901600  0.33220600  0.89356000  1
  C  873  1  0.24971700  0.34344400  0.92881900  1
  C  886  1  0.24725600  0.44511900  0.91896800  1
  C  887  1  0.24980600  0.38896700  0.97537000  1
  C  890  1  0.24652400  0.50086400  0.86253800  1
  C  893  1  0.24855700  0.53446000  0.01705430  1
  C  894  1  0.09502130  0.44660200  0.91176600  1
  C  895  1  0.24597000  0.34658700  0.83009300  1
  C  899  1  0.39929900  0.45425200  0.91637800  1
  C  901  1  0.70746400  0.96073200  0.83708500  1
  C  902  1  0.70791000  0.98719800  0.86370700  1
  C  903  1  0.78424700  0.98790900  0.86398800  1
  C  904  1  0.78554300  0.96145900  0.83738000  1
  C  905  1  0.82453900  0.95040500  0.82575900  1
  C  906  1  0.86124800  0.96466200  0.83935300  1
  C  907  1  0.85816800  0.99087900  0.86569500  1
  C  908  1  0.82036000  0.00217631  0.87785000  1
  C  909  1  0.67135800  0.00054731  0.87757900  1
  C  910  1  0.63394100  0.98805700  0.86566900  1
  C  911  1  0.63170200  0.96187200  0.83923200  1
  C  912  1  0.66886000  0.94873700  0.82541900  1
  C  913  1  0.74695100  0.95450700  0.78261300  1
  C  914  1  0.74842400  0.92744300  0.75661800  1
  C  915  1  0.74886700  0.88044300  0.80374300  1
  C  916  1  0.74736700  0.90649900  0.83074300  1
  C  917  1  0.75027100  0.84415300  0.81243500  1
  C  918  1  0.75016600  0.83301100  0.84772600  1
  C  919  1  0.74815600  0.85775900  0.87558000  1
  C  920  1  0.74693000  0.89426000  0.86637700  1
  C  921  1  0.74612800  0.99010200  0.77028500  1
  C  922  1  0.74687300  0.99921400  0.73374600  1
  C  923  1  0.74879800  0.97129700  0.70906000  1
  C  924  1  0.74935800  0.93604300  0.72029600  1
  C  937  1  0.74675800  0.94585100  0.82199500  1
  C  938  1  0.74947000  0.88950300  0.76577300  1
  C  941  1  0.74584200  0.00183331  0.87824800  1
  C  944  1  0.74792100  0.84748500  0.91115400  1
  C  945  1  0.59457700  0.94842500  0.82750800  1
  C  946  1  0.74602600  0.03475130  0.72337200  1
  C  950  1  0.89874900  0.95370600  0.82606900  1
  C  952  1  0.70737000  0.52730100  0.40416300  1
  C  953  1  0.70779500  0.50086500  0.37751000  1
  C  954  1  0.78413600  0.50013900  0.37719900  1
  C  955  1  0.78545300  0.52655800  0.40383900  1
  C  956  1  0.82445700  0.53758600  0.41546600  1
  C  957  1  0.86115400  0.52332900  0.40185200  1
  C  958  1  0.85805400  0.49713900  0.37548500  1
  C  959  1  0.82023600  0.48587700  0.36331300  1
  C  960  1  0.67123100  0.48752500  0.36365200  1
  C  961  1  0.63382300  0.49998800  0.37560800  1
  C  962  1  0.63160800  0.52613500  0.40208500  1
  C  963  1  0.66877500  0.53927300  0.41587300  1
  C  964  1  0.74689400  0.53351100  0.45862200  1
  C  965  1  0.74838200  0.56057400  0.48461500  1
  C  966  1  0.74881300  0.60758000  0.43749500  1
  C  967  1  0.74729400  0.58152400  0.41049300  1
  C  968  1  0.75022600  0.64386800  0.42880500  1
  C  969  1  0.75012700  0.65500900  0.39351700  1
  C  970  1  0.74809600  0.63026400  0.36565900  1
  C  971  1  0.74685100  0.59376500  0.37486200  1
  C  972  1  0.74608300  0.49791700  0.47095200  1
  C  973  1  0.74686000  0.48880500  0.50748900  1
  C  974  1  0.74880400  0.51672300  0.53217300  1
  C  975  1  0.74934000  0.55197700  0.52093700  1
  C  988  1  0.74668000  0.54216900  0.41924000  1
  C  989  1  0.74942800  0.59851700  0.47546300  1
  C  992  1  0.74571500  0.48624800  0.36293300  1
  C  995  1  0.74785500  0.64054100  0.33008500  1
  C  996  1  0.59449000  0.53950800  0.41391800  1
  C  997  1  0.74604700  0.45326400  0.51786900  1
  C  1001  1  0.89866500  0.53421900  0.41517400  1
  C  1003  1  0.70730400  0.52754700  0.83731300  1
  C  1004  1  0.70770200  0.50084500  0.86370200  1
  C  1005  1  0.78403600  0.50051300  0.86447200  1
  C  1006  1  0.78538300  0.52720100  0.83810200  1
  C  1007  1  0.82439700  0.53885800  0.82713700  1
  C  1008  1  0.86107900  0.52523900  0.84142600  1
  C  1009  1  0.85795100  0.49881900  0.86755900  1
  C  1010  1  0.82012500  0.48660500  0.87874300  1
  C  1011  1  0.67112300  0.48698100  0.87700200  1
  C  1012  1  0.63373000  0.49898800  0.86455800  1
  C  1013  1  0.63153900  0.52551600  0.83845700  1
  C  1014  1  0.66872100  0.53929900  0.82535000  1
  C  1015  1  0.74684500  0.58200000  0.83114500  1
  C  1016  1  0.74835500  0.60800000  0.80408700  1
  C  1017  1  0.74879500  0.56088900  0.75707300  1
  C  1018  1  0.74726400  0.53388400  0.78312100  1
  C  1019  1  0.75022300  0.55219900  0.72078000  1
  C  1020  1  0.75012400  0.51691100  0.70963600  1
  C  1021  1  0.74807800  0.48905200  0.73437500  1
  C  1022  1  0.74682400  0.49825200  0.77087700  1
  C  1023  1  0.74602000  0.59431800  0.86674200  1
  C  1024  1  0.74680300  0.63085400  0.87586300  1
  C  1025  1  0.74876500  0.65554600  0.84795600  1
  C  1026  1  0.74931600  0.64432000  0.81269700  1
  C  1039  1  0.74662500  0.54262100  0.82247600  1
  C  1040  1  0.74940700  0.59885600  0.76614400  1
  C  1043  1  0.74560400  0.48622000  0.87830400  1
  C  1046  1  0.74784900  0.45347700  0.72410400  1
  C  1047  1  0.59443500  0.53741100  0.82510600  1
  C  1048  1  0.74598700  0.64122000  0.91140800  1
  C  1052  1  0.89859500  0.53863800  0.83066200  1
  C  1054  1  0.70745500  0.96048900  0.40389600  1
  C  1055  1  0.70788900  0.98713200  0.37745100  1
  C  1056  1  0.78422900  0.98742800  0.37673500  1
  C  1057  1  0.78553700  0.96080100  0.40316700  1
  C  1058  1  0.82453300  0.94917800  0.41421300  1
  C  1059  1  0.86123900  0.96278100  0.39995800  1
  C  1060  1  0.85815000  0.98913400  0.37375400  1
  C  1061  1  0.82033900  0.00130131  0.36247300  1
  C  1062  1  0.67132700  0.00099231  0.36410400  1
  C  1063  1  0.63391600  0.98904600  0.37657100  1
  C  1064  1  0.63169300  0.96258000  0.40273100  1
  C  1065  1  0.66885700  0.94879000  0.41587300  1
  C  1066  1  0.74696300  0.90602800  0.41012400  1
  C  1067  1  0.74843600  0.88003800  0.43719100  1
  C  1068  1  0.74886400  0.92717100  0.48418900  1
  C  1069  1  0.74736100  0.95416600  0.45812700  1
  C  1070  1  0.75025600  0.93587400  0.52047900  1
  C  1071  1  0.75016000  0.97116700  0.53160700  1
  C  1072  1  0.74815000  0.99901400  0.50685000  1
  C  1073  1  0.74692400  0.98980000  0.47035300  1
  C  1074  1  0.74614600  0.89369700  0.37453000  1
  C  1075  1  0.74690300  0.85716100  0.36542000  1
  C  1076  1  0.74883400  0.83247700  0.39333800  1
  C  1077  1  0.74938200  0.84371400  0.42859200  1
  C  1090  1  0.74675800  0.94541000  0.41877400  1
  C  1091  1  0.74947600  0.88919900  0.47513200  1
  C  1094  1  0.74581500  0.00169831  0.36283300  1
  C  1097  1  0.74792700  0.03459030  0.51710700  1
  C  1098  1  0.59457400  0.95077300  0.41612000  1
  C  1099  1  0.74607400  0.84678700  0.32987900  1
  C  1103  1  0.89874000  0.94949000  0.41090500  1
  C  1105  1  0.24559300  0.28218600  0.41726900  1
  C  1106  1  0.28033900  0.26260300  0.42579000  1
  C  1107  1  0.27974400  0.22555300  0.42578400  1
  C  1108  1  0.24437600  0.20684900  0.41728000  1
  C  1109  1  0.20880300  0.22596600  0.40812500  1
  C  1112  1  0.20939900  0.26397200  0.40816500  1
  C  1113  1  0.17075000  0.20644900  0.39992700  1
  C  1117  1  0.17192800  0.28440400  0.40013000  1
  C  1123  1  0.24559600  0.20583600  0.82402100  1
  C  1124  1  0.28038100  0.22540800  0.81559400  1
  C  1125  1  0.27980300  0.26245900  0.81561800  1
  C  1126  1  0.24441500  0.28116500  0.82404500  1
  C  1127  1  0.20882400  0.26206000  0.83316100  1
  C  1130  1  0.20940200  0.22405400  0.83310300  1
  C  1131  1  0.17076500  0.28158600  0.84132300  1
  C  1135  1  0.17191000  0.20363000  0.84108500  1
  C  1141  1  0.24556300  0.94737200  0.15882800  1
  C  1142  1  0.28032600  0.93889100  0.13924700  1
  C  1143  1  0.27973200  0.93891500  0.10219500  1
  C  1144  1  0.24437900  0.94748800  0.08350030  1
  C  1145  1  0.20878800  0.95656700  0.10261300  1
  C  1148  1  0.20937200  0.95649000  0.14061900  1
  C  1149  1  0.17073500  0.96475400  0.08309030  1
  C  1153  1  0.17188900  0.96447900  0.16104900  1
  C  1159  1  0.24559900  0.54079400  0.08244230  1
  C  1160  1  0.28039700  0.54914500  0.10202300  1
  C  1161  1  0.27978500  0.54910300  0.13907200  1
  C  1162  1  0.24439700  0.54062400  0.15775700  1
  C  1163  1  0.20882700  0.53149600  0.13862500  1
  C  1166  1  0.20941700  0.53158800  0.10061900  1
  C  1167  1  0.17077100  0.52326900  0.15813000  1
  C  1171  1  0.17194900  0.52357000  0.08017330  1
  C  1177  1  0.74519100  0.78205800  0.91727000  1
  C  1178  1  0.78002000  0.76262300  0.92586900  1
  C  1179  1  0.77961900  0.72556900  0.92592700  1
  C  1180  1  0.74436600  0.70669500  0.91742400  1
  C  1181  1  0.70870800  0.72565900  0.90819800  1
  C  1184  1  0.70911200  0.76367300  0.90815600  1
  C  1185  1  0.67074600  0.70598900  0.90003600  1
  C  1189  1  0.67155900  0.78394600  0.90001700  1
  C  1195  1  0.74517000  0.70596000  0.32400200  1
  C  1196  1  0.78004700  0.72537300  0.31549500  1
  C  1197  1  0.77967300  0.76243000  0.31545600  1
  C  1198  1  0.74440500  0.78131700  0.32388700  1
  C  1199  1  0.70872600  0.76237200  0.33307700  1
  C  1202  1  0.70910000  0.72436000  0.33309900  1
  C  1203  1  0.67077000  0.78206600  0.34120600  1
  C  1207  1  0.67152000  0.70410600  0.34118900  1
  C  1213  1  0.74514900  0.44738000  0.65868200  1
  C  1214  1  0.78000200  0.43882000  0.63926000  1
  C  1215  1  0.77961000  0.43877600  0.60220300  1
  C  1216  1  0.74437200  0.44734500  0.58332800  1
  C  1217  1  0.70869300  0.45649400  0.60228200  1
  C  1220  1  0.70907600  0.45650100  0.64029400  1
  C  1221  1  0.67074000  0.46464100  0.58259500  1
  C  1225  1  0.67150500  0.46459400  0.66055400  1
  C  1231  1  0.74520600  0.04080230  0.58255000  1
  C  1232  1  0.78009200  0.04921930  0.60198100  1
  C  1233  1  0.77967900  0.04923530  0.63903500  1
  C  1234  1  0.74440500  0.04075930  0.65789200  1
  C  1235  1  0.70874400  0.03157030  0.63891300  1
  C  1238  1  0.70913600  0.03159130  0.60090200  1
  C  1239  1  0.67078500  0.02337730  0.65857600  1
  C  1243  1  0.67158100  0.02348030  0.58061900  1
  C  1249  1  0.96286500  0.50485200  0.39064700  1
  C  1250  1  0.96793400  0.51025500  0.35407700  1
  C  1251  1  0.00089726  0.49548900  0.33595300  1
  C  1252  1  0.03062830  0.47548800  0.35365300  1
  C  1253  1  0.02562630  0.46886700  0.39054600  1
  C  1256  1  0.99219800  0.48436700  0.40923000  1
  C  1257  1  0.05457330  0.44523700  0.40949800  1
  C  1261  1  0.98751600  0.47845700  0.44816700  1
  C  1267  1  0.96289300  0.98311800  0.85058300  1
  C  1268  1  0.96794600  0.97771800  0.88715700  1
  C  1269  1  0.00088226  0.99250800  0.90529900  1
  C  1270  1  0.03059730  0.01254030  0.88761700  1
  C  1271  1  0.02559930  0.01917530  0.85072600  1
  C  1274  1  0.99220100  0.00364731  0.83202300  1
  C  1275  1  0.05452830  0.04283530  0.83179300  1
  C  1279  1  0.98753400  0.00955731  0.79308300  1
  C  1285  1  0.96290500  0.97400200  0.38150500  1
  C  1286  1  0.96799700  0.01056730  0.38692600  1
  C  1287  1  0.00095426  0.02868730  0.37214700  1
  C  1288  1  0.03067030  0.01098030  0.35213300  1
  C  1289  1  0.02559030  0.97411300  0.34542800  1
  C  1292  1  0.99218000  0.95542700  0.36095300  1
  C  1293  1  0.05447030  0.95517600  0.32172500  1
  C  1297  1  0.98745300  0.91650300  0.35500000  1
  C  1303  1  0.96292300  0.51404500  0.85988100  1
  C  1304  1  0.96783700  0.47743800  0.85465600  1
  C  1305  1  0.00082826  0.45932000  0.86938200  1
  C  1306  1  0.03067030  0.47704500  0.88923300  1
  C  1307  1  0.02577030  0.51397100  0.89573500  1
  C  1310  1  0.99234000  0.53266200  0.88024200  1
  C  1311  1  0.05480830  0.53294700  0.91926200  1
  C  1315  1  0.98777200  0.57162800  0.88602800  1
  C  1321  1  0.53066100  0.98027700  0.39218600  1
  C  1322  1  0.52475400  0.97410500  0.35582900  1
  C  1323  1  0.49198600  0.98926300  0.33775900  1
  C  1324  1  0.46312700  0.01028230  0.35537800  1
  C  1325  1  0.46889200  0.01756230  0.39205900  1
  C  1328  1  0.50223900  0.00181931  0.41065500  1
  C  1329  1  0.44075000  0.04202930  0.41087800  1
  C  1333  1  0.50778800  0.00851531  0.44937200  1
  C  1339  1  0.53060400  0.50787200  0.84904900  1
  C  1340  1  0.52468600  0.51407400  0.88540000  1
  C  1341  1  0.49197200  0.49886000  0.90349200  1
  C  1342  1  0.46317600  0.47775000  0.88590000  1
  C  1343  1  0.46896200  0.47042900  0.84923200  1
  C  1346  1  0.50225500  0.48622900  0.83061400  1
  C  1347  1  0.44088800  0.44587600  0.83044200  1
  C  1351  1  0.50782000  0.47950000  0.79190400  1
  C  1357  1  0.53060600  0.51556000  0.38439700  1
  C  1358  1  0.52467600  0.47921100  0.39059100  1
  C  1359  1  0.49191700  0.46114200  0.37541700  1
  C  1360  1  0.46307300  0.47876500  0.35438000  1
  C  1361  1  0.46891300  0.51541700  0.34701600  1
  C  1364  1  0.50224100  0.53401600  0.36278600  1
  C  1365  1  0.44084000  0.53421400  0.32246900  1
  C  1369  1  0.50783400  0.57272000  0.35604200  1
  C  1375  1  0.53059700  0.97243100  0.85691100  1
  C  1376  1  0.52482700  0.00882231  0.85087100  1
  C  1377  1  0.49206500  0.02689730  0.86602500  1
  C  1378  1  0.46313300  0.00926931  0.88696000  1
  C  1379  1  0.46881700  0.97256100  0.89416400  1
  C  1382  1  0.50213800  0.95394600  0.87840500  1
  C  1383  1  0.44062900  0.95373700  0.91858500  1
  C  1387  1  0.50759700  0.91520500  0.88502700  1
  N  425  1  0.00633600  0.07853300  0.18711800  1
  N  426  1  0.00381700  0.93448600  0.18719500  1
  N  443  1  0.00632400  0.93348600  0.57813700  1
  N  444  1  0.00386200  0.07751800  0.57810600  1
  N  461  1  0.00630200  0.70149600  0.95517100  1
  N  462  1  0.00383800  0.70148300  0.81115300  1
  N  479  1  0.00634500  0.31055200  0.81006600  1
  N  480  1  0.00382300  0.31053600  0.95411700  1
  N  497  1  0.50569600  0.57841700  0.68714300  1
  N  498  1  0.50402700  0.43431900  0.68733000  1
  N  515  1  0.50564500  0.43360200  0.07809000  1
  N  516  1  0.50408700  0.57768200  0.07795300  1
  N  533  1  0.50563600  0.20147800  0.45503700  1
  N  534  1  0.50406300  0.20134100  0.31097000  1
  N  551  1  0.50571100  0.81058700  0.31016400  1
  N  552  1  0.50405400  0.81066600  0.45426200  1
  N  569  1  0.69363700  0.28560100  0.16978200  1
  N  570  1  0.81750900  0.22244100  0.09481900  1
  N  587  1  0.69373900  0.72629400  0.59541900  1
  N  588  1  0.81746100  0.78959200  0.67046100  1
  N  605  1  0.69372700  0.71885500  0.16231000  1
  N  606  1  0.81743700  0.79385000  0.09897600  1
  N  623  1  0.69353400  0.29317500  0.60330000  1
  N  624  1  0.81757900  0.21821600  0.66624600  1
  N  641  1  0.31711000  0.72283200  0.17141400  1
  N  642  1  0.19434500  0.78761900  0.09656900  1
  N  659  1  0.31695100  0.28939900  0.59379000  1
  N  660  1  0.19446600  0.22434400  0.66872900  1
  N  677  1  0.31702000  0.29479900  0.16587100  1
  N  678  1  0.19442600  0.21990700  0.10091300  1
  N  695  1  0.31712900  0.71717300  0.59957300  1
  N  696  1  0.19435900  0.79207800  0.66430200  1
  N  1121  1  0.24738600  0.31653600  0.42512100  1
  N  1122  1  0.24486700  0.17248900  0.42519800  1
  N  1139  1  0.24737400  0.17148900  0.81614000  1
  N  1140  1  0.24491200  0.31552100  0.81610900  1
  N  1157  1  0.24735200  0.93949900  0.19317400  1
  N  1158  1  0.24488800  0.93948600  0.04915630  1
  N  1175  1  0.24739500  0.54855500  0.04806930  1
  N  1176  1  0.24487300  0.54853900  0.19212000  1
  N  1193  1  0.74674600  0.81642000  0.92514600  1
  N  1194  1  0.74507700  0.67232200  0.92533300  1
  N  1211  1  0.74669500  0.67160500  0.31609300  1
  N  1212  1  0.74513700  0.81568500  0.31595600  1
  N  1229  1  0.74668600  0.43948100  0.69304000  1
  N  1230  1  0.74511300  0.43934400  0.54897300  1
  N  1247  1  0.74676100  0.04859030  0.54816700  1
  N  1248  1  0.74510400  0.04866930  0.69226500  1
  N  1265  1  0.93468700  0.52360400  0.40778500  1
  N  1266  1  0.05855930  0.46044400  0.33282200  1
  N  1283  1  0.93478900  0.96429700  0.83342200  1
  N  1284  1  0.05851130  0.02759530  0.90846400  1
  N  1301  1  0.93477700  0.95685800  0.40031300  1
  N  1302  1  0.05848730  0.03185330  0.33697900  1
  N  1319  1  0.93458400  0.53117800  0.84130300  1
  N  1320  1  0.05862930  0.45621900  0.90424900  1
  N  1337  1  0.55816000  0.96083500  0.40941700  1
  N  1338  1  0.43539500  0.02562230  0.33457200  1
  N  1355  1  0.55800100  0.52740200  0.83179300  1
  N  1356  1  0.43551600  0.46234700  0.90673200  1
  N  1373  1  0.55807000  0.53280200  0.40387400  1
  N  1374  1  0.43547600  0.45791000  0.33891600  1
  N  1391  1  0.55817900  0.95517600  0.83757600  1
  N  1392  1  0.43540900  0.03008130  0.90230500  1
