# generated using pymatgen
data_H40C53N4
_symmetry_space_group_name_H-M   'P 1'
_cell_length_a   33.79830000
_cell_length_b   33.79830000
_cell_length_c   40.44170000
_cell_angle_alpha   90.00000000
_cell_angle_beta   90.00000000
_cell_angle_gamma   120.00000000
_symmetry_Int_Tables_number   1
_chemical_formula_structural   H40C53N4
_chemical_formula_sum   'H360 C477 N36'
_cell_volume   40008.26774495
_cell_formula_units_Z   9
loop_
 _symmetry_equiv_pos_site_id
 _symmetry_equiv_pos_as_xyz
  1  'x, y, z'
loop_
 _atom_site_type_symbol
 _atom_site_label
 _atom_site_symmetry_multiplicity
 _atom_site_fract_x
 _atom_site_fract_y
 _atom_site_fract_z
 _atom_site_occupancy
  H  26  1  0.57257100  0.65117700  0.93057900  1
  H  27  1  0.61154300  0.63328300  0.97306600  1
  H  28  1  0.63664500  0.60181500  0.02079800  1
  H  29  1  0.64637000  0.55857800  0.06448300  1
  H  30  1  0.51173500  0.45004500  0.04919900  1
  H  31  1  0.45167400  0.52571900  0.94805200  1
  H  32  1  0.47096500  0.54152500  0.04923100  1
  H  33  1  0.33635000  0.43292500  0.06445500  1
  H  34  1  0.34611200  0.38977200  0.02072600  1
  H  35  1  0.53116200  0.46598700  0.94808100  1
  H  36  1  0.37127200  0.35836500  0.97298700  1
  H  37  1  0.41032200  0.34050100  0.93054500  1
  H  40  1  0.55823700  0.45798200  0.10017900  1
  H  42  1  0.51709700  0.41710900  0.89699900  1
  H  44  1  0.42441600  0.53339600  0.10025300  1
  H  46  1  0.46594600  0.57462800  0.89691300  1
  H  71  1  0.06558500  0.41471900  0.26384100  1
  H  72  1  0.00866100  0.37567300  0.30627800  1
  H  73  1  0.95207300  0.35051300  0.35400100  1
  H  74  1  0.89915500  0.34075800  0.39772500  1
  H  75  1  0.92522700  0.47539800  0.38252300  1
  H  76  1  0.06097200  0.53557500  0.28138300  1
  H  77  1  0.05744700  0.51609800  0.38249900  1
  H  78  1  0.08378600  0.65082700  0.39770100  1
  H  79  1  0.03083800  0.64114500  0.35401800  1
  H  80  1  0.92174200  0.45614300  0.28133600  1
  H  81  1  0.97424800  0.61606800  0.30629800  1
  H  82  1  0.91738100  0.57713400  0.26380400  1
  H  84  1  0.88683900  0.42885100  0.43355700  1
  H  86  1  0.88725500  0.47055900  0.23011900  1
  H  88  1  0.09617200  0.56259600  0.43339400  1
  H  90  1  0.09576900  0.52147500  0.23029200  1
  H  115  1  0.33600100  0.92163800  0.59723000  1
  H  116  1  0.35391100  0.97851900  0.63971100  1
  H  117  1  0.38544400  0.03518400  0.68738400  1
  H  118  1  0.42869900  0.08815200  0.73106000  1
  H  119  1  0.53715600  0.06192200  0.71583500  1
  H  120  1  0.46144500  0.92617100  0.61470700  1
  H  121  1  0.44562200  0.92965000  0.71585500  1
  H  122  1  0.55417300  0.90356300  0.73108200  1
  H  123  1  0.59735500  0.95648800  0.68736200  1
  H  124  1  0.52124100  0.06543700  0.61474900  1
  H  125  1  0.62880700  0.01309200  0.63964900  1
  H  126  1  0.64670700  0.07003500  0.59722000  1
  H  129  1  0.52932400  0.10059500  0.76675600  1
  H  131  1  0.57014400  0.10026000  0.56368000  1
  H  133  1  0.45365400  0.89114400  0.76684700  1
  H  135  1  0.41252900  0.89148400  0.56359100  1
  H  142  1  0.57492100  0.30199900  0.78648000  1
  H  143  1  0.57457500  0.25119900  0.74523100  1
  H  150  1  0.55958600  0.25937300  0.88755100  1
  H  151  1  0.55071600  0.30611600  0.92783300  1
  H  152  1  0.49979600  0.35708200  0.85388300  1
  H  153  1  0.50051300  0.13965500  0.80969700  1
  H  154  1  0.50891400  0.31085000  0.81380100  1
  H  155  1  0.50094700  0.19020100  0.85074200  1
  H  157  1  0.55021000  0.38639600  0.93296400  1
  H  158  1  0.49590500  0.33809700  0.94040100  1
  H  160  1  0.57025500  0.16929100  0.73824000  1
  H  161  1  0.51948900  0.16708000  0.72475900  1
  H  168  1  0.71403400  0.41230800  0.11977000  1
  H  169  1  0.66353700  0.41265100  0.07855700  1
  H  176  1  0.68678200  0.42742700  0.22085600  1
  H  177  1  0.74245400  0.43631700  0.26109400  1
  H  178  1  0.84431200  0.48760500  0.18712300  1
  H  179  1  0.62604100  0.48661700  0.14310700  1
  H  180  1  0.78890100  0.47844600  0.14708600  1
  H  181  1  0.67618700  0.48617200  0.18411900  1
  H  183  1  0.82339400  0.43697400  0.26607900  1
  H  184  1  0.82916000  0.49114100  0.27370700  1
  H  186  1  0.58588400  0.41694800  0.07163900  1
  H  187  1  0.63446800  0.46767800  0.05813800  1
  H  194  1  0.68526100  0.27339900  0.45330400  1
  H  195  1  0.73606200  0.32387900  0.41206200  1
  H  202  1  0.72795300  0.30047400  0.55434100  1
  H  203  1  0.68119100  0.24482600  0.59459700  1
  H  204  1  0.63011500  0.14304300  0.52057400  1
  H  205  1  0.84764600  0.36103500  0.47641900  1
  H  206  1  0.67636600  0.19843700  0.48051400  1
  H  207  1  0.79710100  0.31091100  0.51745800  1
  H  209  1  0.60084200  0.16405700  0.59968300  1
  H  210  1  0.64913900  0.15803900  0.60710800  1
  H  212  1  0.81809800  0.40142200  0.40510600  1
  H  213  1  0.82007900  0.35279200  0.39149400  1
  H  220  1  0.40781100  0.68963000  0.78648100  1
  H  221  1  0.40814100  0.74045500  0.74525800  1
  H  228  1  0.42307800  0.73213500  0.88753900  1
  H  229  1  0.43193800  0.68536800  0.92780400  1
  H  230  1  0.48305500  0.63459300  0.85385700  1
  H  231  1  0.48225900  0.85196300  0.80973900  1
  H  232  1  0.47392800  0.68084100  0.81378900  1
  H  233  1  0.48183000  0.80139600  0.85076100  1
  H  235  1  0.43251700  0.60506800  0.93285300  1
  H  236  1  0.48673000  0.65343500  0.94042000  1
  H  238  1  0.41249200  0.82243500  0.73834700  1
  H  239  1  0.46316800  0.82452600  0.72477200  1
  H  246  1  0.26894500  0.57950100  0.11991300  1
  H  247  1  0.31941900  0.57913600  0.07869100  1
  H  254  1  0.29604000  0.56402300  0.22097700  1
  H  255  1  0.24038200  0.55514500  0.26122300  1
  H  256  1  0.13859000  0.50429000  0.18720500  1
  H  257  1  0.35660400  0.50480000  0.14311900  1
  H  258  1  0.19398600  0.51342400  0.14716000  1
  H  259  1  0.30648400  0.50526800  0.18414100  1
  H  261  1  0.15957400  0.55465200  0.26628400  1
  H  262  1  0.15360100  0.50036700  0.27374900  1
  H  264  1  0.39695200  0.57463600  0.07174500  1
  H  265  1  0.34832200  0.52399400  0.05818200  1
  H  272  1  0.29755100  0.71847800  0.45313900  1
  H  273  1  0.24676300  0.66801800  0.41188900  1
  H  280  1  0.25498100  0.69116200  0.55421500  1
  H  281  1  0.30171200  0.74680300  0.59448800  1
  H  282  1  0.35253300  0.84867600  0.52052900  1
  H  283  1  0.13522000  0.63044800  0.47637000  1
  H  284  1  0.30631900  0.79329900  0.48045700  1
  H  285  1  0.18575500  0.68056200  0.51741600  1
  H  287  1  0.38199000  0.82765200  0.59956700  1
  H  288  1  0.33364700  0.83356200  0.60706900  1
  H  290  1  0.16487100  0.59040000  0.40488400  1
  H  291  1  0.16265700  0.63896400  0.39143200  1
  H  317  1  0.57257100  0.65117700  0.65858300  1
  H  318  1  0.61154300  0.63328300  0.70107000  1
  H  319  1  0.63664500  0.60181500  0.74880200  1
  H  320  1  0.64637000  0.55857800  0.79248700  1
  H  321  1  0.51173500  0.45004500  0.77720300  1
  H  322  1  0.45167400  0.52571900  0.67605600  1
  H  323  1  0.47096500  0.54152500  0.77723500  1
  H  324  1  0.33635000  0.43292500  0.79245900  1
  H  325  1  0.34611200  0.38977200  0.74873000  1
  H  326  1  0.53116200  0.46598700  0.67608500  1
  H  327  1  0.37127200  0.35836500  0.70099100  1
  H  328  1  0.41032200  0.34050100  0.65854900  1
  H  331  1  0.55823700  0.45798200  0.82818300  1
  H  333  1  0.51709700  0.41710900  0.62500300  1
  H  335  1  0.42441600  0.53339600  0.82825700  1
  H  337  1  0.46594600  0.57462800  0.62491700  1
  H  362  1  0.06558500  0.41471900  0.99184452  1
  H  363  1  0.00866100  0.37567300  0.03428200  1
  H  364  1  0.95207300  0.35051300  0.08200500  1
  H  365  1  0.89915500  0.34075800  0.12572900  1
  H  366  1  0.92522700  0.47539800  0.11052700  1
  H  367  1  0.06097200  0.53557500  0.00938700  1
  H  368  1  0.05744700  0.51609800  0.11050300  1
  H  369  1  0.08378600  0.65082700  0.12570500  1
  H  370  1  0.03083800  0.64114500  0.08202200  1
  H  371  1  0.92174200  0.45614300  0.00934000  1
  H  372  1  0.97424800  0.61606800  0.03430200  1
  H  373  1  0.91738100  0.57713400  0.99180752  1
  H  375  1  0.88683900  0.42885100  0.16156100  1
  H  377  1  0.88725500  0.47055900  0.95812250  1
  H  379  1  0.09617200  0.56259600  0.16139800  1
  H  381  1  0.09576900  0.52147500  0.95829550  1
  H  406  1  0.33600100  0.92163800  0.32523400  1
  H  407  1  0.35391100  0.97851900  0.36771500  1
  H  408  1  0.38544400  0.03518400  0.41538800  1
  H  409  1  0.42869900  0.08815200  0.45906400  1
  H  410  1  0.53715600  0.06192200  0.44383900  1
  H  411  1  0.46144500  0.92617100  0.34271100  1
  H  412  1  0.44562200  0.92965000  0.44385900  1
  H  413  1  0.55417300  0.90356300  0.45908600  1
  H  414  1  0.59735500  0.95648800  0.41536600  1
  H  415  1  0.52124100  0.06543700  0.34275300  1
  H  416  1  0.62880700  0.01309200  0.36765300  1
  H  417  1  0.64670700  0.07003500  0.32522400  1
  H  420  1  0.52932400  0.10059500  0.49476000  1
  H  422  1  0.57014400  0.10026000  0.29168400  1
  H  424  1  0.45365400  0.89114400  0.49485100  1
  H  426  1  0.41252900  0.89148400  0.29159500  1
  H  433  1  0.57492100  0.30199900  0.51448400  1
  H  434  1  0.57457500  0.25119900  0.47323500  1
  H  441  1  0.55958600  0.25937300  0.61555500  1
  H  442  1  0.55071600  0.30611600  0.65583700  1
  H  443  1  0.49979600  0.35708200  0.58188700  1
  H  444  1  0.50051300  0.13965500  0.53770100  1
  H  445  1  0.50891400  0.31085000  0.54180500  1
  H  446  1  0.50094700  0.19020100  0.57874600  1
  H  448  1  0.55021000  0.38639600  0.66096800  1
  H  449  1  0.49590500  0.33809700  0.66840500  1
  H  451  1  0.57025500  0.16929100  0.46624400  1
  H  452  1  0.51948900  0.16708000  0.45276300  1
  H  459  1  0.71403400  0.41230800  0.84777400  1
  H  460  1  0.66353700  0.41265100  0.80656100  1
  H  467  1  0.68678200  0.42742700  0.94885950  1
  H  468  1  0.74245400  0.43631700  0.98909750  1
  H  469  1  0.84431200  0.48760500  0.91512650  1
  H  470  1  0.62604100  0.48661700  0.87111100  1
  H  471  1  0.78890100  0.47844600  0.87509000  1
  H  472  1  0.67618700  0.48617200  0.91212250  1
  H  474  1  0.82339400  0.43697400  0.99408252  1
  H  475  1  0.82916000  0.49114100  0.00171100  1
  H  477  1  0.58588400  0.41694800  0.79964300  1
  H  478  1  0.63446800  0.46767800  0.78614200  1
  H  485  1  0.68526100  0.27339900  0.18130800  1
  H  486  1  0.73606200  0.32387900  0.14006600  1
  H  493  1  0.72795300  0.30047400  0.28234500  1
  H  494  1  0.68119100  0.24482600  0.32260100  1
  H  495  1  0.63011500  0.14304300  0.24857800  1
  H  496  1  0.84764600  0.36103500  0.20442300  1
  H  497  1  0.67636600  0.19843700  0.20851800  1
  H  498  1  0.79710100  0.31091100  0.24546200  1
  H  500  1  0.60084200  0.16405700  0.32768700  1
  H  501  1  0.64913900  0.15803900  0.33511200  1
  H  503  1  0.81809800  0.40142200  0.13311000  1
  H  504  1  0.82007900  0.35279200  0.11949800  1
  H  511  1  0.40781100  0.68963000  0.51448500  1
  H  512  1  0.40814100  0.74045500  0.47326200  1
  H  519  1  0.42307800  0.73213500  0.61554300  1
  H  520  1  0.43193800  0.68536800  0.65580800  1
  H  521  1  0.48305500  0.63459300  0.58186100  1
  H  522  1  0.48225900  0.85196300  0.53774300  1
  H  523  1  0.47392800  0.68084100  0.54179300  1
  H  524  1  0.48183000  0.80139600  0.57876500  1
  H  526  1  0.43251700  0.60506800  0.66085700  1
  H  527  1  0.48673000  0.65343500  0.66842400  1
  H  529  1  0.41249200  0.82243500  0.46635100  1
  H  530  1  0.46316800  0.82452600  0.45277600  1
  H  537  1  0.26894500  0.57950100  0.84791700  1
  H  538  1  0.31941900  0.57913600  0.80669500  1
  H  545  1  0.29604000  0.56402300  0.94898050  1
  H  546  1  0.24038200  0.55514500  0.98922650  1
  H  547  1  0.13859000  0.50429000  0.91520850  1
  H  548  1  0.35660400  0.50480000  0.87112300  1
  H  549  1  0.19398600  0.51342400  0.87516400  1
  H  550  1  0.30648400  0.50526800  0.91214450  1
  H  552  1  0.15957400  0.55465200  0.99428752  1
  H  553  1  0.15360100  0.50036700  0.00175300  1
  H  555  1  0.39695200  0.57463600  0.79974900  1
  H  556  1  0.34832200  0.52399400  0.78618600  1
  H  563  1  0.29755100  0.71847800  0.18114300  1
  H  564  1  0.24676300  0.66801800  0.13989300  1
  H  571  1  0.25498100  0.69116200  0.28221900  1
  H  572  1  0.30171200  0.74680300  0.32249200  1
  H  573  1  0.35253300  0.84867600  0.24853300  1
  H  574  1  0.13522000  0.63044800  0.20437400  1
  H  575  1  0.30631900  0.79329900  0.20846100  1
  H  576  1  0.18575500  0.68056200  0.24542000  1
  H  578  1  0.38199000  0.82765200  0.32757100  1
  H  579  1  0.33364700  0.83356200  0.33507300  1
  H  581  1  0.16487100  0.59040000  0.13288800  1
  H  582  1  0.16265700  0.63896400  0.11943600  1
  H  608  1  0.57257100  0.65117700  0.38658600  1
  H  609  1  0.61154300  0.63328300  0.42907300  1
  H  610  1  0.63664500  0.60181500  0.47680500  1
  H  611  1  0.64637000  0.55857800  0.52049000  1
  H  612  1  0.51173500  0.45004500  0.50520600  1
  H  613  1  0.45167400  0.52571900  0.40405900  1
  H  614  1  0.47096500  0.54152500  0.50523800  1
  H  615  1  0.33635000  0.43292500  0.52046200  1
  H  616  1  0.34611200  0.38977200  0.47673300  1
  H  617  1  0.53116200  0.46598700  0.40408800  1
  H  618  1  0.37127200  0.35836500  0.42899400  1
  H  619  1  0.41032200  0.34050100  0.38655200  1
  H  622  1  0.55823700  0.45798200  0.55618600  1
  H  624  1  0.51709700  0.41710900  0.35300600  1
  H  626  1  0.42441600  0.53339600  0.55626000  1
  H  628  1  0.46594600  0.57462800  0.35292000  1
  H  653  1  0.06558500  0.41471900  0.71984800  1
  H  654  1  0.00866100  0.37567300  0.76228500  1
  H  655  1  0.95207300  0.35051300  0.81000800  1
  H  656  1  0.89915500  0.34075800  0.85373200  1
  H  657  1  0.92522700  0.47539800  0.83853000  1
  H  658  1  0.06097200  0.53557500  0.73739000  1
  H  659  1  0.05744700  0.51609800  0.83850600  1
  H  660  1  0.08378600  0.65082700  0.85370800  1
  H  661  1  0.03083800  0.64114500  0.81002500  1
  H  662  1  0.92174200  0.45614300  0.73734300  1
  H  663  1  0.97424800  0.61606800  0.76230500  1
  H  664  1  0.91738100  0.57713400  0.71981100  1
  H  666  1  0.88683900  0.42885100  0.88956400  1
  H  668  1  0.88725500  0.47055900  0.68612600  1
  H  670  1  0.09617200  0.56259600  0.88940100  1
  H  672  1  0.09576900  0.52147500  0.68629900  1
  H  697  1  0.33600100  0.92163800  0.05323700  1
  H  698  1  0.35391100  0.97851900  0.09571800  1
  H  699  1  0.38544400  0.03518400  0.14339100  1
  H  700  1  0.42869900  0.08815200  0.18706700  1
  H  701  1  0.53715600  0.06192200  0.17184200  1
  H  702  1  0.46144500  0.92617100  0.07071400  1
  H  703  1  0.44562200  0.92965000  0.17186200  1
  H  704  1  0.55417300  0.90356300  0.18708900  1
  H  705  1  0.59735500  0.95648800  0.14336900  1
  H  706  1  0.52124100  0.06543700  0.07075600  1
  H  707  1  0.62880700  0.01309200  0.09565600  1
  H  708  1  0.64670700  0.07003500  0.05322700  1
  H  711  1  0.52932400  0.10059500  0.22276300  1
  H  713  1  0.57014400  0.10026000  0.01968700  1
  H  715  1  0.45365400  0.89114400  0.22285400  1
  H  717  1  0.41252900  0.89148400  0.01959800  1
  H  724  1  0.57492100  0.30199900  0.24248700  1
  H  725  1  0.57457500  0.25119900  0.20123800  1
  H  732  1  0.55958600  0.25937300  0.34355800  1
  H  733  1  0.55071600  0.30611600  0.38384000  1
  H  734  1  0.49979600  0.35708200  0.30989000  1
  H  735  1  0.50051300  0.13965500  0.26570400  1
  H  736  1  0.50891400  0.31085000  0.26980800  1
  H  737  1  0.50094700  0.19020100  0.30674900  1
  H  739  1  0.55021000  0.38639600  0.38897100  1
  H  740  1  0.49590500  0.33809700  0.39640800  1
  H  742  1  0.57025500  0.16929100  0.19424700  1
  H  743  1  0.51948900  0.16708000  0.18076600  1
  H  750  1  0.71403400  0.41230800  0.57577700  1
  H  751  1  0.66353700  0.41265100  0.53456400  1
  H  758  1  0.68678200  0.42742700  0.67686300  1
  H  759  1  0.74245400  0.43631700  0.71710100  1
  H  760  1  0.84431200  0.48760500  0.64313000  1
  H  761  1  0.62604100  0.48661700  0.59911400  1
  H  762  1  0.78890100  0.47844600  0.60309300  1
  H  763  1  0.67618700  0.48617200  0.64012600  1
  H  765  1  0.82339400  0.43697400  0.72208600  1
  H  766  1  0.82916000  0.49114100  0.72971400  1
  H  768  1  0.58588400  0.41694800  0.52764600  1
  H  769  1  0.63446800  0.46767800  0.51414500  1
  H  776  1  0.68526100  0.27339900  0.90931100  1
  H  777  1  0.73606200  0.32387900  0.86806900  1
  H  784  1  0.72795300  0.30047400  0.01034800  1
  H  785  1  0.68119100  0.24482600  0.05060400  1
  H  786  1  0.63011500  0.14304300  0.97658100  1
  H  787  1  0.84764600  0.36103500  0.93242600  1
  H  788  1  0.67636600  0.19843700  0.93652100  1
  H  789  1  0.79710100  0.31091100  0.97346500  1
  H  791  1  0.60084200  0.16405700  0.05569000  1
  H  792  1  0.64913900  0.15803900  0.06311500  1
  H  794  1  0.81809800  0.40142200  0.86111300  1
  H  795  1  0.82007900  0.35279200  0.84750100  1
  H  802  1  0.40781100  0.68963000  0.24248800  1
  H  803  1  0.40814100  0.74045500  0.20126500  1
  H  810  1  0.42307800  0.73213500  0.34354600  1
  H  811  1  0.43193800  0.68536800  0.38381100  1
  H  812  1  0.48305500  0.63459300  0.30986400  1
  H  813  1  0.48225900  0.85196300  0.26574600  1
  H  814  1  0.47392800  0.68084100  0.26979600  1
  H  815  1  0.48183000  0.80139600  0.30676800  1
  H  817  1  0.43251700  0.60506800  0.38886000  1
  H  818  1  0.48673000  0.65343500  0.39642700  1
  H  820  1  0.41249200  0.82243500  0.19435400  1
  H  821  1  0.46316800  0.82452600  0.18077900  1
  H  828  1  0.26894500  0.57950100  0.57592000  1
  H  829  1  0.31941900  0.57913600  0.53469800  1
  H  836  1  0.29604000  0.56402300  0.67698400  1
  H  837  1  0.24038200  0.55514500  0.71723000  1
  H  838  1  0.13859000  0.50429000  0.64321200  1
  H  839  1  0.35660400  0.50480000  0.59912600  1
  H  840  1  0.19398600  0.51342400  0.60316700  1
  H  841  1  0.30648400  0.50526800  0.64014800  1
  H  843  1  0.15957400  0.55465200  0.72229100  1
  H  844  1  0.15360100  0.50036700  0.72975600  1
  H  846  1  0.39695200  0.57463600  0.52775200  1
  H  847  1  0.34832200  0.52399400  0.51418900  1
  H  854  1  0.29755100  0.71847800  0.90914600  1
  H  855  1  0.24676300  0.66801800  0.86789600  1
  H  862  1  0.25498100  0.69116200  0.01022200  1
  H  863  1  0.30171200  0.74680300  0.05049500  1
  H  864  1  0.35253300  0.84867600  0.97653600  1
  H  865  1  0.13522000  0.63044800  0.93237700  1
  H  866  1  0.30631900  0.79329900  0.93646400  1
  H  867  1  0.18575500  0.68056200  0.97342300  1
  H  869  1  0.38199000  0.82765200  0.05557400  1
  H  870  1  0.33364700  0.83356200  0.06307600  1
  H  872  1  0.16487100  0.59040000  0.86089100  1
  H  873  1  0.16265700  0.63896400  0.84743900  1
  C  1  1  0.99133100  0.49579700  0.33117000  1
  C  2  1  0.47454500  0.45376700  0.97771100  1
  C  3  1  0.42873200  0.42260400  0.98492500  1
  C  4  1  0.41416800  0.44089300  0.00967800  1
  C  5  1  0.45020500  0.48436300  0.01787200  1
  C  6  1  0.44446800  0.51002900  0.04301500  1
  C  7  1  0.40239300  0.49123700  0.06022000  1
  C  8  1  0.36664000  0.44703900  0.05185700  1
  C  9  1  0.37207700  0.42181500  0.02636400  1
  C  10  1  0.40483700  0.38084100  0.96790300  1
  C  11  1  0.42769600  0.37068000  0.94316400  1
  C  12  1  0.47420400  0.40130100  0.93594800  1
  C  13  1  0.49776100  0.44316000  0.95340000  1
  C  14  1  0.50823200  0.53792700  0.97775000  1
  C  15  1  0.55403700  0.56907400  0.98499500  1
  C  16  1  0.56855900  0.55076000  0.00975900  1
  C  17  1  0.53253500  0.50725100  0.01788000  1
  C  18  1  0.61065300  0.56978600  0.02643500  1
  C  19  1  0.61607600  0.54450600  0.05189200  1
  C  20  1  0.58029600  0.50031100  0.06023700  1
  C  21  1  0.53823600  0.48155100  0.04301500  1
  C  22  1  0.48505800  0.54855000  0.95341300  1
  C  23  1  0.50866400  0.59040400  0.93596000  1
  C  24  1  0.55516500  0.62100000  0.94319900  1
  C  25  1  0.57797300  0.61083300  0.96797400  1
  C  38  1  0.49137600  0.49582700  0.99787900  1
  C  47  1  0.96613000  0.51268600  0.31103000  1
  C  48  1  0.98084700  0.55851000  0.31826000  1
  C  49  1  0.01366600  0.57300300  0.34303400  1
  C  50  1  0.02105700  0.53693000  0.35119400  1
  C  51  1  0.05247800  0.54261900  0.37630900  1
  C  52  1  0.07586600  0.58470100  0.39349500  1
  C  53  1  0.06750900  0.62051600  0.38513400  1
  C  54  1  0.03679400  0.61511000  0.35969000  1
  C  55  1  0.96309000  0.58248800  0.30121400  1
  C  56  1  0.93011600  0.55970600  0.27643200  1
  C  57  1  0.91415400  0.51318700  0.26921000  1
  C  58  1  0.93236100  0.48954900  0.28666900  1
  C  59  1  0.01657300  0.47896200  0.31101500  1
  C  60  1  0.00189800  0.43314200  0.31821800  1
  C  61  1  0.96905900  0.41859200  0.34298200  1
  C  62  1  0.96158200  0.45460900  0.35113700  1
  C  63  1  0.94599800  0.37648100  0.35963900  1
  C  64  1  0.91533700  0.37105000  0.38513000  1
  C  65  1  0.90691400  0.40681500  0.39350200  1
  C  66  1  0.93019100  0.44888600  0.37629000  1
  C  67  1  0.05040300  0.50217700  0.28670600  1
  C  68  1  0.06868600  0.47860800  0.26925200  1
  C  69  1  0.05278200  0.43209600  0.27645900  1
  C  70  1  0.01974900  0.40923800  0.30118900  1
  C  91  1  0.53343300  0.02101100  0.64436900  1
  C  92  1  0.56458400  0.00634800  0.65159000  1
  C  93  1  0.54626500  0.97347100  0.67632700  1
  C  94  1  0.50279700  0.96604700  0.68450900  1
  C  95  1  0.47710200  0.93462200  0.70963400  1
  C  96  1  0.49589000  0.91134700  0.72685600  1
  C  97  1  0.54007800  0.91976100  0.71848900  1
  C  98  1  0.56532900  0.95044500  0.69301500  1
  C  99  1  0.60633800  0.02419000  0.63456000  1
  C  100  1  0.61652600  0.05723400  0.60983600  1
  C  101  1  0.58592100  0.07314400  0.60262300  1
  C  102  1  0.54406000  0.05485000  0.62006800  1
  C  103  1  0.44927300  0.97057200  0.64437200  1
  C  104  1  0.41813000  0.98523300  0.65162200  1
  C  105  1  0.43644800  0.01806400  0.67639100  1
  C  106  1  0.47992900  0.02549500  0.68453800  1
  C  107  1  0.41744700  0.04116700  0.69304900  1
  C  108  1  0.44274800  0.07189300  0.71849100  1
  C  109  1  0.48693200  0.08028300  0.72684600  1
  C  110  1  0.50565400  0.05692800  0.70964900  1
  C  111  1  0.43863400  0.93675500  0.62004800  1
  C  112  1  0.39677600  0.91850500  0.60260100  1
  C  113  1  0.36618000  0.93441400  0.60984300  1
  C  114  1  0.37637400  0.96742300  0.63459700  1
  C  127  1  0.49135600  0.99577700  0.66452400  1
  C  136  1  0.53784100  0.19035500  0.77329000  1
  C  137  1  0.51714700  0.17381500  0.80451600  1
  C  138  1  0.51757200  0.20372400  0.82889900  1
  C  139  1  0.53826100  0.25117400  0.82279900  1
  C  140  1  0.55948800  0.26785700  0.79179400  1
  C  141  1  0.55955500  0.23797600  0.76758700  1
  C  144  1  0.53552800  0.28079200  0.84661700  1
  C  145  1  0.54726200  0.28011400  0.88009600  1
  C  146  1  0.54230400  0.30785800  0.90377200  1
  C  147  1  0.52467200  0.33657300  0.89498800  1
  C  148  1  0.51318000  0.33735700  0.86142000  1
  C  149  1  0.51882100  0.31020300  0.83762400  1
  C  156  1  0.51730300  0.36287400  0.92155900  1
  C  159  1  0.53553400  0.15995800  0.74569600  1
  C  162  1  0.63939700  0.44931700  0.10666700  1
  C  163  1  0.64356900  0.46999000  0.13790400  1
  C  164  1  0.67307300  0.46955900  0.16226800  1
  C  165  1  0.69985200  0.44890100  0.15613100  1
  C  166  1  0.69529300  0.42769400  0.12511600  1
  C  167  1  0.66529300  0.42759800  0.10093800  1
  C  170  1  0.73224300  0.45165400  0.17991800  1
  C  171  1  0.71985300  0.43982500  0.21338800  1
  C  172  1  0.75258300  0.44476500  0.23703200  1
  C  173  1  0.79895100  0.46254800  0.22823500  1
  C  174  1  0.81119800  0.47413600  0.19467500  1
  C  175  1  0.77837000  0.46847200  0.17090300  1
  C  182  1  0.83265200  0.46991200  0.25477900  1
  C  185  1  0.61130900  0.45165900  0.07908400  1
  C  188  1  0.79692600  0.34782500  0.44006800  1
  C  189  1  0.81347800  0.34358800  0.47126600  1
  C  190  1  0.78356300  0.31414100  0.49566200  1
  C  191  1  0.73610900  0.28742400  0.48957100  1
  C  192  1  0.71941000  0.29206100  0.45860100  1
  C  193  1  0.74929100  0.32203100  0.43440300  1
  C  196  1  0.70649300  0.25504800  0.51337600  1
  C  197  1  0.70718800  0.26742400  0.54686600  1
  C  198  1  0.67940700  0.23470900  0.57052200  1
  C  199  1  0.65067100  0.18837200  0.56171000  1
  C  200  1  0.64988800  0.17613400  0.52813500  1
  C  201  1  0.67706300  0.20894600  0.50435600  1
  C  208  1  0.62436600  0.15468100  0.58826600  1
  C  211  1  0.82732100  0.37592400  0.41247300  1
  C  214  1  0.44492200  0.80128500  0.77332100  1
  C  215  1  0.46563700  0.81780800  0.80454400  1
  C  216  1  0.46516200  0.78787800  0.82893200  1
  C  217  1  0.44449400  0.74043600  0.82280300  1
  C  218  1  0.42324500  0.72376600  0.79180300  1
  C  219  1  0.42316200  0.75366200  0.76761500  1
  C  222  1  0.44721900  0.71079900  0.84660800  1
  C  223  1  0.43543400  0.71142200  0.88008100  1
  C  224  1  0.44037000  0.68365100  0.90374400  1
  C  225  1  0.45809000  0.65500900  0.89496000  1
  C  226  1  0.46965200  0.65429900  0.86140000  1
  C  227  1  0.46397100  0.68143000  0.83760600  1
  C  234  1  0.46544800  0.62869100  0.92152200  1
  C  237  1  0.44721700  0.83170000  0.74574300  1
  C  240  1  0.34338700  0.54226700  0.10673400  1
  C  241  1  0.33915300  0.52151300  0.13794600  1
  C  242  1  0.30970600  0.52200500  0.16233500  1
  C  243  1  0.28298700  0.54273500  0.15622000  1
  C  244  1  0.28761100  0.56402500  0.12522900  1
  C  245  1  0.31757100  0.56407800  0.10103700  1
  C  248  1  0.25061200  0.54000200  0.18001400  1
  C  249  1  0.26298500  0.55171300  0.21350200  1
  C  250  1  0.23025900  0.54675100  0.23715600  1
  C  251  1  0.18392000  0.52912800  0.22834100  1
  C  252  1  0.17168800  0.51766100  0.19476400  1
  C  253  1  0.20451100  0.52331400  0.17098900  1
  C  260  1  0.15022200  0.52174700  0.25489000  1
  C  263  1  0.37146800  0.53992700  0.07914600  1
  C  266  1  0.18592400  0.64384100  0.43996200  1
  C  267  1  0.16938100  0.64798100  0.47118900  1
  C  268  1  0.19928500  0.67747100  0.49557500  1
  C  269  1  0.24672800  0.70426200  0.48946700  1
  C  270  1  0.26341500  0.69972900  0.45846200  1
  C  271  1  0.23354500  0.66975000  0.43426200  1
  C  274  1  0.27633800  0.73663200  0.51327900  1
  C  275  1  0.27569300  0.72422800  0.54675700  1
  C  276  1  0.30345600  0.75694100  0.57042100  1
  C  277  1  0.33210100  0.80330100  0.56163600  1
  C  278  1  0.33284600  0.81556300  0.52806900  1
  C  279  1  0.30570300  0.78275500  0.50427900  1
  C  286  1  0.35840900  0.83698500  0.58819700  1
  C  289  1  0.15553200  0.61577500  0.41235600  1
  C  292  1  0.99133100  0.49579700  0.05917400  1
  C  293  1  0.47454500  0.45376700  0.70571500  1
  C  294  1  0.42873200  0.42260400  0.71292900  1
  C  295  1  0.41416800  0.44089300  0.73768200  1
  C  296  1  0.45020500  0.48436300  0.74587600  1
  C  297  1  0.44446800  0.51002900  0.77101900  1
  C  298  1  0.40239300  0.49123700  0.78822400  1
  C  299  1  0.36664000  0.44703900  0.77986100  1
  C  300  1  0.37207700  0.42181500  0.75436800  1
  C  301  1  0.40483700  0.38084100  0.69590700  1
  C  302  1  0.42769600  0.37068000  0.67116800  1
  C  303  1  0.47420400  0.40130100  0.66395200  1
  C  304  1  0.49776100  0.44316000  0.68140400  1
  C  305  1  0.50823200  0.53792700  0.70575400  1
  C  306  1  0.55403700  0.56907400  0.71299900  1
  C  307  1  0.56855900  0.55076000  0.73776300  1
  C  308  1  0.53253500  0.50725100  0.74588400  1
  C  309  1  0.61065300  0.56978600  0.75443900  1
  C  310  1  0.61607600  0.54450600  0.77989600  1
  C  311  1  0.58029600  0.50031100  0.78824100  1
  C  312  1  0.53823600  0.48155100  0.77101900  1
  C  313  1  0.48505800  0.54855000  0.68141700  1
  C  314  1  0.50866400  0.59040400  0.66396400  1
  C  315  1  0.55516500  0.62100000  0.67120300  1
  C  316  1  0.57797300  0.61083300  0.69597800  1
  C  329  1  0.49137600  0.49582700  0.72588300  1
  C  338  1  0.96613000  0.51268600  0.03903400  1
  C  339  1  0.98084700  0.55851000  0.04626400  1
  C  340  1  0.01366600  0.57300300  0.07103800  1
  C  341  1  0.02105700  0.53693000  0.07919800  1
  C  342  1  0.05247800  0.54261900  0.10431300  1
  C  343  1  0.07586600  0.58470100  0.12149900  1
  C  344  1  0.06750900  0.62051600  0.11313800  1
  C  345  1  0.03679400  0.61511000  0.08769400  1
  C  346  1  0.96309000  0.58248800  0.02921800  1
  C  347  1  0.93011600  0.55970600  0.00443600  1
  C  348  1  0.91415400  0.51318700  0.99721352  1
  C  349  1  0.93236100  0.48954900  0.01467300  1
  C  350  1  0.01657300  0.47896200  0.03901900  1
  C  351  1  0.00189800  0.43314200  0.04622200  1
  C  352  1  0.96905900  0.41859200  0.07098600  1
  C  353  1  0.96158200  0.45460900  0.07914100  1
  C  354  1  0.94599800  0.37648100  0.08764300  1
  C  355  1  0.91533700  0.37105000  0.11313400  1
  C  356  1  0.90691400  0.40681500  0.12150600  1
  C  357  1  0.93019100  0.44888600  0.10429400  1
  C  358  1  0.05040300  0.50217700  0.01471000  1
  C  359  1  0.06868600  0.47860800  0.99725552  1
  C  360  1  0.05278200  0.43209600  0.00446300  1
  C  361  1  0.01974900  0.40923800  0.02919300  1
  C  382  1  0.53343300  0.02101100  0.37237300  1
  C  383  1  0.56458400  0.00634800  0.37959400  1
  C  384  1  0.54626500  0.97347100  0.40433100  1
  C  385  1  0.50279700  0.96604700  0.41251300  1
  C  386  1  0.47710200  0.93462200  0.43763800  1
  C  387  1  0.49589000  0.91134700  0.45486000  1
  C  388  1  0.54007800  0.91976100  0.44649300  1
  C  389  1  0.56532900  0.95044500  0.42101900  1
  C  390  1  0.60633800  0.02419000  0.36256400  1
  C  391  1  0.61652600  0.05723400  0.33784000  1
  C  392  1  0.58592100  0.07314400  0.33062700  1
  C  393  1  0.54406000  0.05485000  0.34807200  1
  C  394  1  0.44927300  0.97057200  0.37237600  1
  C  395  1  0.41813000  0.98523300  0.37962600  1
  C  396  1  0.43644800  0.01806400  0.40439500  1
  C  397  1  0.47992900  0.02549500  0.41254200  1
  C  398  1  0.41744700  0.04116700  0.42105300  1
  C  399  1  0.44274800  0.07189300  0.44649500  1
  C  400  1  0.48693200  0.08028300  0.45485000  1
  C  401  1  0.50565400  0.05692800  0.43765300  1
  C  402  1  0.43863400  0.93675500  0.34805200  1
  C  403  1  0.39677600  0.91850500  0.33060500  1
  C  404  1  0.36618000  0.93441400  0.33784700  1
  C  405  1  0.37637400  0.96742300  0.36260100  1
  C  418  1  0.49135600  0.99577700  0.39252800  1
  C  427  1  0.53784100  0.19035500  0.50129400  1
  C  428  1  0.51714700  0.17381500  0.53252000  1
  C  429  1  0.51757200  0.20372400  0.55690300  1
  C  430  1  0.53826100  0.25117400  0.55080300  1
  C  431  1  0.55948800  0.26785700  0.51979800  1
  C  432  1  0.55955500  0.23797600  0.49559100  1
  C  435  1  0.53552800  0.28079200  0.57462100  1
  C  436  1  0.54726200  0.28011400  0.60810000  1
  C  437  1  0.54230400  0.30785800  0.63177600  1
  C  438  1  0.52467200  0.33657300  0.62299200  1
  C  439  1  0.51318000  0.33735700  0.58942400  1
  C  440  1  0.51882100  0.31020300  0.56562800  1
  C  447  1  0.51730300  0.36287400  0.64956300  1
  C  450  1  0.53553400  0.15995800  0.47370000  1
  C  453  1  0.63939700  0.44931700  0.83467100  1
  C  454  1  0.64356900  0.46999000  0.86590800  1
  C  455  1  0.67307300  0.46955900  0.89027200  1
  C  456  1  0.69985200  0.44890100  0.88413500  1
  C  457  1  0.69529300  0.42769400  0.85312000  1
  C  458  1  0.66529300  0.42759800  0.82894200  1
  C  461  1  0.73224300  0.45165400  0.90792150  1
  C  462  1  0.71985300  0.43982500  0.94139150  1
  C  463  1  0.75258300  0.44476500  0.96503550  1
  C  464  1  0.79895100  0.46254800  0.95623850  1
  C  465  1  0.81119800  0.47413600  0.92267850  1
  C  466  1  0.77837000  0.46847200  0.89890700  1
  C  473  1  0.83265200  0.46991200  0.98278250  1
  C  476  1  0.61130900  0.45165900  0.80708800  1
  C  479  1  0.79692600  0.34782500  0.16807200  1
  C  480  1  0.81347800  0.34358800  0.19927000  1
  C  481  1  0.78356300  0.31414100  0.22366600  1
  C  482  1  0.73610900  0.28742400  0.21757500  1
  C  483  1  0.71941000  0.29206100  0.18660500  1
  C  484  1  0.74929100  0.32203100  0.16240700  1
  C  487  1  0.70649300  0.25504800  0.24138000  1
  C  488  1  0.70718800  0.26742400  0.27487000  1
  C  489  1  0.67940700  0.23470900  0.29852600  1
  C  490  1  0.65067100  0.18837200  0.28971400  1
  C  491  1  0.64988800  0.17613400  0.25613900  1
  C  492  1  0.67706300  0.20894600  0.23236000  1
  C  499  1  0.62436600  0.15468100  0.31627000  1
  C  502  1  0.82732100  0.37592400  0.14047700  1
  C  505  1  0.44492200  0.80128500  0.50132500  1
  C  506  1  0.46563700  0.81780800  0.53254800  1
  C  507  1  0.46516200  0.78787800  0.55693600  1
  C  508  1  0.44449400  0.74043600  0.55080700  1
  C  509  1  0.42324500  0.72376600  0.51980700  1
  C  510  1  0.42316200  0.75366200  0.49561900  1
  C  513  1  0.44721900  0.71079900  0.57461200  1
  C  514  1  0.43543400  0.71142200  0.60808500  1
  C  515  1  0.44037000  0.68365100  0.63174800  1
  C  516  1  0.45809000  0.65500900  0.62296400  1
  C  517  1  0.46965200  0.65429900  0.58940400  1
  C  518  1  0.46397100  0.68143000  0.56561000  1
  C  525  1  0.46544800  0.62869100  0.64952600  1
  C  528  1  0.44721700  0.83170000  0.47374700  1
  C  531  1  0.34338700  0.54226700  0.83473800  1
  C  532  1  0.33915300  0.52151300  0.86595000  1
  C  533  1  0.30970600  0.52200500  0.89033900  1
  C  534  1  0.28298700  0.54273500  0.88422400  1
  C  535  1  0.28761100  0.56402500  0.85323300  1
  C  536  1  0.31757100  0.56407800  0.82904100  1
  C  539  1  0.25061200  0.54000200  0.90801750  1
  C  540  1  0.26298500  0.55171300  0.94150550  1
  C  541  1  0.23025900  0.54675100  0.96515950  1
  C  542  1  0.18392000  0.52912800  0.95634450  1
  C  543  1  0.17168800  0.51766100  0.92276750  1
  C  544  1  0.20451100  0.52331400  0.89899300  1
  C  551  1  0.15022200  0.52174700  0.98289350  1
  C  554  1  0.37146800  0.53992700  0.80715000  1
  C  557  1  0.18592400  0.64384100  0.16796600  1
  C  558  1  0.16938100  0.64798100  0.19919300  1
  C  559  1  0.19928500  0.67747100  0.22357900  1
  C  560  1  0.24672800  0.70426200  0.21747100  1
  C  561  1  0.26341500  0.69972900  0.18646600  1
  C  562  1  0.23354500  0.66975000  0.16226600  1
  C  565  1  0.27633800  0.73663200  0.24128300  1
  C  566  1  0.27569300  0.72422800  0.27476100  1
  C  567  1  0.30345600  0.75694100  0.29842500  1
  C  568  1  0.33210100  0.80330100  0.28964000  1
  C  569  1  0.33284600  0.81556300  0.25607300  1
  C  570  1  0.30570300  0.78275500  0.23228300  1
  C  577  1  0.35840900  0.83698500  0.31620100  1
  C  580  1  0.15553200  0.61577500  0.14036000  1
  C  583  1  0.99133100  0.49579700  0.78717700  1
  C  584  1  0.47454500  0.45376700  0.43371800  1
  C  585  1  0.42873200  0.42260400  0.44093200  1
  C  586  1  0.41416800  0.44089300  0.46568500  1
  C  587  1  0.45020500  0.48436300  0.47387900  1
  C  588  1  0.44446800  0.51002900  0.49902200  1
  C  589  1  0.40239300  0.49123700  0.51622700  1
  C  590  1  0.36664000  0.44703900  0.50786400  1
  C  591  1  0.37207700  0.42181500  0.48237100  1
  C  592  1  0.40483700  0.38084100  0.42391000  1
  C  593  1  0.42769600  0.37068000  0.39917100  1
  C  594  1  0.47420400  0.40130100  0.39195500  1
  C  595  1  0.49776100  0.44316000  0.40940700  1
  C  596  1  0.50823200  0.53792700  0.43375700  1
  C  597  1  0.55403700  0.56907400  0.44100200  1
  C  598  1  0.56855900  0.55076000  0.46576600  1
  C  599  1  0.53253500  0.50725100  0.47388700  1
  C  600  1  0.61065300  0.56978600  0.48244200  1
  C  601  1  0.61607600  0.54450600  0.50789900  1
  C  602  1  0.58029600  0.50031100  0.51624400  1
  C  603  1  0.53823600  0.48155100  0.49902200  1
  C  604  1  0.48505800  0.54855000  0.40942000  1
  C  605  1  0.50866400  0.59040400  0.39196700  1
  C  606  1  0.55516500  0.62100000  0.39920600  1
  C  607  1  0.57797300  0.61083300  0.42398100  1
  C  620  1  0.49137600  0.49582700  0.45388600  1
  C  629  1  0.96613000  0.51268600  0.76703700  1
  C  630  1  0.98084700  0.55851000  0.77426700  1
  C  631  1  0.01366600  0.57300300  0.79904100  1
  C  632  1  0.02105700  0.53693000  0.80720100  1
  C  633  1  0.05247800  0.54261900  0.83231600  1
  C  634  1  0.07586600  0.58470100  0.84950200  1
  C  635  1  0.06750900  0.62051600  0.84114100  1
  C  636  1  0.03679400  0.61511000  0.81569700  1
  C  637  1  0.96309000  0.58248800  0.75722100  1
  C  638  1  0.93011600  0.55970600  0.73243900  1
  C  639  1  0.91415400  0.51318700  0.72521700  1
  C  640  1  0.93236100  0.48954900  0.74267600  1
  C  641  1  0.01657300  0.47896200  0.76702200  1
  C  642  1  0.00189800  0.43314200  0.77422500  1
  C  643  1  0.96905900  0.41859200  0.79898900  1
  C  644  1  0.96158200  0.45460900  0.80714400  1
  C  645  1  0.94599800  0.37648100  0.81564600  1
  C  646  1  0.91533700  0.37105000  0.84113700  1
  C  647  1  0.90691400  0.40681500  0.84950900  1
  C  648  1  0.93019100  0.44888600  0.83229700  1
  C  649  1  0.05040300  0.50217700  0.74271300  1
  C  650  1  0.06868600  0.47860800  0.72525900  1
  C  651  1  0.05278200  0.43209600  0.73246600  1
  C  652  1  0.01974900  0.40923800  0.75719600  1
  C  673  1  0.53343300  0.02101100  0.10037600  1
  C  674  1  0.56458400  0.00634800  0.10759700  1
  C  675  1  0.54626500  0.97347100  0.13233400  1
  C  676  1  0.50279700  0.96604700  0.14051600  1
  C  677  1  0.47710200  0.93462200  0.16564100  1
  C  678  1  0.49589000  0.91134700  0.18286300  1
  C  679  1  0.54007800  0.91976100  0.17449600  1
  C  680  1  0.56532900  0.95044500  0.14902200  1
  C  681  1  0.60633800  0.02419000  0.09056700  1
  C  682  1  0.61652600  0.05723400  0.06584300  1
  C  683  1  0.58592100  0.07314400  0.05863000  1
  C  684  1  0.54406000  0.05485000  0.07607500  1
  C  685  1  0.44927300  0.97057200  0.10037900  1
  C  686  1  0.41813000  0.98523300  0.10762900  1
  C  687  1  0.43644800  0.01806400  0.13239800  1
  C  688  1  0.47992900  0.02549500  0.14054500  1
  C  689  1  0.41744700  0.04116700  0.14905600  1
  C  690  1  0.44274800  0.07189300  0.17449800  1
  C  691  1  0.48693200  0.08028300  0.18285300  1
  C  692  1  0.50565400  0.05692800  0.16565600  1
  C  693  1  0.43863400  0.93675500  0.07605500  1
  C  694  1  0.39677600  0.91850500  0.05860800  1
  C  695  1  0.36618000  0.93441400  0.06585000  1
  C  696  1  0.37637400  0.96742300  0.09060400  1
  C  709  1  0.49135600  0.99577700  0.12053100  1
  C  718  1  0.53784100  0.19035500  0.22929700  1
  C  719  1  0.51714700  0.17381500  0.26052300  1
  C  720  1  0.51757200  0.20372400  0.28490600  1
  C  721  1  0.53826100  0.25117400  0.27880600  1
  C  722  1  0.55948800  0.26785700  0.24780100  1
  C  723  1  0.55955500  0.23797600  0.22359400  1
  C  726  1  0.53552800  0.28079200  0.30262400  1
  C  727  1  0.54726200  0.28011400  0.33610300  1
  C  728  1  0.54230400  0.30785800  0.35977900  1
  C  729  1  0.52467200  0.33657300  0.35099500  1
  C  730  1  0.51318000  0.33735700  0.31742700  1
  C  731  1  0.51882100  0.31020300  0.29363100  1
  C  738  1  0.51730300  0.36287400  0.37756600  1
  C  741  1  0.53553400  0.15995800  0.20170300  1
  C  744  1  0.63939700  0.44931700  0.56267400  1
  C  745  1  0.64356900  0.46999000  0.59391100  1
  C  746  1  0.67307300  0.46955900  0.61827500  1
  C  747  1  0.69985200  0.44890100  0.61213800  1
  C  748  1  0.69529300  0.42769400  0.58112300  1
  C  749  1  0.66529300  0.42759800  0.55694500  1
  C  752  1  0.73224300  0.45165400  0.63592500  1
  C  753  1  0.71985300  0.43982500  0.66939500  1
  C  754  1  0.75258300  0.44476500  0.69303900  1
  C  755  1  0.79895100  0.46254800  0.68424200  1
  C  756  1  0.81119800  0.47413600  0.65068200  1
  C  757  1  0.77837000  0.46847200  0.62691000  1
  C  764  1  0.83265200  0.46991200  0.71078600  1
  C  767  1  0.61130900  0.45165900  0.53509100  1
  C  770  1  0.79692600  0.34782500  0.89607500  1
  C  771  1  0.81347800  0.34358800  0.92727300  1
  C  772  1  0.78356300  0.31414100  0.95166900  1
  C  773  1  0.73610900  0.28742400  0.94557800  1
  C  774  1  0.71941000  0.29206100  0.91460800  1
  C  775  1  0.74929100  0.32203100  0.89041000  1
  C  778  1  0.70649300  0.25504800  0.96938300  1
  C  779  1  0.70718800  0.26742400  0.00287300  1
  C  780  1  0.67940700  0.23470900  0.02652900  1
  C  781  1  0.65067100  0.18837200  0.01771700  1
  C  782  1  0.64988800  0.17613400  0.98414200  1
  C  783  1  0.67706300  0.20894600  0.96036300  1
  C  790  1  0.62436600  0.15468100  0.04427300  1
  C  793  1  0.82732100  0.37592400  0.86848000  1
  C  796  1  0.44492200  0.80128500  0.22932800  1
  C  797  1  0.46563700  0.81780800  0.26055100  1
  C  798  1  0.46516200  0.78787800  0.28493900  1
  C  799  1  0.44449400  0.74043600  0.27881000  1
  C  800  1  0.42324500  0.72376600  0.24781000  1
  C  801  1  0.42316200  0.75366200  0.22362200  1
  C  804  1  0.44721900  0.71079900  0.30261500  1
  C  805  1  0.43543400  0.71142200  0.33608800  1
  C  806  1  0.44037000  0.68365100  0.35975100  1
  C  807  1  0.45809000  0.65500900  0.35096700  1
  C  808  1  0.46965200  0.65429900  0.31740700  1
  C  809  1  0.46397100  0.68143000  0.29361300  1
  C  816  1  0.46544800  0.62869100  0.37752900  1
  C  819  1  0.44721700  0.83170000  0.20175000  1
  C  822  1  0.34338700  0.54226700  0.56274100  1
  C  823  1  0.33915300  0.52151300  0.59395300  1
  C  824  1  0.30970600  0.52200500  0.61834200  1
  C  825  1  0.28298700  0.54273500  0.61222700  1
  C  826  1  0.28761100  0.56402500  0.58123600  1
  C  827  1  0.31757100  0.56407800  0.55704400  1
  C  830  1  0.25061200  0.54000200  0.63602100  1
  C  831  1  0.26298500  0.55171300  0.66950900  1
  C  832  1  0.23025900  0.54675100  0.69316300  1
  C  833  1  0.18392000  0.52912800  0.68434800  1
  C  834  1  0.17168800  0.51766100  0.65077100  1
  C  835  1  0.20451100  0.52331400  0.62699600  1
  C  842  1  0.15022200  0.52174700  0.71089700  1
  C  845  1  0.37146800  0.53992700  0.53515300  1
  C  848  1  0.18592400  0.64384100  0.89596900  1
  C  849  1  0.16938100  0.64798100  0.92719600  1
  C  850  1  0.19928500  0.67747100  0.95158200  1
  C  851  1  0.24672800  0.70426200  0.94547400  1
  C  852  1  0.26341500  0.69972900  0.91446900  1
  C  853  1  0.23354500  0.66975000  0.89026900  1
  C  856  1  0.27633800  0.73663200  0.96928600  1
  C  857  1  0.27569300  0.72422800  0.00276400  1
  C  858  1  0.30345600  0.75694100  0.02642800  1
  C  859  1  0.33210100  0.80330100  0.01764300  1
  C  860  1  0.33284600  0.81556300  0.98407600  1
  C  861  1  0.30570300  0.78275500  0.96028600  1
  C  868  1  0.35840900  0.83698500  0.04420400  1
  C  871  1  0.15553200  0.61577500  0.86836300  1
  N  39  1  0.58762400  0.47763200  0.08690800  1
  N  41  1  0.49494100  0.38900800  0.91064500  1
  N  43  1  0.39505200  0.51384600  0.08693000  1
  N  45  1  0.48797900  0.60271000  0.91062800  1
  N  83  1  0.87699400  0.39948800  0.42022900  1
  N  85  1  0.88116300  0.49252600  0.24387700  1
  N  87  1  0.10586700  0.59201000  0.42016800  1
  N  89  1  0.10173300  0.49934600  0.24395600  1
  N  128  1  0.50962200  0.11029500  0.75351200  1
  N  130  1  0.59823700  0.10619400  0.57733200  1
  N  132  1  0.47324500  0.88136300  0.75354300  1
  N  134  1  0.38445000  0.88548600  0.57728800  1
  N  330  1  0.58762400  0.47763200  0.81491200  1
  N  332  1  0.49494100  0.38900800  0.63864900  1
  N  334  1  0.39505200  0.51384600  0.81493400  1
  N  336  1  0.48797900  0.60271000  0.63863200  1
  N  374  1  0.87699400  0.39948800  0.14823300  1
  N  376  1  0.88116300  0.49252600  0.97188050  1
  N  378  1  0.10586700  0.59201000  0.14817200  1
  N  380  1  0.10173300  0.49934600  0.97195950  1
  N  419  1  0.50962200  0.11029500  0.48151600  1
  N  421  1  0.59823700  0.10619400  0.30533600  1
  N  423  1  0.47324500  0.88136300  0.48154700  1
  N  425  1  0.38445000  0.88548600  0.30529200  1
  N  621  1  0.58762400  0.47763200  0.54291500  1
  N  623  1  0.49494100  0.38900800  0.36665200  1
  N  625  1  0.39505200  0.51384600  0.54293700  1
  N  627  1  0.48797900  0.60271000  0.36663500  1
  N  665  1  0.87699400  0.39948800  0.87623600  1
  N  667  1  0.88116300  0.49252600  0.69988400  1
  N  669  1  0.10586700  0.59201000  0.87617500  1
  N  671  1  0.10173300  0.49934600  0.69996300  1
  N  710  1  0.50962200  0.11029500  0.20951900  1
  N  712  1  0.59823700  0.10619400  0.03333900  1
  N  714  1  0.47324500  0.88136300  0.20955000  1
  N  716  1  0.38445000  0.88548600  0.03329500  1
