# generated using pymatgen
data_H13C23(N2O)2
_symmetry_space_group_name_H-M   'P 1'
_cell_length_a   40.70750000
_cell_length_b   46.28120000
_cell_length_c   46.28120000
_cell_angle_alpha   90.00000000
_cell_angle_beta   90.00000000
_cell_angle_gamma   90.00000000
_symmetry_Int_Tables_number   1
_chemical_formula_structural   H13C23(N2O)2
_chemical_formula_sum   'H416 C736 N128 O64'
_cell_volume   87193.40819006
_cell_formula_units_Z   32
loop_
 _symmetry_equiv_pos_site_id
 _symmetry_equiv_pos_as_xyz
  1  'x, y, z'
loop_
 _atom_site_type_symbol
 _atom_site_label
 _atom_site_symmetry_multiplicity
 _atom_site_fract_x
 _atom_site_fract_y
 _atom_site_fract_z
 _atom_site_occupancy
  H  1  1  0.10307500  0.12398400  0.49332100  1
  H  3  1  0.10411800  0.90358500  0.49333600  1
  H  6  1  0.99697500  0.91661800  0.48300800  1
  H  10  1  0.02815500  0.03721700  0.55002900  1
  H  12  1  0.01620700  0.10570200  0.53495200  1
  H  19  1  0.04609300  0.09938700  0.58338200  1
  H  21  1  0.05063900  0.12424200  0.63130200  1
  H  23  1  0.13121900  0.09740300  0.50597700  1
  H  24  1  0.14183800  0.13434300  0.50705000  1
  H  28  1  0.07865400  0.15809900  0.66201000  1
  H  36  1  0.19046100  0.20772800  0.60007700  1
  H  40  1  0.19079200  0.81947700  0.60002500  1
  H  44  1  0.02831000  0.98956200  0.54991000  1
  H  46  1  0.01696400  0.92121900  0.53468600  1
  H  53  1  0.04653600  0.92789500  0.58318500  1
  H  60  1  0.07876500  0.86896000  0.66177000  1
  H  61  1  0.05092500  0.90295800  0.63108800  1
  H  63  1  0.13203600  0.93028700  0.50612300  1
  H  64  1  0.14286900  0.89339500  0.50721700  1
  H  67  1  0.12506600  0.19302700  0.66946800  1
  H  70  1  0.11009700  0.24179800  0.82182600  1
  H  74  1  0.19547800  0.16467900  0.82118000  1
  H  76  1  0.11046100  0.78540500  0.82199700  1
  H  80  1  0.12502400  0.83385500  0.66921300  1
  H  82  1  0.19557300  0.86277600  0.82106100  1
  H  86  1  0.04240600  0.03738500  0.92481200  1
  H  88  1  0.02124700  0.10308900  0.93329700  1
  H  99  1  0.16560100  0.08562800  0.88030300  1
  H  100  1  0.12052300  0.07764000  0.91645600  1
  H  101  1  0.05477200  0.14630200  0.93301400  1
  H  104  1  0.19210500  0.11665900  0.84582300  1
  H  107  1  0.13883900  0.25434500  0.84796400  1
  H  110  1  0.10044600  0.24031100  0.85895800  1
  H  112  1  0.13943300  0.77289900  0.84796000  1
  H  114  1  0.10106500  0.78680300  0.85918300  1
  H  117  1  0.04241400  0.98973200  0.92473200  1
  H  119  1  0.02147500  0.92387200  0.93314300  1
  H  131  1  0.16568100  0.94167800  0.88037000  1
  H  132  1  0.12060800  0.94956300  0.91654500  1
  H  133  1  0.05517700  0.88070100  0.93326200  1
  H  136  1  0.19217200  0.91074100  0.84579900  1
  H  137  1  0.39151000  0.40155400  0.49333400  1
  H  138  1  0.39125200  0.62517800  0.49335800  1
  H  140  1  0.24752900  0.26225300  0.63457900  1
  H  142  1  0.27013400  0.31518200  0.64190200  1
  H  144  1  0.22477200  0.20966500  0.64192200  1
  H  148  1  0.30429800  0.31765200  0.60000400  1
  H  157  1  0.36350500  0.42820600  0.50608000  1
  H  158  1  0.35273800  0.39129900  0.50712400  1
  H  163  1  0.36333800  0.59844600  0.50608900  1
  H  164  1  0.35247100  0.63532700  0.50720600  1
  H  167  1  0.24707500  0.76358000  0.63457300  1
  H  169  1  0.22485300  0.81671600  0.64190000  1
  H  171  1  0.26969000  0.71076200  0.64221100  1
  H  177  1  0.30383300  0.70857300  0.60028000  1
  H  179  1  0.20844700  0.19898900  0.75867100  1
  H  180  1  0.20793200  0.19913900  0.70777100  1
  H  196  1  0.28675600  0.32619100  0.75828600  1
  H  197  1  0.28720800  0.32576500  0.70739100  1
  H  204  1  0.24768900  0.26276500  0.83162500  1
  H  205  1  0.26959200  0.31368700  0.82651900  1
  H  206  1  0.22576600  0.21183700  0.82684100  1
  H  207  1  0.38532000  0.28379300  0.82140700  1
  H  208  1  0.36991700  0.33203800  0.66929600  1
  H  210  1  0.29983200  0.36082900  0.82082400  1
  H  211  1  0.20853500  0.82808100  0.75815700  1
  H  212  1  0.20785400  0.82745300  0.70726100  1
  H  213  1  0.36956800  0.69424100  0.66950100  1
  H  229  1  0.28631300  0.70062600  0.75878500  1
  H  230  1  0.28660800  0.70057200  0.70788100  1
  H  237  1  0.24777000  0.76487900  0.83161200  1
  H  238  1  0.22608800  0.81569800  0.82648200  1
  H  239  1  0.26935600  0.71373300  0.82685800  1
  H  241  1  0.29943900  0.66646100  0.82109400  1
  H  242  1  0.38513100  0.74331500  0.82156300  1
  H  244  1  0.35657300  0.27117700  0.84750800  1
  H  246  1  0.39493700  0.28523700  0.85854700  1
  H  255  1  0.32946000  0.43975700  0.88022400  1
  H  256  1  0.30310100  0.40880500  0.84558300  1
  H  257  1  0.37440800  0.44766800  0.91653400  1
  H  265  1  0.32914600  0.58733100  0.88019100  1
  H  266  1  0.30268100  0.61842800  0.84574700  1
  H  267  1  0.37430700  0.57921400  0.91625800  1
  H  269  1  0.35650700  0.75595500  0.84775500  1
  H  272  1  0.39487300  0.74180700  0.85867500  1
  H  275  1  0.54395100  0.48828900  0.04197200  1
  H  277  1  0.52295500  0.42242200  0.03381000  1
  H  281  1  0.55654400  0.37919900  0.03364300  1
  H  288  1  0.54402300  0.53920800  0.04170700  1
  H  290  1  0.52298500  0.60473600  0.03316400  1
  H  294  1  0.55652200  0.64792800  0.03350600  1
  H  297  1  0.58047300  0.36720500  0.30474400  1
  H  299  1  0.58070900  0.65921800  0.30459500  1
  H  305  1  0.49846100  0.41492900  0.48342500  1
  H  306  1  0.53014100  0.48791100  0.41667500  1
  H  308  1  0.51843300  0.41948100  0.43181900  1
  H  312  1  0.54811800  0.42603500  0.38335700  1
  H  314  1  0.55257600  0.40115200  0.33543900  1
  H  322  1  0.49850300  0.61189400  0.48331500  1
  H  324  1  0.53017500  0.53883400  0.41665900  1
  H  326  1  0.51858500  0.60719000  0.43168100  1
  H  330  1  0.54829700  0.60052200  0.38329400  1
  H  332  1  0.55277300  0.62534200  0.33534100  1
  H  337  1  0.46670500  0.48799700  0.55005500  1
  H  339  1  0.47857500  0.41950500  0.53492100  1
  H  343  1  0.44877500  0.42587900  0.58334300  1
  H  346  1  0.41626700  0.36704500  0.66189300  1
  H  347  1  0.44425500  0.40096000  0.63122800  1
  H  354  1  0.46668800  0.53891900  0.55001400  1
  H  356  1  0.47837900  0.60734800  0.53486300  1
  H  360  1  0.44871800  0.60083100  0.58326300  1
  H  362  1  0.44417900  0.62565800  0.63120400  1
  H  366  1  0.41608500  0.65941500  0.66197100  1
  H  371  1  0.49814400  0.41494000  0.98551500  1
  H  372  1  0.45239800  0.48776200  0.92510100  1
  H  374  1  0.47366000  0.42227500  0.93356300  1
  H  378  1  0.44021600  0.37902200  0.93298800  1
  H  387  1  0.49837500  0.61202600  0.98450600  1
  H  388  1  0.45246700  0.53867700  0.92483800  1
  H  390  1  0.47368700  0.60440100  0.93282600  1
  H  394  1  0.44033200  0.64771000  0.93266400  1
  H  397  1  0.61192400  0.28370700  0.14468600  1
  H  398  1  0.60241200  0.28516500  0.10752700  1
  H  400  1  0.74938800  0.26294900  0.13492900  1
  H  402  1  0.77107200  0.21186600  0.13977800  1
  H  404  1  0.72766000  0.31383400  0.14003000  1
  H  408  1  0.64077900  0.27117100  0.11863800  1
  H  414  1  0.69723800  0.36090900  0.14549100  1
  H  420  1  0.66734100  0.43993700  0.08634000  1
  H  421  1  0.69387000  0.40891500  0.12081600  1
  H  422  1  0.62217500  0.44793400  0.05026200  1
  H  430  1  0.66749400  0.58716700  0.08588600  1
  H  431  1  0.69407800  0.61814100  0.12037000  1
  H  432  1  0.62231300  0.57923300  0.04981000  1
  H  433  1  0.61203200  0.74319800  0.14473200  1
  H  434  1  0.60237800  0.74180400  0.10759900  1
  H  436  1  0.74917900  0.76437300  0.13488700  1
  H  438  1  0.72776300  0.71337400  0.13969200  1
  H  440  1  0.77067400  0.81534200  0.13979800  1
  H  445  1  0.69747800  0.66611100  0.14512000  1
  H  447  1  0.64076600  0.75582100  0.11862400  1
  H  464  1  0.71014400  0.32629400  0.20825700  1
  H  465  1  0.70950800  0.32578900  0.25915500  1
  H  472  1  0.77162200  0.20951500  0.32463100  1
  H  473  1  0.72647500  0.31503100  0.32475400  1
  H  474  1  0.78813700  0.19893900  0.20788500  1
  H  475  1  0.78847100  0.19900800  0.25879000  1
  H  476  1  0.62674200  0.33212200  0.29730400  1
  H  493  1  0.71054700  0.70041400  0.20793500  1
  H  494  1  0.71003400  0.70063900  0.25883700  1
  H  500  1  0.62704700  0.69422600  0.29709700  1
  H  503  1  0.72681000  0.71123700  0.32454600  1
  H  504  1  0.77146500  0.81720000  0.32446400  1
  H  505  1  0.78776900  0.82813500  0.20812900  1
  H  506  1  0.78827200  0.82776400  0.25903200  1
  H  507  1  0.74888200  0.26213500  0.33197300  1
  H  509  1  0.69231200  0.31752800  0.36658700  1
  H  517  1  0.60542900  0.40157600  0.47330900  1
  H  518  1  0.63344600  0.42821300  0.46055600  1
  H  519  1  0.64417600  0.39129700  0.45948700  1
  H  524  1  0.60563000  0.62507700  0.47320900  1
  H  525  1  0.63362800  0.59840300  0.46050000  1
  H  526  1  0.64438700  0.63531000  0.45937200  1
  H  528  1  0.74916400  0.76408300  0.33193200  1
  H  532  1  0.69263200  0.70885200  0.36636900  1
  H  533  1  0.80453500  0.11665700  0.12079300  1
  H  537  1  0.95423900  0.03717700  0.04175500  1
  H  539  1  0.97537600  0.10295600  0.03348100  1
  H  550  1  0.83097000  0.08562500  0.08627200  1
  H  551  1  0.87607900  0.07758500  0.05015800  1
  H  552  1  0.94192000  0.14619000  0.03363400  1
  H  555  1  0.80126800  0.16465800  0.14549300  1
  H  561  1  0.85806100  0.25426700  0.11877900  1
  H  562  1  0.88678700  0.24165300  0.14489600  1
  H  563  1  0.89642700  0.24019300  0.10776100  1
  H  568  1  0.85757200  0.77286500  0.11879200  1
  H  569  1  0.88632800  0.78546600  0.14489300  1
  H  570  1  0.89596300  0.78687000  0.10775700  1
  H  572  1  0.80092600  0.86259000  0.14535400  1
  H  573  1  0.80430600  0.91055300  0.12059600  1
  H  577  1  0.95420300  0.98952700  0.04164600  1
  H  579  1  0.97529700  0.92393200  0.03324500  1
  H  592  1  0.83085200  0.94151400  0.08607500  1
  H  593  1  0.87598400  0.94943100  0.04995400  1
  H  594  1  0.94176000  0.88073300  0.03361700  1
  H  597  1  0.91791700  0.15821000  0.30463300  1
  H  601  1  0.87141700  0.19304000  0.29715500  1
  H  609  1  0.87135000  0.83403400  0.29708600  1
  H  611  1  0.91781600  0.86892500  0.30451500  1
  H  617  1  0.99987700  0.11031500  0.48335200  1
  H  618  1  0.96853200  0.03735900  0.41644600  1
  H  620  1  0.98034000  0.10580500  0.43171700  1
  H  627  1  0.95053000  0.09949800  0.38324200  1
  H  629  1  0.94598800  0.12439000  0.33534400  1
  H  631  1  0.89339800  0.12391000  0.47327200  1
  H  632  1  0.86532500  0.09729300  0.46057400  1
  H  633  1  0.85462400  0.13421600  0.45952400  1
  H  638  1  0.80589300  0.20755400  0.36649200  1
  H  642  1  0.80560100  0.81986000  0.36632800  1
  H  646  1  0.96857100  0.98970200  0.41638100  1
  H  648  1  0.98024000  0.92127500  0.43147800  1
  H  655  1  0.95046400  0.92766600  0.38309900  1
  H  660  1  0.94589700  0.90276200  0.33520100  1
  H  662  1  0.89301000  0.90347300  0.47304100  1
  H  663  1  0.86510600  0.93021100  0.46030800  1
  H  664  1  0.85421400  0.89333500  0.45922300  1
  H  669  1  0.99998300  0.11036800  0.98506300  1
  H  672  1  0.99994100  0.91654500  0.98469400  1
  H  673  1  0.47155700  0.12398400  0.49332100  1
  H  675  1  0.47260000  0.90358500  0.49333600  1
  H  678  1  0.36545700  0.91661800  0.48300800  1
  H  682  1  0.39663700  0.03721700  0.55002900  1
  H  684  1  0.38468900  0.10570200  0.53495200  1
  H  691  1  0.41457500  0.09938700  0.58338200  1
  H  693  1  0.41912100  0.12424200  0.63130200  1
  H  695  1  0.49970100  0.09740300  0.50597700  1
  H  696  1  0.51032000  0.13434300  0.50705000  1
  H  700  1  0.44713600  0.15809900  0.66201000  1
  H  708  1  0.55894300  0.20772800  0.60007700  1
  H  712  1  0.55927400  0.81947700  0.60002500  1
  H  716  1  0.39679200  0.98956200  0.54991000  1
  H  718  1  0.38544600  0.92121900  0.53468600  1
  H  725  1  0.41501800  0.92789500  0.58318500  1
  H  732  1  0.44724700  0.86896000  0.66177000  1
  H  733  1  0.41940700  0.90295800  0.63108800  1
  H  735  1  0.50051800  0.93028700  0.50612300  1
  H  736  1  0.51135100  0.89339500  0.50721700  1
  H  739  1  0.49354800  0.19302700  0.66946800  1
  H  742  1  0.47857900  0.24179800  0.82182600  1
  H  746  1  0.56396000  0.16467900  0.82118000  1
  H  748  1  0.47894300  0.78540500  0.82199700  1
  H  752  1  0.49350600  0.83385500  0.66921300  1
  H  754  1  0.56405500  0.86277600  0.82106100  1
  H  758  1  0.41088800  0.03738500  0.92481200  1
  H  760  1  0.38972900  0.10308900  0.93329700  1
  H  771  1  0.53408300  0.08562800  0.88030300  1
  H  772  1  0.48900500  0.07764000  0.91645600  1
  H  773  1  0.42325400  0.14630200  0.93301400  1
  H  776  1  0.56058700  0.11665900  0.84582300  1
  H  779  1  0.50732100  0.25434500  0.84796400  1
  H  782  1  0.46892800  0.24031100  0.85895800  1
  H  784  1  0.50791500  0.77289900  0.84796000  1
  H  786  1  0.46954700  0.78680300  0.85918300  1
  H  789  1  0.41089600  0.98973200  0.92473200  1
  H  791  1  0.38995700  0.92387200  0.93314300  1
  H  803  1  0.53416300  0.94167800  0.88037000  1
  H  804  1  0.48909000  0.94956300  0.91654500  1
  H  805  1  0.42365900  0.88070100  0.93326200  1
  H  808  1  0.56065400  0.91074100  0.84579900  1
  H  809  1  0.75999200  0.40155400  0.49333400  1
  H  810  1  0.75973400  0.62517800  0.49335800  1
  H  812  1  0.61601100  0.26225300  0.63457900  1
  H  814  1  0.63861600  0.31518200  0.64190200  1
  H  816  1  0.59325400  0.20966500  0.64192200  1
  H  820  1  0.67278000  0.31765200  0.60000400  1
  H  829  1  0.73198700  0.42820600  0.50608000  1
  H  830  1  0.72122000  0.39129900  0.50712400  1
  H  835  1  0.73182000  0.59844600  0.50608900  1
  H  836  1  0.72095300  0.63532700  0.50720600  1
  H  839  1  0.61555700  0.76358000  0.63457300  1
  H  841  1  0.59333500  0.81671600  0.64190000  1
  H  843  1  0.63817200  0.71076200  0.64221100  1
  H  849  1  0.67231500  0.70857300  0.60028000  1
  H  851  1  0.57692900  0.19898900  0.75867100  1
  H  852  1  0.57641400  0.19913900  0.70777100  1
  H  868  1  0.65523800  0.32619100  0.75828600  1
  H  869  1  0.65569000  0.32576500  0.70739100  1
  H  876  1  0.61617100  0.26276500  0.83162500  1
  H  877  1  0.63807400  0.31368700  0.82651900  1
  H  878  1  0.59424800  0.21183700  0.82684100  1
  H  879  1  0.75380200  0.28379300  0.82140700  1
  H  880  1  0.73839900  0.33203800  0.66929600  1
  H  882  1  0.66831400  0.36082900  0.82082400  1
  H  883  1  0.57701700  0.82808100  0.75815700  1
  H  884  1  0.57633600  0.82745300  0.70726100  1
  H  885  1  0.73805000  0.69424100  0.66950100  1
  H  901  1  0.65479500  0.70062600  0.75878500  1
  H  902  1  0.65509000  0.70057200  0.70788100  1
  H  909  1  0.61625200  0.76487900  0.83161200  1
  H  910  1  0.59457000  0.81569800  0.82648200  1
  H  911  1  0.63783800  0.71373300  0.82685800  1
  H  913  1  0.66792100  0.66646100  0.82109400  1
  H  914  1  0.75361300  0.74331500  0.82156300  1
  H  916  1  0.72505500  0.27117700  0.84750800  1
  H  918  1  0.76341900  0.28523700  0.85854700  1
  H  927  1  0.69794200  0.43975700  0.88022400  1
  H  928  1  0.67158300  0.40880500  0.84558300  1
  H  929  1  0.74289000  0.44766800  0.91653400  1
  H  937  1  0.69762800  0.58733100  0.88019100  1
  H  938  1  0.67116300  0.61842800  0.84574700  1
  H  939  1  0.74278900  0.57921400  0.91625800  1
  H  941  1  0.72498900  0.75595500  0.84775500  1
  H  944  1  0.76335500  0.74180700  0.85867500  1
  H  947  1  0.91243300  0.48828900  0.04197200  1
  H  949  1  0.89143700  0.42242200  0.03381000  1
  H  953  1  0.92502600  0.37919900  0.03364300  1
  H  960  1  0.91250500  0.53920800  0.04170700  1
  H  962  1  0.89146700  0.60473600  0.03316400  1
  H  966  1  0.92500400  0.64792800  0.03350600  1
  H  969  1  0.94895500  0.36720500  0.30474400  1
  H  971  1  0.94919100  0.65921800  0.30459500  1
  H  977  1  0.86694300  0.41492900  0.48342500  1
  H  978  1  0.89862300  0.48791100  0.41667500  1
  H  980  1  0.88691500  0.41948100  0.43181900  1
  H  984  1  0.91660000  0.42603500  0.38335700  1
  H  986  1  0.92105800  0.40115200  0.33543900  1
  H  994  1  0.86698500  0.61189400  0.48331500  1
  H  996  1  0.89865700  0.53883400  0.41665900  1
  H  998  1  0.88706700  0.60719000  0.43168100  1
  H  1002  1  0.91677900  0.60052200  0.38329400  1
  H  1004  1  0.92125500  0.62534200  0.33534100  1
  H  1009  1  0.83518700  0.48799700  0.55005500  1
  H  1011  1  0.84705700  0.41950500  0.53492100  1
  H  1015  1  0.81725700  0.42587900  0.58334300  1
  H  1018  1  0.78474900  0.36704500  0.66189300  1
  H  1019  1  0.81273700  0.40096000  0.63122800  1
  H  1026  1  0.83517000  0.53891900  0.55001400  1
  H  1028  1  0.84686100  0.60734800  0.53486300  1
  H  1032  1  0.81720000  0.60083100  0.58326300  1
  H  1034  1  0.81266100  0.62565800  0.63120400  1
  H  1038  1  0.78456700  0.65941500  0.66197100  1
  H  1043  1  0.86662600  0.41494000  0.98551500  1
  H  1044  1  0.82088000  0.48776200  0.92510100  1
  H  1046  1  0.84214200  0.42227500  0.93356300  1
  H  1050  1  0.80869800  0.37902200  0.93298800  1
  H  1059  1  0.86685700  0.61202600  0.98450600  1
  H  1060  1  0.82094900  0.53867700  0.92483800  1
  H  1062  1  0.84216900  0.60440100  0.93282600  1
  H  1066  1  0.80881400  0.64771000  0.93266400  1
  H  1069  1  0.98040600  0.28370700  0.14468600  1
  H  1070  1  0.97089400  0.28516500  0.10752700  1
  H  1072  1  0.11787000  0.26294900  0.13492900  1
  H  1074  1  0.13955400  0.21186600  0.13977800  1
  H  1076  1  0.09614250  0.31383400  0.14003000  1
  H  1080  1  0.00926147  0.27117100  0.11863800  1
  H  1086  1  0.06572050  0.36090900  0.14549100  1
  H  1092  1  0.03582350  0.43993700  0.08634000  1
  H  1093  1  0.06235250  0.40891500  0.12081600  1
  H  1094  1  0.99065700  0.44793400  0.05026200  1
  H  1102  1  0.03597650  0.58716700  0.08588600  1
  H  1103  1  0.06256050  0.61814100  0.12037000  1
  H  1104  1  0.99079500  0.57923300  0.04981000  1
  H  1105  1  0.98051400  0.74319800  0.14473200  1
  H  1106  1  0.97086000  0.74180400  0.10759900  1
  H  1108  1  0.11766100  0.76437300  0.13488700  1
  H  1110  1  0.09624550  0.71337400  0.13969200  1
  H  1112  1  0.13915600  0.81534200  0.13979800  1
  H  1117  1  0.06596050  0.66611100  0.14512000  1
  H  1119  1  0.00924847  0.75582100  0.11862400  1
  H  1136  1  0.07862650  0.32629400  0.20825700  1
  H  1137  1  0.07799050  0.32578900  0.25915500  1
  H  1144  1  0.14010400  0.20951500  0.32463100  1
  H  1145  1  0.09495750  0.31503100  0.32475400  1
  H  1146  1  0.15661900  0.19893900  0.20788500  1
  H  1147  1  0.15695300  0.19900800  0.25879000  1
  H  1148  1  0.99522400  0.33212200  0.29730400  1
  H  1165  1  0.07902950  0.70041400  0.20793500  1
  H  1166  1  0.07851650  0.70063900  0.25883700  1
  H  1172  1  0.99552900  0.69422600  0.29709700  1
  H  1175  1  0.09529250  0.71123700  0.32454600  1
  H  1176  1  0.13994700  0.81720000  0.32446400  1
  H  1177  1  0.15625100  0.82813500  0.20812900  1
  H  1178  1  0.15675400  0.82776400  0.25903200  1
  H  1179  1  0.11736400  0.26213500  0.33197300  1
  H  1181  1  0.06079450  0.31752800  0.36658700  1
  H  1189  1  0.97391100  0.40157600  0.47330900  1
  H  1190  1  0.00192847  0.42821300  0.46055600  1
  H  1191  1  0.01265850  0.39129700  0.45948700  1
  H  1196  1  0.97411200  0.62507700  0.47320900  1
  H  1197  1  0.00211047  0.59840300  0.46050000  1
  H  1198  1  0.01286950  0.63531000  0.45937200  1
  H  1200  1  0.11764600  0.76408300  0.33193200  1
  H  1204  1  0.06111450  0.70885200  0.36636900  1
  H  1205  1  0.17301700  0.11665700  0.12079300  1
  H  1209  1  0.32272100  0.03717700  0.04175500  1
  H  1211  1  0.34385800  0.10295600  0.03348100  1
  H  1222  1  0.19945200  0.08562500  0.08627200  1
  H  1223  1  0.24456100  0.07758500  0.05015800  1
  H  1224  1  0.31040200  0.14619000  0.03363400  1
  H  1227  1  0.16975000  0.16465800  0.14549300  1
  H  1233  1  0.22654300  0.25426700  0.11877900  1
  H  1234  1  0.25526900  0.24165300  0.14489600  1
  H  1235  1  0.26490900  0.24019300  0.10776100  1
  H  1240  1  0.22605400  0.77286500  0.11879200  1
  H  1241  1  0.25481000  0.78546600  0.14489300  1
  H  1242  1  0.26444500  0.78687000  0.10775700  1
  H  1244  1  0.16940800  0.86259000  0.14535400  1
  H  1245  1  0.17278800  0.91055300  0.12059600  1
  H  1249  1  0.32268500  0.98952700  0.04164600  1
  H  1251  1  0.34377900  0.92393200  0.03324500  1
  H  1264  1  0.19933400  0.94151400  0.08607500  1
  H  1265  1  0.24446600  0.94943100  0.04995400  1
  H  1266  1  0.31024200  0.88073300  0.03361700  1
  H  1269  1  0.28639900  0.15821000  0.30463300  1
  H  1273  1  0.23989900  0.19304000  0.29715500  1
  H  1281  1  0.23983200  0.83403400  0.29708600  1
  H  1283  1  0.28629800  0.86892500  0.30451500  1
  H  1289  1  0.36835900  0.11031500  0.48335200  1
  H  1290  1  0.33701400  0.03735900  0.41644600  1
  H  1292  1  0.34882200  0.10580500  0.43171700  1
  H  1299  1  0.31901200  0.09949800  0.38324200  1
  H  1301  1  0.31447000  0.12439000  0.33534400  1
  H  1303  1  0.26188000  0.12391000  0.47327200  1
  H  1304  1  0.23380700  0.09729300  0.46057400  1
  H  1305  1  0.22310600  0.13421600  0.45952400  1
  H  1310  1  0.17437500  0.20755400  0.36649200  1
  H  1314  1  0.17408300  0.81986000  0.36632800  1
  H  1318  1  0.33705300  0.98970200  0.41638100  1
  H  1320  1  0.34872200  0.92127500  0.43147800  1
  H  1327  1  0.31894600  0.92766600  0.38309900  1
  H  1332  1  0.31437900  0.90276200  0.33520100  1
  H  1334  1  0.26149200  0.90347300  0.47304100  1
  H  1335  1  0.23358800  0.93021100  0.46030800  1
  H  1336  1  0.22269600  0.89333500  0.45922300  1
  H  1341  1  0.36846500  0.11036800  0.98506300  1
  H  1344  1  0.36842300  0.91654500  0.98469400  1
  C  2  1  0.99674000  0.02722100  0.48321600  1
  C  4  1  0.99680500  0.99971000  0.48315700  1
  C  5  1  0.99692800  0.93876800  0.48304900  1
  C  7  1  0.01080800  0.07318900  0.50665300  1
  C  8  1  0.00939700  0.04258200  0.50739800  1
  C  9  1  0.02018800  0.02688300  0.53178400  1
  C  13  1  0.07828700  0.10583900  0.54787900  1
  C  14  1  0.10690900  0.12096600  0.53889100  1
  C  16  1  0.11027700  0.14462800  0.58488800  1
  C  17  1  0.08222900  0.12972200  0.59517700  1
  C  18  1  0.06644500  0.11033900  0.57628800  1
  C  20  1  0.07087400  0.13484000  0.62354500  1
  C  22  1  0.12158300  0.11907800  0.50966100  1
  C  25  1  0.06068700  0.08724500  0.52925400  1
  C  27  1  0.08722800  0.15469600  0.64149600  1
  C  29  1  0.12660100  0.16453000  0.60277800  1
  C  30  1  0.17061200  0.19772800  0.60918300  1
  C  31  1  0.16094900  0.20343200  0.63793100  1
  C  32  1  0.13250000  0.18953300  0.64860500  1
  C  34  1  0.11512400  0.16966700  0.63128400  1
  C  35  1  0.17948800  0.22203600  0.65576700  1
  C  37  1  0.16107500  0.82357800  0.63777900  1
  C  38  1  0.17933900  0.80467200  0.65552300  1
  C  39  1  0.17095400  0.82949200  0.60913100  1
  C  41  1  0.02029500  0.99994200  0.53171100  1
  C  42  1  0.01118700  0.95370700  0.50636300  1
  C  43  1  0.00959100  0.98430200  0.50725800  1
  C  47  1  0.07895400  0.92160100  0.54781400  1
  C  48  1  0.10769400  0.90659300  0.53892300  1
  C  50  1  0.11089200  0.88284900  0.58488500  1
  C  51  1  0.08275000  0.89767100  0.59509500  1
  C  52  1  0.06699400  0.91704400  0.57617300  1
  C  54  1  0.12710800  0.86286200  0.60275700  1
  C  55  1  0.13263100  0.83751100  0.64842700  1
  C  57  1  0.11543700  0.85755800  0.63117000  1
  C  58  1  0.08749000  0.87249300  0.64132700  1
  C  59  1  0.07124000  0.89243100  0.62339400  1
  C  62  1  0.12251100  0.90856500  0.50975300  1
  C  65  1  0.06127500  0.94004300  0.52910000  1
  C  69  1  0.16347500  0.20010600  0.82871000  1
  C  71  1  0.18076300  0.21905700  0.81009100  1
  C  73  1  0.17544900  0.17164300  0.83266000  1
  C  75  1  0.16373400  0.82724700  0.82866700  1
  C  77  1  0.18098000  0.80837400  0.80994400  1
  C  81  1  0.17564000  0.85573200  0.83262300  1
  C  83  1  0.01506200  0.07330700  0.96406300  1
  C  84  1  0.01434500  0.04267500  0.96328300  1
  C  85  1  0.03045300  0.02701500  0.94125700  1
  C  89  1  0.13282000  0.16259000  0.86801300  1
  C  90  1  0.16041800  0.15254900  0.85231400  1
  C  91  1  0.11734400  0.14447600  0.88827600  1
  C  92  1  0.07450300  0.13749900  0.92256500  1
  C  93  1  0.08467600  0.10881500  0.92790200  1
  C  94  1  0.11277400  0.09846000  0.91324800  1
  C  96  1  0.12928000  0.11603400  0.89301100  1
  C  97  1  0.15671700  0.10609200  0.87722700  1
  C  98  1  0.17217200  0.12422900  0.85698500  1
  C  102  1  0.06662800  0.09063700  0.94657400  1
  C  105  1  0.03045700  0.99678300  0.94120900  1
  C  106  1  0.12031800  0.23795800  0.84326700  1
  C  108  1  0.13522600  0.20879200  0.84456300  1
  C  111  1  0.12081800  0.78924100  0.84338800  1
  C  113  1  0.13562500  0.81844900  0.84465000  1
  C  115  1  0.01505500  0.95368500  0.96385400  1
  C  116  1  0.01433400  0.98431800  0.96317500  1
  C  121  1  0.13318400  0.86460800  0.86818000  1
  C  122  1  0.16066000  0.87474800  0.85238100  1
  C  123  1  0.11771500  0.88266500  0.88849300  1
  C  124  1  0.07488700  0.88953600  0.92281100  1
  C  125  1  0.08492600  0.91826900  0.92807000  1
  C  126  1  0.11298900  0.92869200  0.91341600  1
  C  128  1  0.12953800  0.91115000  0.89318100  1
  C  129  1  0.15688500  0.92118000  0.87733000  1
  C  130  1  0.17233000  0.90309900  0.85703500  1
  C  134  1  0.06672900  0.93645800  0.94660900  1
  C  139  1  0.24756400  0.26230100  0.65674000  1
  C  145  1  0.33392600  0.32177200  0.63780500  1
  C  146  1  0.31555100  0.30296300  0.65556400  1
  C  147  1  0.32414700  0.32763800  0.60912000  1
  C  149  1  0.38780100  0.40451800  0.53891400  1
  C  151  1  0.38443500  0.38081600  0.58489200  1
  C  152  1  0.36811900  0.36088700  0.60276100  1
  C  153  1  0.36237300  0.33567000  0.64848600  1
  C  155  1  0.37968400  0.35562600  0.63121700  1
  C  156  1  0.37306100  0.40649600  0.50971700  1
  C  159  1  0.38761400  0.62212700  0.53893600  1
  C  161  1  0.38423400  0.64573100  0.58496100  1
  C  162  1  0.37284000  0.62017000  0.50975100  1
  C  165  1  0.36785900  0.66556400  0.60289100  1
  C  166  1  0.24709000  0.76369000  0.65673300  1
  C  172  1  0.32373400  0.69862900  0.60936200  1
  C  173  1  0.33350100  0.70444200  0.63806000  1
  C  174  1  0.36202900  0.69063000  0.64868700  1
  C  176  1  0.37942400  0.67078900  0.63135100  1
  C  178  1  0.31505000  0.72314500  0.65586500  1
  C  181  1  0.24761300  0.26246300  0.71775400  1
  C  182  1  0.23202400  0.23961600  0.70241000  1
  C  183  1  0.23093700  0.24037800  0.67180000  1
  C  184  1  0.26421200  0.28430300  0.67166100  1
  C  185  1  0.26317500  0.28523000  0.70227000  1
  C  186  1  0.21822100  0.21645700  0.71811200  1
  C  187  1  0.27696400  0.30848800  0.71783400  1
  C  188  1  0.24762500  0.26254900  0.74855200  1
  C  189  1  0.23220700  0.23966100  0.76400600  1
  C  190  1  0.23121100  0.24046900  0.79464000  1
  C  191  1  0.24766400  0.26271400  0.80946900  1
  C  192  1  0.26409100  0.28488200  0.79450200  1
  C  193  1  0.26305500  0.28552600  0.76386500  1
  C  194  1  0.21851100  0.21639900  0.74833200  1
  C  195  1  0.27670800  0.30871300  0.74805100  1
  C  201  1  0.33188200  0.32542600  0.82831000  1
  C  202  1  0.31459100  0.30646600  0.80970700  1
  C  209  1  0.31987000  0.35387200  0.83229300  1
  C  214  1  0.24725700  0.76407500  0.71774700  1
  C  215  1  0.26268600  0.74111500  0.70244500  1
  C  216  1  0.26365900  0.74176100  0.67183000  1
  C  217  1  0.23059100  0.78580100  0.67162300  1
  C  218  1  0.23172900  0.78683400  0.70222300  1
  C  219  1  0.27644800  0.71797000  0.71819000  1
  C  220  1  0.21809000  0.81019100  0.71773900  1
  C  221  1  0.24738900  0.76428900  0.74854400  1
  C  222  1  0.26277200  0.74140900  0.76403400  1
  C  223  1  0.26391000  0.74234000  0.79466000  1
  C  224  1  0.24766400  0.76471900  0.80945800  1
  C  225  1  0.23129000  0.78689600  0.79445600  1
  C  226  1  0.23215400  0.78739100  0.76381300  1
  C  227  1  0.27629100  0.71803200  0.74841000  1
  C  228  1  0.21848900  0.81054100  0.74795600  1
  C  233  1  0.33161500  0.70178200  0.82855700  1
  C  234  1  0.31436200  0.72078100  0.80997300  1
  C  240  1  0.31952800  0.67336200  0.83253200  1
  C  243  1  0.37507600  0.28759200  0.84284500  1
  C  245  1  0.36012500  0.31674000  0.84417000  1
  C  248  1  0.36242200  0.36289000  0.86772800  1
  C  249  1  0.33484000  0.37294000  0.85201100  1
  C  250  1  0.37781000  0.38095600  0.88808200  1
  C  251  1  0.38220700  0.42687300  0.91325400  1
  C  252  1  0.36580500  0.40936300  0.89289800  1
  C  253  1  0.33839700  0.41932100  0.87708600  1
  C  254  1  0.32302400  0.40122800  0.85675600  1
  C  258  1  0.36219400  0.66419000  0.86781700  1
  C  259  1  0.33452100  0.65422700  0.85216900  1
  C  260  1  0.37764000  0.64603800  0.88805800  1
  C  261  1  0.38210200  0.60002100  0.91303800  1
  C  262  1  0.36561300  0.61763100  0.89282300  1
  C  263  1  0.33810000  0.60776700  0.87709300  1
  C  264  1  0.32266500  0.62594500  0.85687500  1
  C  268  1  0.37495100  0.73951000  0.84302300  1
  C  270  1  0.35993100  0.71039000  0.84435400  1
  C  273  1  0.51652600  0.45213400  0.00298800  1
  C  274  1  0.51583100  0.48276800  0.00356800  1
  C  278  1  0.57629400  0.38800000  0.04406700  1
  C  279  1  0.58638800  0.41671800  0.03880200  1
  C  282  1  0.56820000  0.43493500  0.02028300  1
  C  284  1  0.51670600  0.57501800  0.00234000  1
  C  285  1  0.51593400  0.54439200  0.00323800  1
  C  286  1  0.53204000  0.52879400  0.02530700  1
  C  287  1  0.53199500  0.49856100  0.02546700  1
  C  291  1  0.57627700  0.63910400  0.04390100  1
  C  292  1  0.58643200  0.61042700  0.03849400  1
  C  295  1  0.56834000  0.59228800  0.01981300  1
  C  298  1  0.58913000  0.37067100  0.32522100  1
  C  300  1  0.58936100  0.65577600  0.32507800  1
  C  301  1  0.49843100  0.49802100  0.48336300  1
  C  302  1  0.49844100  0.43707800  0.48340400  1
  C  303  1  0.51276300  0.45201900  0.46012200  1
  C  304  1  0.51125200  0.48262100  0.45926900  1
  C  309  1  0.58041900  0.41964100  0.41879400  1
  C  310  1  0.58428300  0.39574800  0.37149600  1
  C  311  1  0.56852200  0.41512800  0.39040700  1
  C  313  1  0.57284500  0.39057800  0.34316500  1
  C  315  1  0.56277100  0.43814800  0.43747400  1
  C  317  1  0.52208600  0.49827800  0.43487000  1
  C  318  1  0.49843600  0.52880000  0.48334300  1
  C  319  1  0.49847300  0.58974500  0.48331900  1
  C  320  1  0.51283200  0.57476900  0.46007900  1
  C  321  1  0.51128400  0.54416900  0.45924500  1
  C  323  1  0.52211300  0.52848700  0.43486300  1
  C  327  1  0.58061300  0.60694200  0.41871400  1
  C  328  1  0.58448700  0.63076800  0.37138800  1
  C  329  1  0.56871300  0.61142500  0.39032500  1
  C  331  1  0.57305200  0.63591000  0.34305100  1
  C  333  1  0.56293600  0.58849200  0.43742200  1
  C  335  1  0.48562100  0.48265200  0.50747800  1
  C  336  1  0.48412200  0.45204700  0.50667200  1
  C  340  1  0.41649600  0.41955700  0.54787500  1
  C  341  1  0.41255300  0.39563400  0.59515500  1
  C  342  1  0.42836600  0.41500000  0.57626600  1
  C  344  1  0.40762800  0.37053900  0.64141600  1
  C  345  1  0.42396600  0.39042600  0.62348900  1
  C  348  1  0.43416100  0.43808700  0.52923000  1
  C  350  1  0.47477500  0.49833800  0.53185100  1
  C  351  1  0.48560300  0.54420200  0.50742900  1
  C  352  1  0.48409300  0.57480400  0.50657300  1
  C  353  1  0.47475800  0.52854900  0.53182500  1
  C  357  1  0.41636600  0.60714300  0.54784400  1
  C  358  1  0.41241800  0.63096900  0.59517000  1
  C  359  1  0.42826500  0.61167600  0.57623000  1
  C  361  1  0.42384300  0.63615000  0.62350600  1
  C  363  1  0.43405300  0.58867500  0.52915400  1
  C  365  1  0.40744300  0.65594700  0.64149200  1
  C  367  1  0.49815100  0.49807700  0.98513900  1
  C  368  1  0.48045200  0.48257400  0.96359000  1
  C  369  1  0.47972700  0.45194400  0.96446100  1
  C  370  1  0.49812000  0.43710200  0.98543000  1
  C  375  1  0.42051200  0.38784600  0.92251700  1
  C  376  1  0.41026600  0.41649300  0.92795100  1
  C  379  1  0.42821100  0.43460600  0.94676500  1
  C  381  1  0.46435400  0.49817400  0.94151600  1
  C  382  1  0.49820800  0.52888900  0.98497200  1
  C  383  1  0.48054800  0.54419900  0.96326400  1
  C  384  1  0.47990400  0.57483800  0.96381500  1
  C  385  1  0.49833300  0.58986400  0.98462900  1
  C  386  1  0.46439600  0.52840700  0.94135800  1
  C  391  1  0.42054400  0.63895700  0.92225600  1
  C  392  1  0.41028800  0.61030000  0.92761600  1
  C  395  1  0.42833100  0.59209100  0.94625700  1
  C  399  1  0.74931200  0.26285000  0.15708400  1
  C  405  1  0.66529300  0.32545000  0.13792000  1
  C  406  1  0.63710400  0.31672500  0.12200700  1
  C  407  1  0.62222200  0.28754700  0.12327400  1
  C  409  1  0.68253500  0.30652800  0.15659900  1
  C  411  1  0.63469900  0.36291400  0.09853500  1
  C  412  1  0.66225400  0.37298700  0.11427500  1
  C  413  1  0.67725100  0.35391700  0.13397200  1
  C  415  1  0.61920800  0.38102300  0.07828000  1
  C  416  1  0.61451600  0.42707800  0.05340500  1
  C  417  1  0.63108500  0.40949000  0.07358800  1
  C  418  1  0.65850300  0.41945300  0.08938400  1
  C  419  1  0.67397400  0.40132100  0.10961900  1
  C  423  1  0.63474300  0.66410600  0.09836200  1
  C  424  1  0.66237700  0.65404100  0.11399900  1
  C  425  1  0.61921800  0.64602500  0.07810300  1
  C  426  1  0.61457200  0.60004900  0.05307200  1
  C  427  1  0.63113700  0.61759000  0.07330100  1
  C  428  1  0.65861800  0.60762700  0.08901100  1
  C  429  1  0.67412600  0.62573100  0.10925000  1
  C  435  1  0.74917200  0.76434500  0.15704100  1
  C  441  1  0.66544200  0.70154200  0.13771700  1
  C  442  1  0.63717300  0.71025800  0.12190900  1
  C  444  1  0.67743300  0.67309600  0.13367700  1
  C  446  1  0.62225100  0.73941700  0.12328200  1
  C  448  1  0.68269000  0.72044400  0.15641500  1
  C  449  1  0.74899200  0.26242800  0.24879900  1
  C  450  1  0.73345000  0.28520900  0.26427800  1
  C  451  1  0.73234200  0.28425600  0.29488200  1
  C  452  1  0.74887700  0.26219300  0.30981300  1
  C  453  1  0.76545600  0.24023800  0.29475900  1
  C  454  1  0.76446800  0.23952500  0.26414600  1
  C  455  1  0.71976400  0.30851400  0.24871200  1
  C  456  1  0.77826400  0.21636400  0.24844600  1
  C  457  1  0.74910000  0.26256900  0.21800000  1
  C  458  1  0.73380800  0.28561100  0.20268300  1
  C  459  1  0.73291900  0.28504200  0.17204200  1
  C  460  1  0.76561300  0.24052700  0.17192600  1
  C  461  1  0.76451300  0.23967200  0.20255400  1
  C  462  1  0.72012500  0.30878600  0.21849500  1
  C  463  1  0.77808500  0.21635400  0.21822700  1
  C  468  1  0.66270100  0.32174800  0.32878400  1
  C  469  1  0.68105100  0.30295000  0.31099500  1
  C  477  1  0.63429100  0.33571700  0.31811600  1
  C  478  1  0.74915900  0.76421500  0.24875800  1
  C  479  1  0.76454200  0.78709900  0.26420700  1
  C  480  1  0.76561100  0.78621100  0.29481500  1
  C  481  1  0.74916200  0.76412000  0.30977400  1
  C  482  1  0.73270000  0.74208100  0.29474400  1
  C  483  1  0.73377400  0.74128400  0.26413500  1
  C  484  1  0.77813900  0.81042200  0.24861100  1
  C  485  1  0.72017200  0.71800900  0.24847000  1
  C  486  1  0.74916200  0.76425800  0.21795900  1
  C  487  1  0.76435800  0.78733000  0.20261300  1
  C  488  1  0.76536000  0.78667100  0.17197700  1
  C  489  1  0.73297500  0.74197500  0.17190700  1
  C  490  1  0.73396800  0.74123000  0.20254200  1
  C  491  1  0.77784900  0.81061400  0.21839300  1
  C  492  1  0.72046900  0.71790300  0.21825100  1
  C  498  1  0.66302500  0.70459500  0.32856500  1
  C  499  1  0.63458600  0.69065600  0.31792000  1
  C  501  1  0.68141000  0.72334100  0.31075300  1
  C  508  1  0.67249300  0.32756500  0.35747800  1
  C  510  1  0.60909700  0.40456400  0.42772900  1
  C  512  1  0.61237400  0.38087200  0.38174000  1
  C  513  1  0.62862100  0.36091300  0.36385800  1
  C  515  1  0.61703600  0.35569500  0.33540400  1
  C  516  1  0.62386500  0.40651300  0.45691800  1
  C  520  1  0.60930000  0.62201500  0.42763400  1
  C  522  1  0.61259200  0.64563600  0.38161300  1
  C  523  1  0.62406400  0.62010300  0.45682500  1
  C  527  1  0.62886400  0.66555100  0.36370300  1
  C  529  1  0.67279500  0.69882400  0.35727200  1
  C  531  1  0.61728900  0.67073500  0.33523800  1
  C  534  1  0.98229100  0.04259800  0.00329800  1
  C  535  1  0.98161000  0.07323200  0.00264500  1
  C  536  1  0.96617100  0.02686200  0.02526300  1
  C  540  1  0.86388500  0.16253300  0.09862000  1
  C  541  1  0.83628100  0.15251100  0.11432500  1
  C  542  1  0.87931200  0.14442000  0.07833200  1
  C  543  1  0.92215900  0.13741200  0.04406000  1
  C  544  1  0.91196200  0.10873400  0.03872800  1
  C  545  1  0.88381000  0.09841700  0.05332800  1
  C  547  1  0.86733400  0.11599500  0.07358100  1
  C  548  1  0.83988500  0.10607500  0.08936200  1
  C  549  1  0.82447200  0.12421300  0.10962700  1
  C  553  1  0.93004000  0.09052600  0.02011200  1
  C  556  1  0.83334800  0.20003700  0.13799600  1
  C  557  1  0.86159300  0.20870500  0.12213300  1
  C  559  1  0.82130600  0.17160200  0.13401600  1
  C  560  1  0.87655600  0.23785000  0.12345400  1
  C  564  1  0.81608500  0.21900000  0.15661000  1
  C  565  1  0.83294500  0.82715000  0.13792400  1
  C  566  1  0.86119500  0.81842700  0.12209400  1
  C  567  1  0.87609900  0.78926000  0.12344900  1
  C  571  1  0.81566800  0.80824200  0.15659200  1
  C  574  1  0.96614900  0.99989800  0.02519700  1
  C  575  1  0.98224700  0.98424000  0.00316600  1
  C  576  1  0.98152900  0.95360800  0.00238100  1
  C  581  1  0.86361500  0.86457800  0.09854900  1
  C  582  1  0.83600100  0.87465100  0.11420700  1
  C  583  1  0.82096200  0.85560000  0.13389900  1
  C  584  1  0.87911600  0.88265200  0.07826900  1
  C  585  1  0.92201400  0.88955800  0.04402500  1
  C  586  1  0.91185200  0.91823200  0.03861900  1
  C  587  1  0.88372700  0.92861700  0.05321400  1
  C  589  1  0.86718900  0.91108500  0.07346700  1
  C  590  1  0.83973000  0.92105600  0.08920100  1
  C  591  1  0.82425100  0.90296100  0.10946500  1
  C  595  1  0.92992000  0.93637400  0.01993100  1
  C  598  1  0.90932600  0.15477500  0.32513900  1
  C  599  1  0.83546000  0.20334300  0.32866300  1
  C  600  1  0.86396400  0.18951500  0.31800800  1
  C  602  1  0.81690600  0.22193500  0.31082600  1
  C  606  1  0.83528300  0.82388100  0.32854400  1
  C  607  1  0.81692100  0.80504000  0.31080900  1
  C  610  1  0.86379400  0.83769900  0.31788500  1
  C  612  1  0.90915700  0.87245600  0.32497900  1
  C  613  1  0.98729000  0.04263000  0.45908700  1
  C  614  1  0.98577700  0.07323100  0.45994300  1
  C  615  1  0.99990700  0.08816600  0.48331900  1
  C  616  1  0.97655000  0.02698500  0.43464900  1
  C  621  1  0.91827600  0.10585200  0.41871900  1
  C  622  1  0.88961500  0.12092800  0.42770100  1
  C  624  1  0.88624000  0.14462000  0.38171900  1
  C  625  1  0.91434000  0.12977900  0.37144500  1
  C  626  1  0.93014600  0.11040700  0.39032900  1
  C  628  1  0.92571400  0.13494000  0.34309000  1
  C  630  1  0.87491500  0.11898700  0.45691600  1
  C  634  1  0.93589100  0.08726700  0.43734200  1
  C  636  1  0.97656500  0.99677400  0.43461300  1
  C  637  1  0.86988100  0.16449800  0.36382400  1
  C  639  1  0.82577900  0.19760100  0.35740000  1
  C  641  1  0.88137600  0.16967600  0.33533300  1
  C  643  1  0.82548200  0.82979900  0.35721400  1
  C  644  1  0.98735400  0.98434800  0.45900100  1
  C  645  1  0.98588000  0.95374100  0.45978100  1
  C  649  1  0.91811800  0.92143500  0.41853500  1
  C  650  1  0.88934200  0.90649600  0.42746300  1
  C  652  1  0.88593500  0.88281200  0.38147900  1
  C  653  1  0.91412600  0.89754400  0.37124100  1
  C  654  1  0.92999800  0.91685200  0.39015200  1
  C  656  1  0.86956200  0.86293400  0.36359500  1
  C  658  1  0.88114200  0.85762900  0.33515300  1
  C  659  1  0.92555200  0.89230000  0.34291900  1
  C  661  1  0.87459100  0.90847900  0.45665600  1
  C  665  1  0.93582500  0.93991700  0.43719700  1
  C  667  1  0.99994100  0.02723000  0.98489200  1
  C  668  1  0.99997500  0.08820600  0.98501800  1
  C  670  1  0.99992400  0.99968700  0.98483200  1
  C  671  1  0.99992600  0.93870700  0.98472400  1
  C  674  1  0.36522200  0.02722100  0.48321600  1
  C  676  1  0.36528700  0.99971000  0.48315700  1
  C  677  1  0.36541000  0.93876800  0.48304900  1
  C  679  1  0.37929000  0.07318900  0.50665300  1
  C  680  1  0.37787900  0.04258200  0.50739800  1
  C  681  1  0.38867000  0.02688300  0.53178400  1
  C  685  1  0.44676900  0.10583900  0.54787900  1
  C  686  1  0.47539100  0.12096600  0.53889100  1
  C  688  1  0.47875900  0.14462800  0.58488800  1
  C  689  1  0.45071100  0.12972200  0.59517700  1
  C  690  1  0.43492700  0.11033900  0.57628800  1
  C  692  1  0.43935600  0.13484000  0.62354500  1
  C  694  1  0.49006500  0.11907800  0.50966100  1
  C  697  1  0.42916900  0.08724500  0.52925400  1
  C  699  1  0.45571000  0.15469600  0.64149600  1
  C  701  1  0.49508300  0.16453000  0.60277800  1
  C  702  1  0.53909400  0.19772800  0.60918300  1
  C  703  1  0.52943100  0.20343200  0.63793100  1
  C  704  1  0.50098200  0.18953300  0.64860500  1
  C  706  1  0.48360600  0.16966700  0.63128400  1
  C  707  1  0.54797000  0.22203600  0.65576700  1
  C  709  1  0.52955700  0.82357800  0.63777900  1
  C  710  1  0.54782100  0.80467200  0.65552300  1
  C  711  1  0.53943600  0.82949200  0.60913100  1
  C  713  1  0.38877700  0.99994200  0.53171100  1
  C  714  1  0.37966900  0.95370700  0.50636300  1
  C  715  1  0.37807300  0.98430200  0.50725800  1
  C  719  1  0.44743600  0.92160100  0.54781400  1
  C  720  1  0.47617600  0.90659300  0.53892300  1
  C  722  1  0.47937400  0.88284900  0.58488500  1
  C  723  1  0.45123200  0.89767100  0.59509500  1
  C  724  1  0.43547600  0.91704400  0.57617300  1
  C  726  1  0.49559000  0.86286200  0.60275700  1
  C  727  1  0.50111300  0.83751100  0.64842700  1
  C  729  1  0.48391900  0.85755800  0.63117000  1
  C  730  1  0.45597200  0.87249300  0.64132700  1
  C  731  1  0.43972200  0.89243100  0.62339400  1
  C  734  1  0.49099300  0.90856500  0.50975300  1
  C  737  1  0.42975700  0.94004300  0.52910000  1
  C  741  1  0.53195700  0.20010600  0.82871000  1
  C  743  1  0.54924500  0.21905700  0.81009100  1
  C  745  1  0.54393100  0.17164300  0.83266000  1
  C  747  1  0.53221600  0.82724700  0.82866700  1
  C  749  1  0.54946200  0.80837400  0.80994400  1
  C  753  1  0.54412200  0.85573200  0.83262300  1
  C  755  1  0.38354400  0.07330700  0.96406300  1
  C  756  1  0.38282700  0.04267500  0.96328300  1
  C  757  1  0.39893500  0.02701500  0.94125700  1
  C  761  1  0.50130200  0.16259000  0.86801300  1
  C  762  1  0.52890000  0.15254900  0.85231400  1
  C  763  1  0.48582600  0.14447600  0.88827600  1
  C  764  1  0.44298500  0.13749900  0.92256500  1
  C  765  1  0.45315800  0.10881500  0.92790200  1
  C  766  1  0.48125600  0.09846000  0.91324800  1
  C  768  1  0.49776200  0.11603400  0.89301100  1
  C  769  1  0.52519900  0.10609200  0.87722700  1
  C  770  1  0.54065400  0.12422900  0.85698500  1
  C  774  1  0.43511000  0.09063700  0.94657400  1
  C  777  1  0.39893900  0.99678300  0.94120900  1
  C  778  1  0.48880000  0.23795800  0.84326700  1
  C  780  1  0.50370800  0.20879200  0.84456300  1
  C  783  1  0.48930000  0.78924100  0.84338800  1
  C  785  1  0.50410700  0.81844900  0.84465000  1
  C  787  1  0.38353700  0.95368500  0.96385400  1
  C  788  1  0.38281600  0.98431800  0.96317500  1
  C  793  1  0.50166600  0.86460800  0.86818000  1
  C  794  1  0.52914200  0.87474800  0.85238100  1
  C  795  1  0.48619700  0.88266500  0.88849300  1
  C  796  1  0.44336900  0.88953600  0.92281100  1
  C  797  1  0.45340800  0.91826900  0.92807000  1
  C  798  1  0.48147100  0.92869200  0.91341600  1
  C  800  1  0.49802000  0.91115000  0.89318100  1
  C  801  1  0.52536700  0.92118000  0.87733000  1
  C  802  1  0.54081200  0.90309900  0.85703500  1
  C  806  1  0.43521100  0.93645800  0.94660900  1
  C  811  1  0.61604600  0.26230100  0.65674000  1
  C  817  1  0.70240800  0.32177200  0.63780500  1
  C  818  1  0.68403300  0.30296300  0.65556400  1
  C  819  1  0.69262900  0.32763800  0.60912000  1
  C  821  1  0.75628300  0.40451800  0.53891400  1
  C  823  1  0.75291700  0.38081600  0.58489200  1
  C  824  1  0.73660100  0.36088700  0.60276100  1
  C  825  1  0.73085500  0.33567000  0.64848600  1
  C  827  1  0.74816600  0.35562600  0.63121700  1
  C  828  1  0.74154300  0.40649600  0.50971700  1
  C  831  1  0.75609600  0.62212700  0.53893600  1
  C  833  1  0.75271600  0.64573100  0.58496100  1
  C  834  1  0.74132200  0.62017000  0.50975100  1
  C  837  1  0.73634100  0.66556400  0.60289100  1
  C  838  1  0.61557200  0.76369000  0.65673300  1
  C  844  1  0.69221600  0.69862900  0.60936200  1
  C  845  1  0.70198300  0.70444200  0.63806000  1
  C  846  1  0.73051100  0.69063000  0.64868700  1
  C  848  1  0.74790600  0.67078900  0.63135100  1
  C  850  1  0.68353200  0.72314500  0.65586500  1
  C  853  1  0.61609500  0.26246300  0.71775400  1
  C  854  1  0.60050600  0.23961600  0.70241000  1
  C  855  1  0.59941900  0.24037800  0.67180000  1
  C  856  1  0.63269400  0.28430300  0.67166100  1
  C  857  1  0.63165700  0.28523000  0.70227000  1
  C  858  1  0.58670300  0.21645700  0.71811200  1
  C  859  1  0.64544600  0.30848800  0.71783400  1
  C  860  1  0.61610700  0.26254900  0.74855200  1
  C  861  1  0.60068900  0.23966100  0.76400600  1
  C  862  1  0.59969300  0.24046900  0.79464000  1
  C  863  1  0.61614600  0.26271400  0.80946900  1
  C  864  1  0.63257300  0.28488200  0.79450200  1
  C  865  1  0.63153700  0.28552600  0.76386500  1
  C  866  1  0.58699300  0.21639900  0.74833200  1
  C  867  1  0.64519000  0.30871300  0.74805100  1
  C  873  1  0.70036400  0.32542600  0.82831000  1
  C  874  1  0.68307300  0.30646600  0.80970700  1
  C  881  1  0.68835200  0.35387200  0.83229300  1
  C  886  1  0.61573900  0.76407500  0.71774700  1
  C  887  1  0.63116800  0.74111500  0.70244500  1
  C  888  1  0.63214100  0.74176100  0.67183000  1
  C  889  1  0.59907300  0.78580100  0.67162300  1
  C  890  1  0.60021100  0.78683400  0.70222300  1
  C  891  1  0.64493000  0.71797000  0.71819000  1
  C  892  1  0.58657200  0.81019100  0.71773900  1
  C  893  1  0.61587100  0.76428900  0.74854400  1
  C  894  1  0.63125400  0.74140900  0.76403400  1
  C  895  1  0.63239200  0.74234000  0.79466000  1
  C  896  1  0.61614600  0.76471900  0.80945800  1
  C  897  1  0.59977200  0.78689600  0.79445600  1
  C  898  1  0.60063600  0.78739100  0.76381300  1
  C  899  1  0.64477300  0.71803200  0.74841000  1
  C  900  1  0.58697100  0.81054100  0.74795600  1
  C  905  1  0.70009700  0.70178200  0.82855700  1
  C  906  1  0.68284400  0.72078100  0.80997300  1
  C  912  1  0.68801000  0.67336200  0.83253200  1
  C  915  1  0.74355800  0.28759200  0.84284500  1
  C  917  1  0.72860700  0.31674000  0.84417000  1
  C  920  1  0.73090400  0.36289000  0.86772800  1
  C  921  1  0.70332200  0.37294000  0.85201100  1
  C  922  1  0.74629200  0.38095600  0.88808200  1
  C  923  1  0.75068900  0.42687300  0.91325400  1
  C  924  1  0.73428700  0.40936300  0.89289800  1
  C  925  1  0.70687900  0.41932100  0.87708600  1
  C  926  1  0.69150600  0.40122800  0.85675600  1
  C  930  1  0.73067600  0.66419000  0.86781700  1
  C  931  1  0.70300300  0.65422700  0.85216900  1
  C  932  1  0.74612200  0.64603800  0.88805800  1
  C  933  1  0.75058400  0.60002100  0.91303800  1
  C  934  1  0.73409500  0.61763100  0.89282300  1
  C  935  1  0.70658200  0.60776700  0.87709300  1
  C  936  1  0.69114700  0.62594500  0.85687500  1
  C  940  1  0.74343300  0.73951000  0.84302300  1
  C  942  1  0.72841300  0.71039000  0.84435400  1
  C  945  1  0.88500800  0.45213400  0.00298800  1
  C  946  1  0.88431300  0.48276800  0.00356800  1
  C  950  1  0.94477600  0.38800000  0.04406700  1
  C  951  1  0.95487000  0.41671800  0.03880200  1
  C  954  1  0.93668200  0.43493500  0.02028300  1
  C  956  1  0.88518800  0.57501800  0.00234000  1
  C  957  1  0.88441600  0.54439200  0.00323800  1
  C  958  1  0.90052200  0.52879400  0.02530700  1
  C  959  1  0.90047700  0.49856100  0.02546700  1
  C  963  1  0.94475900  0.63910400  0.04390100  1
  C  964  1  0.95491400  0.61042700  0.03849400  1
  C  967  1  0.93682200  0.59228800  0.01981300  1
  C  970  1  0.95761200  0.37067100  0.32522100  1
  C  972  1  0.95784300  0.65577600  0.32507800  1
  C  973  1  0.86691300  0.49802100  0.48336300  1
  C  974  1  0.86692300  0.43707800  0.48340400  1
  C  975  1  0.88124500  0.45201900  0.46012200  1
  C  976  1  0.87973400  0.48262100  0.45926900  1
  C  981  1  0.94890100  0.41964100  0.41879400  1
  C  982  1  0.95276500  0.39574800  0.37149600  1
  C  983  1  0.93700400  0.41512800  0.39040700  1
  C  985  1  0.94132700  0.39057800  0.34316500  1
  C  987  1  0.93125300  0.43814800  0.43747400  1
  C  989  1  0.89056800  0.49827800  0.43487000  1
  C  990  1  0.86691800  0.52880000  0.48334300  1
  C  991  1  0.86695500  0.58974500  0.48331900  1
  C  992  1  0.88131400  0.57476900  0.46007900  1
  C  993  1  0.87976600  0.54416900  0.45924500  1
  C  995  1  0.89059500  0.52848700  0.43486300  1
  C  999  1  0.94909500  0.60694200  0.41871400  1
  C  1000  1  0.95296900  0.63076800  0.37138800  1
  C  1001  1  0.93719500  0.61142500  0.39032500  1
  C  1003  1  0.94153400  0.63591000  0.34305100  1
  C  1005  1  0.93141800  0.58849200  0.43742200  1
  C  1007  1  0.85410300  0.48265200  0.50747800  1
  C  1008  1  0.85260400  0.45204700  0.50667200  1
  C  1012  1  0.78497800  0.41955700  0.54787500  1
  C  1013  1  0.78103500  0.39563400  0.59515500  1
  C  1014  1  0.79684800  0.41500000  0.57626600  1
  C  1016  1  0.77611000  0.37053900  0.64141600  1
  C  1017  1  0.79244800  0.39042600  0.62348900  1
  C  1020  1  0.80264300  0.43808700  0.52923000  1
  C  1022  1  0.84325700  0.49833800  0.53185100  1
  C  1023  1  0.85408500  0.54420200  0.50742900  1
  C  1024  1  0.85257500  0.57480400  0.50657300  1
  C  1025  1  0.84324000  0.52854900  0.53182500  1
  C  1029  1  0.78484800  0.60714300  0.54784400  1
  C  1030  1  0.78090000  0.63096900  0.59517000  1
  C  1031  1  0.79674700  0.61167600  0.57623000  1
  C  1033  1  0.79232500  0.63615000  0.62350600  1
  C  1035  1  0.80253500  0.58867500  0.52915400  1
  C  1037  1  0.77592500  0.65594700  0.64149200  1
  C  1039  1  0.86663300  0.49807700  0.98513900  1
  C  1040  1  0.84893400  0.48257400  0.96359000  1
  C  1041  1  0.84820900  0.45194400  0.96446100  1
  C  1042  1  0.86660200  0.43710200  0.98543000  1
  C  1047  1  0.78899400  0.38784600  0.92251700  1
  C  1048  1  0.77874800  0.41649300  0.92795100  1
  C  1051  1  0.79669300  0.43460600  0.94676500  1
  C  1053  1  0.83283600  0.49817400  0.94151600  1
  C  1054  1  0.86669000  0.52888900  0.98497200  1
  C  1055  1  0.84903000  0.54419900  0.96326400  1
  C  1056  1  0.84838600  0.57483800  0.96381500  1
  C  1057  1  0.86681500  0.58986400  0.98462900  1
  C  1058  1  0.83287800  0.52840700  0.94135800  1
  C  1063  1  0.78902600  0.63895700  0.92225600  1
  C  1064  1  0.77877000  0.61030000  0.92761600  1
  C  1067  1  0.79681300  0.59209100  0.94625700  1
  C  1071  1  0.11779400  0.26285000  0.15708400  1
  C  1077  1  0.03377550  0.32545000  0.13792000  1
  C  1078  1  0.00558647  0.31672500  0.12200700  1
  C  1079  1  0.99070400  0.28754700  0.12327400  1
  C  1081  1  0.05101750  0.30652800  0.15659900  1
  C  1083  1  0.00318147  0.36291400  0.09853500  1
  C  1084  1  0.03073650  0.37298700  0.11427500  1
  C  1085  1  0.04573350  0.35391700  0.13397200  1
  C  1087  1  0.98769000  0.38102300  0.07828000  1
  C  1088  1  0.98299800  0.42707800  0.05340500  1
  C  1089  1  0.99956700  0.40949000  0.07358800  1
  C  1090  1  0.02698550  0.41945300  0.08938400  1
  C  1091  1  0.04245650  0.40132100  0.10961900  1
  C  1095  1  0.00322547  0.66410600  0.09836200  1
  C  1096  1  0.03085950  0.65404100  0.11399900  1
  C  1097  1  0.98770000  0.64602500  0.07810300  1
  C  1098  1  0.98305400  0.60004900  0.05307200  1
  C  1099  1  0.99961900  0.61759000  0.07330100  1
  C  1100  1  0.02710050  0.60762700  0.08901100  1
  C  1101  1  0.04260850  0.62573100  0.10925000  1
  C  1107  1  0.11765400  0.76434500  0.15704100  1
  C  1113  1  0.03392450  0.70154200  0.13771700  1
  C  1114  1  0.00565547  0.71025800  0.12190900  1
  C  1116  1  0.04591550  0.67309600  0.13367700  1
  C  1118  1  0.99073300  0.73941700  0.12328200  1
  C  1120  1  0.05117250  0.72044400  0.15641500  1
  C  1121  1  0.11747400  0.26242800  0.24879900  1
  C  1122  1  0.10193200  0.28520900  0.26427800  1
  C  1123  1  0.10082400  0.28425600  0.29488200  1
  C  1124  1  0.11735900  0.26219300  0.30981300  1
  C  1125  1  0.13393800  0.24023800  0.29475900  1
  C  1126  1  0.13295000  0.23952500  0.26414600  1
  C  1127  1  0.08824650  0.30851400  0.24871200  1
  C  1128  1  0.14674600  0.21636400  0.24844600  1
  C  1129  1  0.11758200  0.26256900  0.21800000  1
  C  1130  1  0.10229000  0.28561100  0.20268300  1
  C  1131  1  0.10140100  0.28504200  0.17204200  1
  C  1132  1  0.13409500  0.24052700  0.17192600  1
  C  1133  1  0.13299500  0.23967200  0.20255400  1
  C  1134  1  0.08860750  0.30878600  0.21849500  1
  C  1135  1  0.14656700  0.21635400  0.21822700  1
  C  1140  1  0.03118350  0.32174800  0.32878400  1
  C  1141  1  0.04953350  0.30295000  0.31099500  1
  C  1149  1  0.00277347  0.33571700  0.31811600  1
  C  1150  1  0.11764100  0.76421500  0.24875800  1
  C  1151  1  0.13302400  0.78709900  0.26420700  1
  C  1152  1  0.13409300  0.78621100  0.29481500  1
  C  1153  1  0.11764400  0.76412000  0.30977400  1
  C  1154  1  0.10118200  0.74208100  0.29474400  1
  C  1155  1  0.10225600  0.74128400  0.26413500  1
  C  1156  1  0.14662100  0.81042200  0.24861100  1
  C  1157  1  0.08865450  0.71800900  0.24847000  1
  C  1158  1  0.11764400  0.76425800  0.21795900  1
  C  1159  1  0.13284000  0.78733000  0.20261300  1
  C  1160  1  0.13384200  0.78667100  0.17197700  1
  C  1161  1  0.10145700  0.74197500  0.17190700  1
  C  1162  1  0.10245000  0.74123000  0.20254200  1
  C  1163  1  0.14633100  0.81061400  0.21839300  1
  C  1164  1  0.08895150  0.71790300  0.21825100  1
  C  1170  1  0.03150750  0.70459500  0.32856500  1
  C  1171  1  0.00306847  0.69065600  0.31792000  1
  C  1173  1  0.04989250  0.72334100  0.31075300  1
  C  1180  1  0.04097550  0.32756500  0.35747800  1
  C  1182  1  0.97757900  0.40456400  0.42772900  1
  C  1184  1  0.98085600  0.38087200  0.38174000  1
  C  1185  1  0.99710300  0.36091300  0.36385800  1
  C  1187  1  0.98551800  0.35569500  0.33540400  1
  C  1188  1  0.99234700  0.40651300  0.45691800  1
  C  1192  1  0.97778200  0.62201500  0.42763400  1
  C  1194  1  0.98107400  0.64563600  0.38161300  1
  C  1195  1  0.99254600  0.62010300  0.45682500  1
  C  1199  1  0.99734600  0.66555100  0.36370300  1
  C  1201  1  0.04127750  0.69882400  0.35727200  1
  C  1203  1  0.98577100  0.67073500  0.33523800  1
  C  1206  1  0.35077300  0.04259800  0.00329800  1
  C  1207  1  0.35009200  0.07323200  0.00264500  1
  C  1208  1  0.33465300  0.02686200  0.02526300  1
  C  1212  1  0.23236700  0.16253300  0.09862000  1
  C  1213  1  0.20476300  0.15251100  0.11432500  1
  C  1214  1  0.24779400  0.14442000  0.07833200  1
  C  1215  1  0.29064100  0.13741200  0.04406000  1
  C  1216  1  0.28044400  0.10873400  0.03872800  1
  C  1217  1  0.25229200  0.09841700  0.05332800  1
  C  1219  1  0.23581600  0.11599500  0.07358100  1
  C  1220  1  0.20836700  0.10607500  0.08936200  1
  C  1221  1  0.19295400  0.12421300  0.10962700  1
  C  1225  1  0.29852200  0.09052600  0.02011200  1
  C  1228  1  0.20183000  0.20003700  0.13799600  1
  C  1229  1  0.23007500  0.20870500  0.12213300  1
  C  1231  1  0.18978800  0.17160200  0.13401600  1
  C  1232  1  0.24503800  0.23785000  0.12345400  1
  C  1236  1  0.18456700  0.21900000  0.15661000  1
  C  1237  1  0.20142700  0.82715000  0.13792400  1
  C  1238  1  0.22967700  0.81842700  0.12209400  1
  C  1239  1  0.24458100  0.78926000  0.12344900  1
  C  1243  1  0.18415000  0.80824200  0.15659200  1
  C  1246  1  0.33463100  0.99989800  0.02519700  1
  C  1247  1  0.35072900  0.98424000  0.00316600  1
  C  1248  1  0.35001100  0.95360800  0.00238100  1
  C  1253  1  0.23209700  0.86457800  0.09854900  1
  C  1254  1  0.20448300  0.87465100  0.11420700  1
  C  1255  1  0.18944400  0.85560000  0.13389900  1
  C  1256  1  0.24759800  0.88265200  0.07826900  1
  C  1257  1  0.29049600  0.88955800  0.04402500  1
  C  1258  1  0.28033400  0.91823200  0.03861900  1
  C  1259  1  0.25220900  0.92861700  0.05321400  1
  C  1261  1  0.23567100  0.91108500  0.07346700  1
  C  1262  1  0.20821200  0.92105600  0.08920100  1
  C  1263  1  0.19273300  0.90296100  0.10946500  1
  C  1267  1  0.29840200  0.93637400  0.01993100  1
  C  1270  1  0.27780800  0.15477500  0.32513900  1
  C  1271  1  0.20394200  0.20334300  0.32866300  1
  C  1272  1  0.23244600  0.18951500  0.31800800  1
  C  1274  1  0.18538800  0.22193500  0.31082600  1
  C  1278  1  0.20376500  0.82388100  0.32854400  1
  C  1279  1  0.18540300  0.80504000  0.31080900  1
  C  1282  1  0.23227600  0.83769900  0.31788500  1
  C  1284  1  0.27763900  0.87245600  0.32497900  1
  C  1285  1  0.35577200  0.04263000  0.45908700  1
  C  1286  1  0.35425900  0.07323100  0.45994300  1
  C  1287  1  0.36838900  0.08816600  0.48331900  1
  C  1288  1  0.34503200  0.02698500  0.43464900  1
  C  1293  1  0.28675800  0.10585200  0.41871900  1
  C  1294  1  0.25809700  0.12092800  0.42770100  1
  C  1296  1  0.25472200  0.14462000  0.38171900  1
  C  1297  1  0.28282200  0.12977900  0.37144500  1
  C  1298  1  0.29862800  0.11040700  0.39032900  1
  C  1300  1  0.29419600  0.13494000  0.34309000  1
  C  1302  1  0.24339700  0.11898700  0.45691600  1
  C  1306  1  0.30437300  0.08726700  0.43734200  1
  C  1308  1  0.34504700  0.99677400  0.43461300  1
  C  1309  1  0.23836300  0.16449800  0.36382400  1
  C  1311  1  0.19426100  0.19760100  0.35740000  1
  C  1313  1  0.24985800  0.16967600  0.33533300  1
  C  1315  1  0.19396400  0.82979900  0.35721400  1
  C  1316  1  0.35583600  0.98434800  0.45900100  1
  C  1317  1  0.35436200  0.95374100  0.45978100  1
  C  1321  1  0.28660000  0.92143500  0.41853500  1
  C  1322  1  0.25782400  0.90649600  0.42746300  1
  C  1324  1  0.25441700  0.88281200  0.38147900  1
  C  1325  1  0.28260800  0.89754400  0.37124100  1
  C  1326  1  0.29848000  0.91685200  0.39015200  1
  C  1328  1  0.23804400  0.86293400  0.36359500  1
  C  1330  1  0.24962400  0.85762900  0.33515300  1
  C  1331  1  0.29403400  0.89230000  0.34291900  1
  C  1333  1  0.24307300  0.90847900  0.45665600  1
  C  1337  1  0.30430700  0.93991700  0.43719700  1
  C  1339  1  0.36842300  0.02723000  0.98489200  1
  C  1340  1  0.36845700  0.08820600  0.98501800  1
  C  1342  1  0.36840600  0.99968700  0.98483200  1
  C  1343  1  0.36840800  0.93870700  0.98472400  1
  N  11  1  0.02737800  0.08886400  0.52688100  1
  N  15  1  0.12119200  0.13961000  0.55767800  1
  N  33  1  0.15345800  0.17878700  0.59288200  1
  N  45  1  0.02803600  0.93799600  0.52636300  1
  N  49  1  0.12194000  0.88795200  0.55773400  1
  N  56  1  0.15397300  0.84860200  0.59288900  1
  N  87  1  0.03324300  0.08953300  0.94551400  1
  N  95  1  0.09084800  0.15405000  0.90327000  1
  N  109  1  0.12161100  0.18978900  0.86340700  1
  N  118  1  0.03335100  0.93754500  0.94531700  1
  N  120  1  0.12204900  0.83738300  0.86358200  1
  N  127  1  0.09128200  0.87301500  0.90352500  1
  N  141  1  0.28211300  0.30318400  0.65564400  1
  N  143  1  0.21292300  0.22143800  0.65594200  1
  N  150  1  0.37348400  0.38589800  0.55770400  1
  N  154  1  0.34123700  0.34666600  0.59286900  1
  N  160  1  0.37326300  0.64067300  0.55777700  1
  N  168  1  0.21277600  0.80472000  0.65557900  1
  N  170  1  0.28161100  0.72278600  0.65597000  1
  N  175  1  0.34090300  0.67971200  0.59304900  1
  N  198  1  0.28120900  0.30454700  0.81046700  1
  N  199  1  0.21416300  0.22084600  0.81071400  1
  N  231  1  0.21439400  0.80676600  0.81036800  1
  N  232  1  0.28099000  0.72276900  0.81075700  1
  N  247  1  0.37368100  0.33571700  0.86307200  1
  N  271  1  0.37350600  0.69135000  0.86318200  1
  N  276  1  0.53482000  0.43603000  0.02155500  1
  N  280  1  0.59270900  0.37143400  0.06330200  1
  N  289  1  0.53494600  0.59131100  0.02077700  1
  N  293  1  0.59267900  0.65562300  0.06318500  1
  N  307  1  0.52949200  0.43630900  0.44004000  1
  N  325  1  0.52968100  0.59045600  0.44006400  1
  N  338  1  0.46746400  0.43637400  0.52684900  1
  N  355  1  0.46733400  0.59051600  0.52663300  1
  N  373  1  0.46160500  0.43563900  0.94594600  1
  N  377  1  0.40426700  0.37135600  0.90311000  1
  N  389  1  0.46171800  0.59096800  0.94519600  1
  N  393  1  0.40420800  0.65554700  0.90299300  1
  N  401  1  0.78270600  0.22093900  0.15585900  1
  N  403  1  0.71593400  0.30480800  0.15608000  1
  N  410  1  0.62351200  0.33570900  0.10313100  1
  N  437  1  0.71609200  0.72217700  0.15589100  1
  N  439  1  0.78226100  0.80649200  0.15601600  1
  N  443  1  0.62353600  0.69129100  0.10304000  1
  N  466  1  0.78347200  0.22130400  0.31062500  1
  N  467  1  0.71449000  0.30320100  0.31087100  1
  N  495  1  0.71485100  0.72305600  0.31063800  1
  N  496  1  0.78348200  0.80514300  0.31079600  1
  N  511  1  0.62335900  0.38592800  0.40892200  1
  N  514  1  0.65546200  0.34662200  0.37374100  1
  N  521  1  0.62357600  0.64061200  0.40879900  1
  N  530  1  0.65572700  0.67982000  0.37356600  1
  N  538  1  0.96342400  0.08938900  0.02124600  1
  N  546  1  0.90582600  0.15397400  0.06335100  1
  N  558  1  0.87515300  0.18970700  0.10325400  1
  N  578  1  0.96331100  0.93736500  0.02088400  1
  N  580  1  0.87481900  0.83739000  0.10321700  1
  N  588  1  0.90563700  0.87304600  0.06333000  1
  N  619  1  0.96919200  0.08893400  0.43974400  1
  N  623  1  0.87530800  0.13956100  0.40891500  1
  N  640  1  0.84297000  0.17869000  0.37370500  1
  N  647  1  0.96910200  0.93807000  0.43968400  1
  N  651  1  0.87497600  0.88792000  0.40865600  1
  N  657  1  0.84261900  0.84879000  0.37347100  1
  N  683  1  0.39586000  0.08886400  0.52688100  1
  N  687  1  0.48967400  0.13961000  0.55767800  1
  N  705  1  0.52194000  0.17878700  0.59288200  1
  N  717  1  0.39651800  0.93799600  0.52636300  1
  N  721  1  0.49042200  0.88795200  0.55773400  1
  N  728  1  0.52245500  0.84860200  0.59288900  1
  N  759  1  0.40172500  0.08953300  0.94551400  1
  N  767  1  0.45933000  0.15405000  0.90327000  1
  N  781  1  0.49009300  0.18978900  0.86340700  1
  N  790  1  0.40183300  0.93754500  0.94531700  1
  N  792  1  0.49053100  0.83738300  0.86358200  1
  N  799  1  0.45976400  0.87301500  0.90352500  1
  N  813  1  0.65059500  0.30318400  0.65564400  1
  N  815  1  0.58140500  0.22143800  0.65594200  1
  N  822  1  0.74196600  0.38589800  0.55770400  1
  N  826  1  0.70971900  0.34666600  0.59286900  1
  N  832  1  0.74174500  0.64067300  0.55777700  1
  N  840  1  0.58125800  0.80472000  0.65557900  1
  N  842  1  0.65009300  0.72278600  0.65597000  1
  N  847  1  0.70938500  0.67971200  0.59304900  1
  N  870  1  0.64969100  0.30454700  0.81046700  1
  N  871  1  0.58264500  0.22084600  0.81071400  1
  N  903  1  0.58287600  0.80676600  0.81036800  1
  N  904  1  0.64947200  0.72276900  0.81075700  1
  N  919  1  0.74216300  0.33571700  0.86307200  1
  N  943  1  0.74198800  0.69135000  0.86318200  1
  N  948  1  0.90330200  0.43603000  0.02155500  1
  N  952  1  0.96119100  0.37143400  0.06330200  1
  N  961  1  0.90342800  0.59131100  0.02077700  1
  N  965  1  0.96116100  0.65562300  0.06318500  1
  N  979  1  0.89797400  0.43630900  0.44004000  1
  N  997  1  0.89816300  0.59045600  0.44006400  1
  N  1010  1  0.83594600  0.43637400  0.52684900  1
  N  1027  1  0.83581600  0.59051600  0.52663300  1
  N  1045  1  0.83008700  0.43563900  0.94594600  1
  N  1049  1  0.77274900  0.37135600  0.90311000  1
  N  1061  1  0.83020000  0.59096800  0.94519600  1
  N  1065  1  0.77269000  0.65554700  0.90299300  1
  N  1073  1  0.15118800  0.22093900  0.15585900  1
  N  1075  1  0.08441650  0.30480800  0.15608000  1
  N  1082  1  0.99199400  0.33570900  0.10313100  1
  N  1109  1  0.08457450  0.72217700  0.15589100  1
  N  1111  1  0.15074300  0.80649200  0.15601600  1
  N  1115  1  0.99201800  0.69129100  0.10304000  1
  N  1138  1  0.15195400  0.22130400  0.31062500  1
  N  1139  1  0.08297250  0.30320100  0.31087100  1
  N  1167  1  0.08333350  0.72305600  0.31063800  1
  N  1168  1  0.15196400  0.80514300  0.31079600  1
  N  1183  1  0.99184100  0.38592800  0.40892200  1
  N  1186  1  0.02394450  0.34662200  0.37374100  1
  N  1193  1  0.99205800  0.64061200  0.40879900  1
  N  1202  1  0.02420950  0.67982000  0.37356600  1
  N  1210  1  0.33190600  0.08938900  0.02124600  1
  N  1218  1  0.27430800  0.15397400  0.06335100  1
  N  1230  1  0.24363500  0.18970700  0.10325400  1
  N  1250  1  0.33179300  0.93736500  0.02088400  1
  N  1252  1  0.24330100  0.83739000  0.10321700  1
  N  1260  1  0.27411900  0.87304600  0.06333000  1
  N  1291  1  0.33767400  0.08893400  0.43974400  1
  N  1295  1  0.24379000  0.13956100  0.40891500  1
  N  1312  1  0.21145200  0.17869000  0.37370500  1
  N  1319  1  0.33758400  0.93807000  0.43968400  1
  N  1323  1  0.24345800  0.88792000  0.40865600  1
  N  1329  1  0.21110100  0.84879000  0.37347100  1
  O  26  1  0.07802000  0.06749800  0.51391300  1
  O  66  1  0.07847400  0.95984100  0.51371400  1
  O  68  1  0.16286500  0.23933000  0.67435600  1
  O  72  1  0.16319300  0.23537400  0.79132600  1
  O  78  1  0.16334500  0.79198700  0.79128500  1
  O  79  1  0.16248200  0.78734800  0.67391900  1
  O  103  1  0.08364300  0.07249000  0.96402400  1
  O  135  1  0.08360200  0.95463200  0.96413700  1
  O  200  1  0.33232500  0.28558200  0.67396700  1
  O  203  1  0.33213800  0.29006800  0.79099500  1
  O  235  1  0.33193100  0.73702700  0.79114400  1
  O  236  1  0.33176900  0.74060300  0.67423100  1
  O  283  1  0.58509100  0.45303700  0.00269400  1
  O  296  1  0.58531000  0.57417300  0.00229700  1
  O  316  1  0.58003300  0.45791800  0.45284300  1
  O  334  1  0.58014600  0.56876200  0.45288800  1
  O  349  1  0.41690400  0.45787900  0.51388300  1
  O  364  1  0.41683000  0.56889000  0.51377000  1
  O  380  1  0.41110900  0.45265200  0.96425300  1
  O  396  1  0.41130500  0.57409300  0.96384900  1
  O  470  1  0.66426300  0.28567800  0.29250300  1
  O  471  1  0.66492200  0.29013500  0.17526700  1
  O  497  1  0.66506400  0.73664700  0.17524200  1
  O  502  1  0.66463900  0.74064600  0.29227600  1
  O  554  1  0.91304800  0.07243800  0.00258400  1
  O  596  1  0.91293300  0.95442200  0.00235800  1
  O  603  1  0.83352500  0.23926600  0.29226800  1
  O  604  1  0.83365200  0.23530100  0.17539400  1
  O  605  1  0.83327200  0.79199100  0.17539500  1
  O  608  1  0.83370900  0.78764200  0.29243400  1
  O  635  1  0.91858300  0.06746200  0.45262900  1
  O  666  1  0.91862200  0.95969900  0.45260300  1
  O  698  1  0.44650200  0.06749800  0.51391300  1
  O  738  1  0.44695600  0.95984100  0.51371400  1
  O  740  1  0.53134700  0.23933000  0.67435600  1
  O  744  1  0.53167500  0.23537400  0.79132600  1
  O  750  1  0.53182700  0.79198700  0.79128500  1
  O  751  1  0.53096400  0.78734800  0.67391900  1
  O  775  1  0.45212500  0.07249000  0.96402400  1
  O  807  1  0.45208400  0.95463200  0.96413700  1
  O  872  1  0.70080700  0.28558200  0.67396700  1
  O  875  1  0.70062000  0.29006800  0.79099500  1
  O  907  1  0.70041300  0.73702700  0.79114400  1
  O  908  1  0.70025100  0.74060300  0.67423100  1
  O  955  1  0.95357300  0.45303700  0.00269400  1
  O  968  1  0.95379200  0.57417300  0.00229700  1
  O  988  1  0.94851500  0.45791800  0.45284300  1
  O  1006  1  0.94862800  0.56876200  0.45288800  1
  O  1021  1  0.78538600  0.45787900  0.51388300  1
  O  1036  1  0.78531200  0.56889000  0.51377000  1
  O  1052  1  0.77959100  0.45265200  0.96425300  1
  O  1068  1  0.77978700  0.57409300  0.96384900  1
  O  1142  1  0.03274550  0.28567800  0.29250300  1
  O  1143  1  0.03340450  0.29013500  0.17526700  1
  O  1169  1  0.03354650  0.73664700  0.17524200  1
  O  1174  1  0.03312150  0.74064600  0.29227600  1
  O  1226  1  0.28153000  0.07243800  0.00258400  1
  O  1268  1  0.28141500  0.95442200  0.00235800  1
  O  1275  1  0.20200700  0.23926600  0.29226800  1
  O  1276  1  0.20213400  0.23530100  0.17539400  1
  O  1277  1  0.20175400  0.79199100  0.17539500  1
  O  1280  1  0.20219100  0.78764200  0.29243400  1
  O  1307  1  0.28706500  0.06746200  0.45262900  1
  O  1338  1  0.28710400  0.95969900  0.45260300  1
