# generated using pymatgen
data_H87(C69N4)2
_symmetry_space_group_name_H-M   'P 1'
_cell_length_a   50.62810000
_cell_length_b   50.62810000
_cell_length_c   50.62810000
_cell_angle_alpha   90.00000000
_cell_angle_beta   90.00000000
_cell_angle_gamma   90.00000000
_symmetry_Int_Tables_number   1
_chemical_formula_structural   H87(C69N4)2
_chemical_formula_sum   'H348 C552 N32'
_cell_volume   129770.17423299
_cell_formula_units_Z   4
loop_
 _symmetry_equiv_pos_site_id
 _symmetry_equiv_pos_as_xyz
  1  'x, y, z'
loop_
 _atom_site_type_symbol
 _atom_site_label
 _atom_site_symmetry_multiplicity
 _atom_site_fract_x
 _atom_site_fract_y
 _atom_site_fract_z
 _atom_site_occupancy
  H  20  1  0.19183400  0.30488600  0.22547900  1
  H  21  1  0.22526600  0.27132300  0.22569100  1
  H  22  1  0.25323500  0.29928200  0.29879800  1
  H  23  1  0.21973700  0.33277700  0.29896800  1
  H  24  1  0.22568500  0.22527000  0.27132700  1
  H  25  1  0.22547100  0.19183900  0.30489200  1
  H  26  1  0.29928800  0.29879000  0.25323500  1
  H  27  1  0.33278700  0.29895600  0.21974100  1
  H  28  1  0.30488400  0.22547300  0.19183300  1
  H  29  1  0.27131900  0.22568900  0.22526200  1
  H  30  1  0.29879800  0.25322700  0.29928000  1
  H  31  1  0.29896600  0.21973200  0.33277700  1
  H  51  1  0.83247800  0.71913600  0.22476600  1
  H  52  1  0.79897300  0.75262900  0.22493400  1
  H  53  1  0.77128500  0.72491900  0.29824100  1
  H  54  1  0.80487700  0.69151700  0.29846800  1
  H  55  1  0.79863100  0.79877500  0.27071100  1
  H  56  1  0.79880100  0.83220500  0.30427700  1
  H  57  1  0.72517600  0.72513400  0.25240700  1
  H  58  1  0.69170200  0.72494900  0.21888200  1
  H  59  1  0.71932300  0.79864300  0.19125800  1
  H  60  1  0.75288400  0.79843200  0.22469100  1
  H  61  1  0.72545800  0.77085000  0.29853800  1
  H  62  1  0.72523900  0.80435900  0.33202300  1
  H  82  1  0.83220300  0.30428900  0.79879900  1
  H  83  1  0.79877700  0.27071500  0.79863300  1
  H  84  1  0.77084200  0.29853400  0.72546000  1
  H  85  1  0.80434500  0.33202500  0.72523700  1
  H  86  1  0.79843000  0.22468700  0.75288000  1
  H  87  1  0.79863300  0.19126100  0.71931000  1
  H  88  1  0.72491700  0.29823900  0.77128500  1
  H  89  1  0.69151300  0.29846400  0.80487300  1
  H  90  1  0.71913600  0.22477000  0.83248600  1
  H  91  1  0.75263100  0.22493600  0.79898300  1
  H  92  1  0.72513000  0.25241300  0.72518400  1
  H  93  1  0.72493900  0.21889600  0.69170200  1
  H  113  1  0.19125400  0.71932500  0.79864100  1
  H  114  1  0.22468700  0.75288600  0.79843400  1
  H  115  1  0.25240500  0.72518200  0.72513400  1
  H  116  1  0.21887800  0.69170800  0.72494700  1
  H  117  1  0.22493600  0.79898500  0.75263700  1
  H  118  1  0.22476600  0.83248400  0.71914200  1
  H  119  1  0.29853400  0.72546000  0.77084200  1
  H  120  1  0.33202700  0.72523700  0.80434500  1
  H  121  1  0.30428700  0.79879700  0.83220500  1
  H  122  1  0.27071300  0.79863100  0.79878100  1
  H  123  1  0.29823300  0.77128300  0.72491700  1
  H  124  1  0.29845700  0.80486900  0.69151100  1
  H  144  1  0.78868000  0.67602300  0.75695900  1
  H  145  1  0.75556000  0.70960500  0.75617800  1
  H  146  1  0.81382000  0.76779600  0.76728700  1
  H  147  1  0.84735700  0.73462700  0.76658600  1
  H  148  1  0.75617200  0.75556600  0.70960100  1
  H  149  1  0.75695100  0.78868800  0.67602100  1
  H  150  1  0.76779400  0.76729100  0.81381600  1
  H  151  1  0.73462500  0.76659400  0.84735300  1
  H  152  1  0.67602100  0.75696800  0.78867400  1
  H  153  1  0.70960300  0.75618600  0.75555600  1
  H  154  1  0.76729300  0.81382000  0.76779400  1
  H  155  1  0.76659200  0.84735900  0.73462700  1
  H  175  1  0.23080400  0.34307800  0.73966400  1
  H  176  1  0.26346200  0.30921300  0.73876900  1
  H  177  1  0.21522000  0.26091400  0.78605700  1
  H  178  1  0.18129000  0.29349700  0.78510500  1
  H  179  1  0.22585300  0.22505100  0.75255000  1
  H  180  1  0.22564700  0.19246800  0.71865400  1
  H  181  1  0.29958400  0.29835600  0.77203100  1
  H  182  1  0.33222800  0.29851000  0.80588800  1
  H  183  1  0.30453400  0.22442500  0.83251100  1
  H  184  1  0.27090700  0.22531700  0.79936200  1
  H  185  1  0.29925100  0.25323300  0.72567000  1
  H  186  1  0.30011200  0.21961300  0.69252400  1
  H  206  1  0.19251000  0.71860800  0.22563100  1
  H  207  1  0.22509000  0.75250600  0.22583300  1
  H  208  1  0.25320500  0.72569900  0.29928200  1
  H  209  1  0.21958100  0.69255800  0.30014900  1
  H  210  1  0.22533100  0.79936600  0.27089500  1
  H  211  1  0.22443100  0.83251300  0.30452400  1
  H  212  1  0.26092200  0.78604500  0.21522400  1
  H  213  1  0.29350500  0.78509300  0.18129500  1
  H  214  1  0.34309200  0.73966400  0.23081400  1
  H  215  1  0.30922500  0.73876700  0.26347200  1
  H  216  1  0.29835200  0.77201700  0.29960000  1
  H  217  1  0.29850000  0.80587400  0.33224600  1
  H  237  1  0.83249400  0.30456200  0.22440500  1
  H  238  1  0.79935000  0.27093000  0.22529600  1
  H  239  1  0.77205300  0.29955900  0.29836600  1
  H  240  1  0.80591000  0.33220300  0.29852400  1
  H  241  1  0.73878100  0.26345400  0.30920200  1
  H  242  1  0.73967400  0.23079300  0.34306400  1
  H  243  1  0.72563400  0.29921300  0.25327200  1
  H  244  1  0.69248100  0.30007600  0.21965800  1
  H  245  1  0.71869900  0.22567900  0.19241600  1
  H  246  1  0.75259700  0.22588000  0.22500100  1
  H  247  1  0.78606500  0.21521200  0.26089800  1
  H  248  1  0.78511100  0.18127900  0.29347900  1
  H  321  1  0.20514900  0.65134900  0.28077900  1
  H  322  1  0.17181300  0.61829300  0.28099600  1
  H  323  1  0.15173000  0.70480000  0.24550800  1
  H  324  1  0.11872800  0.67148000  0.24504800  1
  H  325  1  0.11003000  0.62649700  0.22282700  1
  H  326  1  0.07643900  0.59325300  0.22266900  1
  H  327  1  0.12654300  0.60932300  0.30275500  1
  H  328  1  0.09296200  0.57606300  0.30249000  1
  H  329  1  0.11181000  0.53730400  0.25656700  1
  H  330  1  0.11186900  0.48730000  0.25642100  1
  H  331  1  0.03572900  0.51220300  0.26589600  1
  H  332  1  0.98900100  0.51221500  0.26557400  1
  H  333  1  0.03736300  0.61282700  0.26727800  1
  H  334  1  0.98719400  0.61281900  0.26700200  1
  H  335  1  0.94855400  0.59328700  0.22204500  1
  H  336  1  0.91544000  0.62683100  0.22202500  1
  H  337  1  0.93125300  0.57605300  0.30164600  1
  H  338  1  0.89742800  0.60888100  0.30148500  1
  H  339  1  0.91293300  0.53717200  0.25569600  1
  H  340  1  0.91299200  0.48716200  0.25556700  1
  H  341  1  0.03751500  0.41162700  0.26709100  1
  H  342  1  0.98736000  0.41161500  0.26686000  1
  H  343  1  0.93113400  0.44843600  0.30127700  1
  H  344  1  0.89773200  0.41500400  0.30112100  1
  H  345  1  0.94911100  0.43095000  0.22183500  1
  H  346  1  0.91571200  0.39750800  0.22158200  1
  H  347  1  0.90660300  0.35251900  0.24384500  1
  H  348  1  0.87359500  0.31912700  0.24414300  1
  H  349  1  0.81969800  0.37288600  0.27819300  1
  H  350  1  0.85295300  0.40596800  0.27855500  1
  H  351  1  0.07599600  0.43084900  0.22247300  1
  H  352  1  0.10904000  0.39724700  0.22255200  1
  H  353  1  0.13479300  0.36820200  0.30092400  1
  H  354  1  0.16822100  0.33519100  0.30104000  1
  H  355  1  0.18955000  0.35641200  0.22336400  1
  H  356  1  0.15662300  0.38992500  0.22343700  1
  H  357  1  0.12749100  0.41578900  0.30177700  1
  H  358  1  0.09370000  0.44865000  0.30186400  1
  H  359  1  0.89002300  0.65645300  0.30030300  1
  H  360  1  0.85650200  0.68937600  0.30034900  1
  H  361  1  0.86783400  0.63407400  0.22310700  1
  H  362  1  0.83481800  0.66750600  0.22295300  1
  H  435  1  0.82448600  0.65670400  0.73262600  1
  H  436  1  0.85706500  0.62313400  0.73338300  1
  H  437  1  0.86659100  0.69882100  0.79098700  1
  H  438  1  0.90012000  0.66620100  0.79030600  1
  H  439  1  0.90963300  0.62092700  0.80326500  1
  H  440  1  0.94337300  0.58798900  0.80309900  1
  H  441  1  0.90234800  0.61364900  0.72044100  1
  H  442  1  0.93549400  0.58011600  0.72056000  1
  H  443  1  0.91201500  0.53681600  0.76576000  1
  H  444  1  0.91193800  0.48680800  0.76589000  1
  H  445  1  0.98836300  0.51175300  0.75913700  1
  H  446  1  0.03477900  0.51203700  0.76092700  1
  H  447  1  0.98637200  0.61255900  0.75885500  1
  H  448  1  0.03654600  0.61278200  0.75888200  1
  H  449  1  0.07588900  0.59289400  0.80192000  1
  H  450  1  0.10887400  0.62653500  0.80178500  1
  H  451  1  0.09217000  0.57640100  0.72194800  1
  H  452  1  0.12598900  0.60921900  0.72198400  1
  H  453  1  0.11140800  0.53701000  0.76428500  1
  H  454  1  0.11136800  0.48705100  0.76393900  1
  H  455  1  0.98667700  0.41097300  0.75979300  1
  H  456  1  0.03680600  0.41116100  0.76032200  1
  H  457  1  0.07922200  0.43489800  0.72100000  1
  H  458  1  0.11214700  0.40126900  0.72110500  1
  H  459  1  0.08849500  0.44448600  0.80319200  1
  H  460  1  0.12245700  0.41189900  0.80326100  1
  H  461  1  0.13207900  0.36608100  0.79968800  1
  H  462  1  0.16597300  0.33411300  0.80037300  1
  H  463  1  0.19015400  0.35824000  0.72429700  1
  H  464  1  0.15802000  0.39197800  0.72483200  1
  H  465  1  0.94754200  0.43081600  0.80184900  1
  H  466  1  0.91458000  0.39714700  0.80180300  1
  H  467  1  0.88939100  0.36736300  0.72335100  1
  H  468  1  0.85597100  0.33435600  0.72325600  1
  H  469  1  0.83436400  0.35590500  0.80076000  1
  H  470  1  0.86724100  0.38945500  0.80064400  1
  H  471  1  0.89695600  0.41473000  0.72217400  1
  H  472  1  0.93073900  0.44757500  0.72204100  1
  H  473  1  0.13372100  0.65653000  0.72328800  1
  H  474  1  0.16720200  0.68947800  0.72314300  1
  H  475  1  0.15620400  0.63414100  0.80040100  1
  H  476  1  0.18913200  0.66763900  0.80047400  1
  H  549  1  0.28068800  0.20517200  0.65133200  1
  H  550  1  0.28090300  0.17183500  0.61827100  1
  H  551  1  0.24556700  0.15170400  0.70483100  1
  H  552  1  0.24510700  0.11870000  0.67151400  1
  H  553  1  0.22282500  0.10997500  0.62655900  1
  H  554  1  0.22266500  0.07638600  0.59331200  1
  H  555  1  0.30270500  0.12659600  0.60927600  1
  H  556  1  0.30244100  0.09301300  0.57601400  1
  H  557  1  0.25657500  0.11181400  0.53730200  1
  H  558  1  0.25643600  0.11187200  0.48729800  1
  H  559  1  0.26579100  0.03571600  0.51220100  1
  H  560  1  0.26559900  0.98899600  0.51221300  1
  H  561  1  0.26731200  0.03735900  0.61282100  1
  H  562  1  0.26704500  0.98719000  0.61281100  1
  H  563  1  0.22203900  0.94857300  0.59331000  1
  H  564  1  0.22202300  0.91545900  0.62685300  1
  H  565  1  0.30162100  0.93123100  0.57602600  1
  H  566  1  0.30146100  0.89740600  0.60885300  1
  H  567  1  0.25563500  0.91293900  0.53716800  1
  H  568  1  0.25551200  0.91299800  0.48715800  1
  H  569  1  0.26707900  0.03751500  0.41162500  1
  H  570  1  0.26686300  0.98736000  0.41161100  1
  H  571  1  0.30125100  0.93107700  0.44848200  1
  H  572  1  0.30109100  0.89767100  0.41505200  1
  H  573  1  0.22185300  0.94915600  0.43089700  1
  H  574  1  0.22160000  0.91575800  0.39745700  1
  H  575  1  0.24391600  0.90662000  0.35249400  1
  H  576  1  0.24421800  0.87361300  0.31909900  1
  H  577  1  0.27811400  0.81966700  0.37290700  1
  H  578  1  0.27847000  0.85292100  0.40599400  1
  H  579  1  0.22245500  0.07600100  0.43085300  1
  H  580  1  0.22253400  0.10904800  0.39725300  1
  H  581  1  0.30091400  0.13478400  0.36819600  1
  H  582  1  0.30103000  0.16821100  0.33518300  1
  H  583  1  0.22336200  0.18955500  0.35641800  1
  H  584  1  0.22343500  0.15662900  0.38993300  1
  H  585  1  0.30176700  0.12748200  0.41578700  1
  H  586  1  0.30185400  0.09369000  0.44864400  1
  H  587  1  0.30029900  0.89001100  0.65643100  1
  H  588  1  0.30035100  0.85649400  0.68935600  1
  H  589  1  0.22308500  0.86784900  0.63409400  1
  H  590  1  0.22293700  0.83483400  0.66752600  1
  H  663  1  0.73262000  0.82450000  0.65671000  1
  H  664  1  0.73337700  0.85707700  0.62314000  1
  H  665  1  0.79100100  0.86658900  0.69881500  1
  H  666  1  0.79031900  0.90011800  0.66619500  1
  H  667  1  0.80327500  0.90961500  0.62091200  1
  H  668  1  0.80311500  0.94335300  0.58797100  1
  H  669  1  0.72044300  0.90237800  0.61366700  1
  H  670  1  0.72056800  0.93552100  0.58013400  1
  H  671  1  0.76565500  0.91200700  0.53681200  1
  H  672  1  0.76579600  0.91193200  0.48680600  1
  H  673  1  0.75929500  0.98837900  0.51175100  1
  H  674  1  0.76085800  0.03478800  0.51203500  1
  H  675  1  0.75888200  0.98637400  0.61255900  1
  H  676  1  0.75889000  0.03654800  0.61278200  1
  H  677  1  0.80190600  0.07589700  0.59289200  1
  H  678  1  0.80177400  0.10888900  0.62652700  1
  H  679  1  0.72193700  0.09217600  0.57639500  1
  H  680  1  0.72197200  0.12600100  0.60920500  1
  H  681  1  0.76430000  0.11141100  0.53701200  1
  H  682  1  0.76396700  0.11137200  0.48705300  1
  H  683  1  0.75983200  0.98668500  0.41096900  1
  H  684  1  0.76034400  0.03681300  0.41115900  1
  H  685  1  0.72100400  0.07922000  0.43488900  1
  H  686  1  0.72111300  0.11213700  0.40125100  1
  H  687  1  0.80319400  0.08850500  0.44449000  1
  H  688  1  0.80326700  0.12245900  0.41189300  1
  H  689  1  0.79969600  0.13207400  0.36607500  1
  H  690  1  0.80038300  0.16596600  0.33410500  1
  H  691  1  0.72430300  0.19014200  0.35821800  1
  H  692  1  0.72483400  0.15801000  0.39195800  1
  H  693  1  0.80186600  0.94753200  0.43082800  1
  H  694  1  0.80181900  0.91457800  0.39715300  1
  H  695  1  0.72335900  0.88940500  0.36734900  1
  H  696  1  0.72326400  0.85598300  0.33434400  1
  H  697  1  0.80076000  0.83436200  0.35590900  1
  H  698  1  0.80064400  0.86723700  0.38945700  1
  H  699  1  0.72217600  0.89698100  0.41470400  1
  H  700  1  0.72204300  0.93076300  0.44755400  1
  H  701  1  0.72327800  0.13372700  0.65653000  1
  H  702  1  0.72313500  0.16720800  0.68947600  1
  H  703  1  0.80038900  0.15620900  0.63413600  1
  H  704  1  0.80046600  0.18913900  0.66763500  1
  H  777  1  0.65130600  0.28059300  0.20520800  1
  H  778  1  0.61823900  0.28080600  0.17187600  1
  H  779  1  0.70486100  0.24566600  0.15167100  1
  H  780  1  0.67154200  0.24520600  0.11866900  1
  H  781  1  0.62662800  0.22286600  0.10990400  1
  H  782  1  0.59338200  0.22270800  0.07631700  1
  H  783  1  0.60919900  0.30268300  0.12667500  1
  H  784  1  0.57594100  0.30242300  0.09309200  1
  H  785  1  0.53730400  0.25645400  0.11179900  1
  H  786  1  0.48730000  0.25630600  0.11185800  1
  H  787  1  0.51220500  0.26592900  0.03573500  1
  H  788  1  0.51221100  0.26559700  0.98899800  1
  H  789  1  0.61281900  0.26735300  0.03736000  1
  H  790  1  0.61280900  0.26707700  0.98719200  1
  H  791  1  0.59330600  0.22205200  0.94857500  1
  H  792  1  0.62684900  0.22203500  0.91546100  1
  H  793  1  0.57602600  0.30163700  0.93123100  1
  H  794  1  0.60885500  0.30147500  0.89740800  1
  H  795  1  0.53717000  0.25563100  0.91294100  1
  H  796  1  0.48715800  0.25549600  0.91300000  1
  H  797  1  0.41163700  0.26715000  0.03751800  1
  H  798  1  0.41162100  0.26692300  0.98736200  1
  H  799  1  0.44848400  0.30124600  0.93108500  1
  H  800  1  0.41505200  0.30109300  0.89768300  1
  H  801  1  0.43089300  0.22184900  0.94916000  1
  H  802  1  0.39745300  0.22160000  0.91576200  1
  H  803  1  0.35249600  0.24389800  0.90661800  1
  H  804  1  0.31910500  0.24419800  0.87361100  1
  H  805  1  0.37289700  0.27813800  0.81968100  1
  H  806  1  0.40598200  0.27849500  0.85293500  1
  H  807  1  0.43082200  0.22246500  0.07597100  1
  H  808  1  0.39722000  0.22254600  0.10901700  1
  H  809  1  0.36822400  0.30092000  0.13480400  1
  H  810  1  0.33521100  0.30104000  0.16822900  1
  H  811  1  0.35639500  0.22334600  0.18953500  1
  H  812  1  0.38991000  0.22341300  0.15660900  1
  H  813  1  0.41582200  0.30174500  0.12751700  1
  H  814  1  0.44868300  0.30183000  0.09372700  1
  H  815  1  0.65643500  0.30031100  0.89001300  1
  H  816  1  0.68936000  0.30035700  0.85649400  1
  H  817  1  0.63408200  0.22310100  0.86784700  1
  H  818  1  0.66751400  0.22294700  0.83483200  1
  H  891  1  0.65670200  0.73263000  0.82448400  1
  H  892  1  0.62313400  0.73338700  0.85706300  1
  H  893  1  0.69881700  0.79099700  0.86658300  1
  H  894  1  0.66619700  0.79031400  0.90011400  1
  H  895  1  0.62092400  0.80327100  0.90962700  1
  H  896  1  0.58798500  0.80310500  0.94336700  1
  H  897  1  0.61365100  0.72044500  0.90234800  1
  H  898  1  0.58012000  0.72056600  0.93549400  1
  H  899  1  0.53681400  0.76576200  0.91201300  1
  H  900  1  0.48680800  0.76589000  0.91193800  1
  H  901  1  0.51175500  0.75914100  0.98836100  1
  H  902  1  0.51204100  0.76092500  0.03477800  1
  H  903  1  0.61256100  0.75886100  0.98636900  1
  H  904  1  0.61278400  0.75888800  0.03654200  1
  H  905  1  0.59289800  0.80192200  0.07588700  1
  H  906  1  0.62653700  0.80178700  0.10887300  1
  H  907  1  0.57640500  0.72195000  0.09216600  1
  H  908  1  0.60922100  0.72198600  0.12598600  1
  H  909  1  0.53701600  0.76428800  0.11140600  1
  H  910  1  0.48705700  0.76394100  0.11136800  1
  H  911  1  0.41097300  0.75978900  0.98667900  1
  H  912  1  0.41116500  0.76031600  0.03680900  1
  H  913  1  0.43491600  0.72099400  0.07923500  1
  H  914  1  0.40129100  0.72109900  0.11216400  1
  H  915  1  0.44447600  0.80319200  0.08848300  1
  H  916  1  0.41189300  0.80326100  0.12244800  1
  H  917  1  0.36607900  0.79967600  0.13207400  1
  H  918  1  0.33411500  0.80036300  0.16597000  1
  H  919  1  0.35826100  0.72430100  0.19017200  1
  H  920  1  0.39199900  0.72483600  0.15803600  1
  H  921  1  0.43081600  0.80185100  0.94754200  1
  H  922  1  0.39714700  0.80180300  0.91458000  1
  H  923  1  0.36736300  0.72335100  0.88939500  1
  H  924  1  0.33435400  0.72325600  0.85597500  1
  H  925  1  0.35590300  0.80075800  0.83436400  1
  H  926  1  0.38945500  0.80064400  0.86724100  1
  H  927  1  0.41473000  0.72217200  0.89695800  1
  H  928  1  0.44757500  0.72204100  0.93074100  1
  H  929  1  0.65653200  0.72329000  0.13371800  1
  H  930  1  0.68948000  0.72314300  0.16720000  1
  H  931  1  0.63414300  0.80040100  0.15620400  1
  H  932  1  0.66764100  0.80047400  0.18913300  1
  C  2  1  0.24236700  0.28217900  0.26224500  1
  C  3  1  0.28217900  0.26224400  0.24236300  1
  C  4  1  0.26224500  0.24236500  0.28217900  1
  C  5  1  0.24115200  0.22424700  0.28428100  1
  C  6  1  0.24102200  0.20473000  0.30415100  1
  C  7  1  0.26221600  0.20234600  0.32228300  1
  C  8  1  0.28341900  0.22046200  0.31987900  1
  C  9  1  0.28332300  0.24028500  0.30031500  1
  C  10  1  0.22424700  0.28428100  0.24115400  1
  C  11  1  0.20472800  0.30414900  0.24102800  1
  C  12  1  0.20234800  0.32228300  0.26221800  1
  C  13  1  0.22047000  0.31988300  0.28341900  1
  C  14  1  0.24029100  0.30031700  0.28332300  1
  C  15  1  0.30031900  0.28331900  0.24028700  1
  C  16  1  0.31988100  0.28341600  0.22046200  1
  C  17  1  0.32228100  0.26221400  0.20234200  1
  C  18  1  0.30413500  0.24103000  0.20471600  1
  C  19  1  0.28427500  0.24115400  0.22424300  1
  C  33  1  0.78199800  0.74189400  0.26158600  1
  C  34  1  0.74215600  0.76178200  0.24167200  1
  C  35  1  0.76204700  0.78169000  0.28150000  1
  C  36  1  0.78314000  0.79980400  0.28363500  1
  C  37  1  0.78324400  0.81932300  0.30350500  1
  C  38  1  0.76201900  0.82172100  0.32159800  1
  C  39  1  0.74080900  0.80361600  0.31915500  1
  C  40  1  0.74093800  0.78378600  0.29959800  1
  C  41  1  0.80006700  0.73974300  0.24045300  1
  C  42  1  0.81964100  0.71992600  0.24036000  1
  C  43  1  0.82212800  0.70188800  0.26162100  1
  C  44  1  0.80406100  0.70433600  0.28286200  1
  C  45  1  0.78418300  0.72384700  0.28273200  1
  C  46  1  0.72409100  0.74064700  0.23951500  1
  C  47  1  0.70454500  0.74053700  0.21967200  1
  C  48  1  0.70207000  0.76179600  0.20162900  1
  C  49  1  0.72013100  0.78304100  0.20408400  1
  C  50  1  0.73998800  0.78292000  0.22361500  1
  C  64  1  0.78169000  0.28149800  0.76204900  1
  C  65  1  0.74189400  0.26158400  0.78200400  1
  C  66  1  0.76177800  0.24167200  0.74215800  1
  C  67  1  0.78291600  0.22361300  0.73998600  1
  C  68  1  0.78303100  0.20408600  0.72012300  1
  C  69  1  0.76178600  0.20163700  0.70206400  1
  C  70  1  0.74052900  0.21968200  0.70454500  1
  C  71  1  0.74064200  0.23951900  0.72409700  1
  C  72  1  0.79980600  0.28363900  0.78314000  1
  C  73  1  0.81933100  0.30350100  0.78323200  1
  C  74  1  0.82171500  0.32160400  0.76201300  1
  C  75  1  0.80360500  0.31916000  0.74080900  1
  C  76  1  0.78378000  0.29959600  0.74093800  1
  C  77  1  0.72384500  0.28272800  0.78418500  1
  C  78  1  0.70434400  0.28286600  0.80406900  1
  C  79  1  0.70188600  0.26162300  0.82213200  1
  C  80  1  0.71992200  0.24035800  0.81964300  1
  C  81  1  0.73974500  0.24045500  0.80007500  1
  C  95  1  0.24166800  0.74216000  0.76178200  1
  C  96  1  0.28149600  0.76204700  0.78169400  1
  C  97  1  0.26158200  0.78200400  0.74189800  1
  C  98  1  0.24045300  0.80007700  0.73975100  1
  C  99  1  0.24035800  0.81964700  0.71993200  1
  C  100  1  0.26161900  0.82213200  0.70189000  1
  C  101  1  0.28286200  0.80407100  0.70434600  1
  C  102  1  0.28272600  0.78418500  0.72384800  1
  C  103  1  0.22361100  0.73999000  0.78292200  1
  C  104  1  0.20408800  0.72012500  0.78304500  1
  C  105  1  0.20163100  0.70206800  0.76179600  1
  C  106  1  0.21967600  0.70454300  0.74054100  1
  C  107  1  0.23951300  0.72409500  0.74064700  1
  C  108  1  0.29959400  0.74093600  0.78378400  1
  C  109  1  0.31915100  0.74080200  0.80361600  1
  C  110  1  0.32160200  0.76201100  0.82171700  1
  C  111  1  0.30350300  0.78323400  0.81933100  1
  C  112  1  0.28363500  0.78313800  0.79981000  1
  C  126  1  0.78158500  0.74181100  0.76172700  1
  C  127  1  0.74180900  0.76173100  0.78158100  1
  C  128  1  0.76173300  0.78158700  0.74180700  1
  C  129  1  0.75846600  0.77491100  0.71495800  1
  C  130  1  0.75867900  0.79458200  0.69526400  1
  C  131  1  0.76178000  0.82171500  0.70162800  1
  C  132  1  0.76486300  0.82811100  0.72875500  1
  C  133  1  0.76502700  0.80844200  0.74845300  1
  C  134  1  0.77490700  0.71496200  0.75845400  1
  C  135  1  0.79457600  0.69526600  0.75866700  1
  C  136  1  0.82170900  0.70162800  0.76177400  1
  C  137  1  0.82810900  0.72875700  0.76484700  1
  C  138  1  0.80844000  0.74845500  0.76501700  1
  C  139  1  0.74845300  0.76502100  0.80843600  1
  C  140  1  0.72875500  0.76485100  0.82810500  1
  C  141  1  0.70162800  0.76177800  0.82170500  1
  C  142  1  0.69526600  0.75866900  0.79457200  1
  C  143  1  0.71496000  0.75846000  0.77490300  1
  C  157  1  0.24246000  0.28194800  0.76241200  1
  C  158  1  0.28194600  0.26194700  0.78260000  1
  C  159  1  0.26244900  0.24244400  0.74221800  1
  C  160  1  0.24149400  0.22421300  0.73982600  1
  C  161  1  0.24163400  0.20475000  0.71994200  1
  C  162  1  0.26292700  0.20235000  0.70187500  1
  C  163  1  0.28395900  0.22070100  0.70460200  1
  C  164  1  0.28367200  0.24044500  0.72426500  1
  C  165  1  0.24622300  0.30592100  0.74876500  1
  C  166  1  0.22664700  0.32571400  0.74908100  1
  C  167  1  0.20218600  0.32213700  0.76237800  1
  C  168  1  0.19865200  0.29768400  0.77569900  1
  C  169  1  0.21848700  0.27815400  0.77604900  1
  C  170  1  0.30032100  0.28279100  0.78485600  1
  C  171  1  0.31981200  0.28262000  0.80471500  1
  C  172  1  0.32206400  0.26141600  0.82290400  1
  C  173  1  0.30355300  0.24050700  0.82032800  1
  C  174  1  0.28380500  0.24081300  0.80067100  1
  C  188  1  0.24245200  0.74221000  0.26245300  1
  C  189  1  0.28195800  0.76240800  0.24246800  1
  C  190  1  0.26195300  0.78259400  0.28194800  1
  C  191  1  0.24081900  0.80066700  0.28380100  1
  C  192  1  0.24051400  0.82033400  0.30354300  1
  C  193  1  0.26141400  0.82289800  0.32206800  1
  C  194  1  0.28261200  0.80470300  0.31982400  1
  C  195  1  0.28278900  0.78484600  0.30033100  1
  C  196  1  0.22423900  0.73979800  0.24148600  1
  C  197  1  0.20477300  0.71991600  0.24163000  1
  C  198  1  0.20235400  0.70186700  0.26293900  1
  C  199  1  0.22069000  0.70461600  0.28398200  1
  C  200  1  0.24043400  0.72427900  0.28369400  1
  C  201  1  0.27816200  0.77604300  0.21849300  1
  C  202  1  0.29769400  0.77568900  0.19865800  1
  C  203  1  0.32215100  0.76237600  0.20219600  1
  C  204  1  0.32573000  0.74908900  0.22666100  1
  C  205  1  0.30593700  0.74877300  0.24623700  1
  C  219  1  0.78260200  0.28194600  0.26193700  1
  C  220  1  0.74222400  0.26244300  0.24243800  1
  C  221  1  0.76242200  0.24245200  0.28193400  1
  C  222  1  0.74877700  0.24621300  0.30590700  1
  C  223  1  0.74909300  0.22663700  0.32570000  1
  C  224  1  0.76238600  0.20217600  0.32212100  1
  C  225  1  0.77570900  0.19864400  0.29767000  1
  C  226  1  0.77605300  0.21847700  0.27813600  1
  C  227  1  0.80065600  0.28382600  0.24079100  1
  C  228  1  0.82031700  0.30357400  0.24048900  1
  C  229  1  0.82290200  0.32207200  0.26141000  1
  C  230  1  0.80471700  0.31980800  0.28261800  1
  C  231  1  0.78486800  0.30030700  0.28279100  1
  C  232  1  0.72425100  0.28365300  0.24046300  1
  C  233  1  0.70458300  0.28393900  0.22072300  1
  C  234  1  0.70187700  0.26292500  0.20234800  1
  C  235  1  0.71996900  0.24165200  0.20471600  1
  C  236  1  0.73985300  0.24150800  0.22418200  1
  C  249  1  0.09525000  0.52591700  0.25847900  1
  C  250  1  0.09528200  0.49863800  0.25838400  1
  C  251  1  0.06925700  0.48988200  0.26119700  1
  C  253  1  0.06920100  0.53459800  0.26132300  1
  C  254  1  0.06127300  0.56160300  0.26248300  1
  C  255  1  0.03451000  0.57015500  0.26330200  1
  C  257  1  0.99011000  0.57015100  0.26306300  1
  C  258  1  0.99865400  0.59627700  0.26542400  1
  C  259  1  0.02593000  0.59628100  0.26556800  1
  C  260  1  0.96336200  0.56158700  0.26197100  1
  C  261  1  0.95551000  0.53456200  0.26075200  1
  C  263  1  0.95556400  0.48983800  0.26065200  1
  C  264  1  0.92954000  0.49853900  0.25763500  1
  C  265  1  0.92950500  0.52582000  0.25770700  1
  C  266  1  0.96348400  0.46283000  0.26177300  1
  C  267  1  0.99024200  0.45428500  0.26286600  1
  C  269  1  0.03464000  0.45429300  0.26307300  1
  C  270  1  0.02607600  0.42816700  0.26534700  1
  C  271  1  0.99880200  0.42816100  0.26522200  1
  C  272  1  0.06139900  0.46285100  0.26223200  1
  C  273  1  0.08161300  0.44298100  0.26216600  1
  C  274  1  0.09686300  0.43796400  0.28499200  1
  C  275  1  0.11663200  0.41834600  0.28493200  1
  C  276  1  0.12192800  0.40288300  0.26216300  1
  C  277  1  0.10647500  0.40813500  0.23937500  1
  C  278  1  0.08674800  0.42779200  0.23932100  1
  C  279  1  0.14205500  0.38274200  0.26218200  1
  C  280  1  0.15842800  0.37833100  0.23988400  1
  C  281  1  0.17801200  0.35852400  0.23982900  1
  C  282  1  0.18234500  0.34233700  0.26220600  1
  C  283  1  0.16615900  0.34673000  0.28456900  1
  C  284  1  0.14640900  0.36637100  0.28449400  1
  C  285  1  0.94331700  0.44293000  0.26156800  1
  C  286  1  0.92796000  0.43787700  0.28432800  1
  C  287  1  0.90819100  0.41826700  0.28413400  1
  C  288  1  0.90326700  0.40279800  0.26132900  1
  C  289  1  0.91882700  0.40790800  0.23863200  1
  C  290  1  0.93839900  0.42771700  0.23867600  1
  C  291  1  0.88326200  0.38272800  0.26122000  1
  C  292  1  0.85770300  0.38766800  0.27139800  1
  C  293  1  0.83801800  0.36797500  0.27123900  1
  C  294  1  0.84297000  0.34228800  0.26119900  1
  C  295  1  0.86863600  0.33744500  0.25107800  1
  C  296  1  0.88826500  0.35721000  0.25094500  1
  C  297  1  0.94314400  0.58144900  0.26185400  1
  C  298  1  0.93788200  0.59646300  0.23892200  1
  C  299  1  0.91811800  0.61608600  0.23892200  1
  C  300  1  0.90277100  0.62149600  0.26174600  1
  C  301  1  0.90821800  0.60622400  0.28461200  1
  C  302  1  0.92800000  0.58661700  0.28471500  1
  C  303  1  0.88259800  0.64159800  0.26171200  1
  C  304  1  0.87832200  0.65813400  0.28391700  1
  C  305  1  0.85850900  0.67771400  0.28395700  1
  C  306  1  0.84219200  0.68189400  0.26164700  1
  C  307  1  0.84645400  0.66555300  0.23937100  1
  C  308  1  0.86609500  0.64580100  0.23947000  1
  C  309  1  0.08146400  0.58147500  0.26256300  1
  C  310  1  0.08686700  0.59652600  0.23967900  1
  C  311  1  0.09647200  0.58653600  0.28555500  1
  C  312  1  0.11636000  0.60602900  0.28560800  1
  C  313  1  0.12176000  0.62135200  0.26281400  1
  C  314  1  0.10655900  0.61621100  0.23987600  1
  C  315  1  0.14179900  0.64138600  0.26297400  1
  C  316  1  0.13694800  0.66683300  0.25247400  1
  C  317  1  0.15659600  0.68655700  0.25269500  1
  C  318  1  0.18216400  0.68176300  0.26311300  1
  C  319  1  0.18691700  0.65620800  0.27356100  1
  C  320  1  0.16718500  0.63654500  0.27364200  1
  C  363  1  0.92861600  0.52541500  0.76433400  1
  C  364  1  0.92857900  0.49813600  0.76439300  1
  C  365  1  0.95467900  0.48936800  0.76238400  1
  C  367  1  0.95475200  0.53408800  0.76241800  1
  C  368  1  0.96274900  0.56107700  0.76177400  1
  C  369  1  0.98945400  0.56979000  0.76128200  1
  C  371  1  0.03384800  0.56998900  0.76147000  1
  C  372  1  0.02517700  0.59614100  0.76000200  1
  C  373  1  0.99790000  0.59602200  0.75992900  1
  C  374  1  0.06063300  0.56147400  0.76197000  1
  C  375  1  0.06855700  0.53444200  0.76250500  1
  C  377  1  0.06850400  0.48970200  0.76258000  1
  C  378  1  0.09468700  0.49841100  0.76347100  1
  C  379  1  0.09471100  0.52568800  0.76361300  1
  C  380  1  0.06050000  0.46270100  0.76204300  1
  C  381  1  0.03377900  0.45399900  0.76151300  1
  C  383  1  0.98936900  0.45381500  0.76141300  1
  C  384  1  0.99803800  0.42764000  0.76047000  1
  C  385  1  0.02530900  0.42774600  0.76072900  1
  C  386  1  0.96258100  0.46233400  0.76182900  1
  C  387  1  0.94238900  0.44243200  0.76194200  1
  C  388  1  0.92740500  0.43709500  0.73900800  1
  C  389  1  0.90763400  0.41747900  0.73910100  1
  C  390  1  0.90209900  0.40227400  0.76199100  1
  C  391  1  0.91731000  0.40782700  0.78487400  1
  C  392  1  0.93698300  0.42754100  0.78491900  1
  C  393  1  0.88198200  0.38210600  0.76199100  1
  C  394  1  0.86551900  0.37778400  0.78424400  1
  C  395  1  0.84595500  0.35795300  0.78432500  1
  C  396  1  0.84170800  0.34166800  0.76200700  1
  C  397  1  0.85795600  0.34598400  0.73967600  1
  C  398  1  0.87771600  0.36561900  0.73974700  1
  C  399  1  0.08067500  0.44287200  0.76208400  1
  C  400  1  0.08822200  0.43011300  0.73846300  1
  C  401  1  0.10790000  0.41042400  0.73859900  1
  C  402  1  0.12104700  0.40287500  0.76219300  1
  C  403  1  0.11331200  0.41601600  0.78573300  1
  C  404  1  0.09344400  0.43551300  0.78575900  1
  C  405  1  0.14127000  0.38278700  0.76225000  1
  C  406  1  0.15895300  0.37961300  0.74077800  1
  C  407  1  0.17855300  0.35983900  0.74074400  1
  C  408  1  0.18194600  0.34231000  0.76234300  1
  C  409  1  0.16435500  0.34567100  0.78389800  1
  C  410  1  0.14448000  0.36516800  0.78377000  1
  C  411  1  0.08080100  0.58139800  0.76194600  1
  C  412  1  0.08633900  0.59622600  0.78493300  1
  C  413  1  0.10603500  0.61591400  0.78483600  1
  C  414  1  0.12111800  0.62152600  0.76188300  1
  C  415  1  0.11540800  0.60642400  0.73896700  1
  C  416  1  0.09561600  0.58682800  0.73892700  1
  C  417  1  0.14127600  0.64165500  0.76184900  1
  C  418  1  0.14546600  0.65821100  0.73964000  1
  C  419  1  0.16525100  0.67781900  0.73954300  1
  C  420  1  0.18161800  0.68202600  0.76181000  1
  C  421  1  0.17744200  0.66568100  0.78409800  1
  C  422  1  0.15785400  0.64587600  0.78403600  1
  C  423  1  0.94258500  0.58088800  0.76183100  1
  C  424  1  0.93477900  0.59326500  0.78557300  1
  C  425  1  0.93013100  0.58861900  0.73810500  1
  C  426  1  0.91041700  0.60827200  0.73816500  1
  C  427  1  0.90235400  0.62089800  0.76185500  1
  C  428  1  0.91501500  0.61286900  0.78553800  1
  C  429  1  0.88224300  0.64100500  0.76185100  1
  C  430  1  0.88408400  0.66357800  0.77829600  1
  C  431  1  0.86438100  0.68324900  0.77830800  1
  C  432  1  0.84183000  0.68147700  0.76180200  1
  C  433  1  0.84004700  0.65890800  0.74531900  1
  C  434  1  0.85968600  0.63917400  0.74538600  1
  C  477  1  0.25848500  0.09525400  0.52591700  1
  C  478  1  0.25840400  0.09528500  0.49863600  1
  C  479  1  0.26119700  0.06925700  0.48988000  1
  C  481  1  0.26131300  0.06920300  0.53460000  1
  C  482  1  0.26245500  0.06127300  0.56160500  1
  C  483  1  0.26327900  0.03450900  0.57015500  1
  C  485  1  0.26304700  0.99010800  0.57014900  1
  C  486  1  0.26540200  0.99865000  0.59627500  1
  C  487  1  0.26554800  0.02592700  0.59627900  1
  C  488  1  0.26195300  0.96336000  0.56158300  1
  C  489  1  0.26073100  0.95551000  0.53455800  1
  C  491  1  0.26064400  0.95556400  0.48983400  1
  C  492  1  0.25760800  0.92954000  0.49853500  1
  C  493  1  0.25766300  0.92950900  0.52581600  1
  C  494  1  0.26177100  0.96348200  0.46282600  1
  C  495  1  0.26286200  0.99024000  0.45428300  1
  C  497  1  0.26305900  0.03463700  0.45429100  1
  C  498  1  0.26535200  0.02607500  0.42816500  1
  C  499  1  0.26523000  0.99880200  0.42815900  1
  C  500  1  0.26221600  0.06139600  0.46285100  1
  C  501  1  0.26215300  0.08160900  0.44297900  1
  C  502  1  0.28498200  0.09685200  0.43795600  1
  C  503  1  0.28492500  0.11661800  0.41833500  1
  C  504  1  0.26215300  0.12192200  0.40287900  1
  C  505  1  0.23936700  0.10646600  0.40812700  1
  C  506  1  0.23930800  0.08674800  0.42779400  1
  C  507  1  0.26217200  0.14205000  0.38273800  1
  C  508  1  0.23987500  0.15842200  0.37832500  1
  C  509  1  0.23982500  0.17801200  0.35852600  1
  C  510  1  0.26220000  0.18234200  0.34233700  1
  C  511  1  0.28456300  0.16615500  0.34673000  1
  C  512  1  0.28448400  0.14639900  0.36636500  1
  C  513  1  0.26156400  0.94331300  0.44292400  1
  C  514  1  0.28431200  0.92792700  0.43790100  1
  C  515  1  0.28411500  0.90815100  0.41829700  1
  C  516  1  0.26132500  0.90326100  0.40279600  1
  C  517  1  0.23864400  0.91885500  0.40787200  1
  C  518  1  0.23868500  0.93842300  0.42768500  1
  C  519  1  0.26121400  0.88325600  0.38272600  1
  C  520  1  0.27135100  0.85768100  0.38768000  1
  C  521  1  0.27118900  0.83799600  0.36798900  1
  C  522  1  0.26119300  0.84296400  0.34228800  1
  C  523  1  0.25110500  0.86864200  0.33743100  1
  C  524  1  0.25098300  0.88827300  0.35719300  1
  C  525  1  0.26183500  0.94314200  0.58144500  1
  C  526  1  0.23891100  0.93788800  0.59647100  1
  C  527  1  0.23891500  0.91812800  0.61610000  1
  C  528  1  0.26173200  0.90276700  0.62149000  1
  C  529  1  0.28458700  0.90819500  0.60619700  1
  C  530  1  0.28469300  0.92798400  0.58659700  1
  C  531  1  0.26170200  0.88259400  0.64159200  1
  C  532  1  0.28391700  0.87830600  0.65811000  1
  C  533  1  0.28395900  0.85849500  0.67769200  1
  C  534  1  0.26164100  0.84219200  0.68189200  1
  C  535  1  0.23935700  0.84646400  0.66556500  1
  C  536  1  0.23945600  0.86609900  0.64580700  1
  C  537  1  0.26253800  0.08146300  0.58147700  1
  C  538  1  0.23966500  0.08683600  0.59656200  1
  C  539  1  0.28551500  0.09650100  0.58651200  1
  C  540  1  0.28556700  0.11639300  0.60599900  1
  C  541  1  0.26279100  0.12175900  0.62135800  1
  C  542  1  0.23986700  0.10652400  0.61625200  1
  C  543  1  0.26295100  0.14179900  0.64139000  1
  C  544  1  0.25249400  0.13693300  0.66685300  1
  C  545  1  0.25273100  0.15657700  0.68658300  1
  C  546  1  0.26309900  0.18216100  0.68176900  1
  C  547  1  0.27349600  0.18693200  0.65619800  1
  C  548  1  0.27356700  0.16720300  0.63653100  1
  C  591  1  0.76427500  0.92861400  0.52541300  1
  C  592  1  0.76429600  0.92857500  0.49813200  1
  C  593  1  0.76236300  0.95467900  0.48936400  1
  C  595  1  0.76239800  0.95475200  0.53408800  1
  C  596  1  0.76179000  0.96275100  0.56107500  1
  C  597  1  0.76129800  0.98945800  0.56979000  1
  C  599  1  0.76145800  0.03385200  0.56998900  1
  C  600  1  0.75998700  0.02517900  0.59614100  1
  C  601  1  0.75995100  0.99790200  0.59602200  1
  C  602  1  0.76195600  0.06063600  0.56147400  1
  C  603  1  0.76251500  0.06856100  0.53444200  1
  C  605  1  0.76260600  0.06850800  0.48970200  1
  C  606  1  0.76350800  0.09469100  0.49841100  1
  C  607  1  0.76365200  0.09471400  0.52568800  1
  C  608  1  0.76204300  0.06050600  0.46269900  1
  C  609  1  0.76150700  0.03378500  0.45399700  1
  C  611  1  0.76142800  0.98937300  0.45381100  1
  C  612  1  0.76049000  0.99804400  0.42763800  1
  C  613  1  0.76074100  0.02531600  0.42774400  1
  C  614  1  0.76184100  0.96258700  0.46233000  1
  C  615  1  0.76195000  0.94239500  0.44242600  1
  C  616  1  0.73901400  0.92742100  0.43707900  1
  C  617  1  0.73910500  0.90765100  0.41746200  1
  C  618  1  0.76199900  0.90211100  0.40226200  1
  C  619  1  0.78488600  0.91731400  0.40782500  1
  C  620  1  0.78493100  0.93698500  0.42754100  1
  C  621  1  0.76200100  0.88199800  0.38209200  1
  C  622  1  0.78425400  0.86553700  0.37776600  1
  C  623  1  0.78433300  0.84597000  0.35793900  1
  C  624  1  0.76201300  0.84172000  0.34165600  1
  C  625  1  0.73968800  0.85797900  0.34596200  1
  C  626  1  0.73976100  0.87773900  0.36559500  1
  C  627  1  0.76208600  0.08068200  0.44287200  1
  C  628  1  0.73846900  0.08822100  0.43010300  1
  C  629  1  0.73860300  0.10790000  0.41041800  1
  C  630  1  0.76219900  0.12104700  0.40286900  1
  C  631  1  0.78573500  0.11332200  0.41602000  1
  C  632  1  0.78576300  0.09345100  0.43551500  1
  C  633  1  0.76225600  0.14126500  0.38277500  1
  C  634  1  0.74078800  0.15895000  0.37960300  1
  C  635  1  0.74075000  0.17854500  0.35982400  1
  C  636  1  0.76235100  0.18193600  0.34229400  1
  C  637  1  0.78390200  0.16434100  0.34565400  1
  C  638  1  0.78377800  0.14447500  0.36516100  1
  C  639  1  0.76193200  0.08080400  0.58139800  1
  C  640  1  0.78491700  0.08634200  0.59622800  1
  C  641  1  0.78481900  0.10603500  0.61592000  1
  C  642  1  0.76186700  0.12112500  0.62152200  1
  C  643  1  0.73894900  0.11540900  0.60642400  1
  C  644  1  0.73891100  0.09562000  0.58682600  1
  C  645  1  0.76183300  0.14129100  0.64164100  1
  C  646  1  0.73962000  0.14548900  0.65819100  1
  C  647  1  0.73952800  0.16527200  0.67780100  1
  C  648  1  0.76179600  0.18163200  0.68201400  1
  C  649  1  0.78408000  0.17746100  0.66566300  1
  C  650  1  0.78401900  0.15787400  0.64585800  1
  C  651  1  0.76184300  0.94258900  0.58088600  1
  C  652  1  0.78558700  0.93476700  0.59325300  1
  C  653  1  0.73811300  0.93014700  0.58862700  1
  C  654  1  0.73817300  0.91042500  0.60827000  1
  C  655  1  0.76186100  0.90236000  0.62089800  1
  C  656  1  0.78554500  0.91501500  0.61286700  1
  C  657  1  0.76185500  0.88225100  0.64100700  1
  C  658  1  0.77830400  0.88408500  0.66357600  1
  C  659  1  0.77831400  0.86438500  0.68324900  1
  C  660  1  0.76180400  0.84183800  0.68147900  1
  C  661  1  0.74531500  0.84005900  0.65891400  1
  C  662  1  0.74537600  0.85970200  0.63918400  1
  C  705  1  0.52591700  0.25839200  0.09524200  1
  C  706  1  0.49863800  0.25829900  0.09527400  1
  C  707  1  0.48988200  0.26115700  0.06925400  1
  C  709  1  0.53460000  0.26128800  0.06919800  1
  C  710  1  0.56160300  0.26247100  0.06127400  1
  C  711  1  0.57015300  0.26331200  0.03451100  1
  C  713  1  0.57014500  0.26307700  0.99011000  1
  C  714  1  0.59626900  0.26547500  0.99865200  1
  C  715  1  0.59627500  0.26561900  0.02592800  1
  C  716  1  0.56158300  0.26196900  0.96336200  1
  C  717  1  0.53455800  0.26072900  0.95551200  1
  C  719  1  0.48983600  0.26062600  0.95556500  1
  C  720  1  0.49853500  0.25758000  0.92954600  1
  C  721  1  0.52581800  0.25765300  0.92951100  1
  C  722  1  0.46282800  0.26176400  0.96348600  1
  C  723  1  0.45428500  0.26286600  0.99024200  1
  C  725  1  0.45429500  0.26306500  0.03464000  1
  C  726  1  0.42816900  0.26536200  0.02607800  1
  C  727  1  0.42816500  0.26525400  0.99880400  1
  C  728  1  0.46285300  0.26221000  0.06139800  1
  C  729  1  0.44298500  0.26214500  0.08161300  1
  C  730  1  0.43798600  0.28496400  0.09687900  1
  C  731  1  0.41836600  0.28490700  0.11664800  1
  C  732  1  0.40288700  0.26214500  0.12192900  1
  C  733  1  0.40812100  0.23936300  0.10646200  1
  C  734  1  0.42777800  0.23931000  0.08673400  1
  C  735  1  0.38274400  0.26216800  0.14205500  1
  C  736  1  0.37832100  0.23986700  0.15841900  1
  C  737  1  0.35851400  0.23981500  0.17800300  1
  C  738  1  0.34233700  0.26219800  0.18234100  1
  C  739  1  0.34674200  0.28456500  0.16616300  1
  C  740  1  0.36638500  0.28448600  0.14641500  1
  C  741  1  0.44292600  0.26155800  0.94331700  1
  C  742  1  0.43790500  0.28430600  0.92793100  1
  C  743  1  0.41829300  0.28411500  0.90816100  1
  C  744  1  0.40279400  0.26132300  0.90326700  1
  C  745  1  0.40787400  0.23864000  0.91885500  1
  C  746  1  0.42768300  0.23868000  0.93842700  1
  C  747  1  0.38272400  0.26121600  0.88326200  1
  C  748  1  0.38767400  0.27136300  0.85769100  1
  C  749  1  0.36798100  0.27120500  0.83800800  1
  C  750  1  0.34228400  0.26119900  0.84297000  1
  C  751  1  0.33742700  0.25110700  0.86864500  1
  C  752  1  0.35719500  0.25097300  0.88827500  1
  C  753  1  0.58144500  0.26185200  0.94314400  1
  C  754  1  0.59647100  0.23892800  0.93789500  1
  C  755  1  0.61609400  0.23892800  0.91813000  1
  C  756  1  0.62149000  0.26174600  0.90277100  1
  C  757  1  0.60620600  0.28460700  0.90820600  1
  C  758  1  0.58659900  0.28470900  0.92798800  1
  C  759  1  0.64159400  0.26171400  0.88260000  1
  C  760  1  0.65812200  0.28392100  0.87831800  1
  C  761  1  0.67770400  0.28396100  0.85850500  1
  C  762  1  0.68189000  0.26164900  0.84219400  1
  C  763  1  0.66555700  0.23936900  0.84646200  1
  C  764  1  0.64580300  0.23946600  0.86610500  1
  C  765  1  0.58147700  0.26255200  0.08146600  1
  C  766  1  0.59660100  0.23969700  0.08679700  1
  C  767  1  0.58646600  0.28550900  0.09654800  1
  C  768  1  0.60596000  0.28556100  0.11643700  1
  C  769  1  0.62135600  0.26280100  0.12176300  1
  C  770  1  0.61628800  0.23989400  0.10648900  1
  C  771  1  0.64139000  0.26295900  0.14180100  1
  C  772  1  0.66687000  0.25255700  0.13691300  1
  C  773  1  0.68659600  0.25277800  0.15656100  1
  C  774  1  0.68177100  0.26310100  0.18216100  1
  C  775  1  0.65618300  0.27344900  0.18695200  1
  C  776  1  0.63651600  0.27352800  0.16722300  1
  C  819  1  0.52541500  0.76433600  0.92861600  1
  C  820  1  0.49813400  0.76439500  0.92857900  1
  C  821  1  0.48936800  0.76238400  0.95467900  1
  C  823  1  0.53408800  0.76242200  0.95475000  1
  C  824  1  0.56107700  0.76177800  0.96274700  1
  C  825  1  0.56979200  0.76128600  0.98945200  1
  C  827  1  0.56999100  0.76147400  0.03384600  1
  C  828  1  0.59614500  0.76000600  0.02517300  1
  C  829  1  0.59602400  0.75993300  0.99789800  1
  C  830  1  0.56147800  0.76197200  0.06063000  1
  C  831  1  0.53444600  0.76250500  0.06855500  1
  C  833  1  0.48970600  0.76258000  0.06850400  1
  C  834  1  0.49841500  0.76347300  0.09468600  1
  C  835  1  0.52569200  0.76361500  0.09471000  1
  C  836  1  0.46270300  0.76204100  0.06050100  1
  C  837  1  0.45400100  0.76151100  0.03378000  1
  C  839  1  0.45381500  0.76141100  0.98936900  1
  C  840  1  0.42764200  0.76046800  0.99804000  1
  C  841  1  0.42775000  0.76072300  0.02531100  1
  C  842  1  0.46233400  0.76182900  0.96258300  1
  C  843  1  0.44243200  0.76194200  0.94239100  1
  C  844  1  0.43709500  0.73900800  0.92740700  1
  C  845  1  0.41747900  0.73910100  0.90763600  1
  C  846  1  0.40227400  0.76199100  0.90210100  1
  C  847  1  0.40782700  0.78487400  0.91731000  1
  C  848  1  0.42754100  0.78491900  0.93698300  1
  C  849  1  0.38210600  0.76199100  0.88198400  1
  C  850  1  0.37778200  0.78424200  0.86551900  1
  C  851  1  0.35795300  0.78432300  0.84595600  1
  C  852  1  0.34166800  0.76200500  0.84171000  1
  C  853  1  0.34598200  0.73967400  0.85796000  1
  C  854  1  0.36561700  0.73974500  0.87771700  1
  C  855  1  0.44287800  0.76208200  0.08067600  1
  C  856  1  0.43012800  0.73845900  0.08823500  1
  C  857  1  0.41044000  0.73859300  0.10791200  1
  C  858  1  0.40288300  0.76218900  0.12105100  1
  C  859  1  0.41601600  0.78573100  0.11330800  1
  C  860  1  0.43551100  0.78575900  0.09343800  1
  C  861  1  0.38279500  0.76224600  0.14127600  1
  C  862  1  0.37963100  0.74078000  0.15896500  1
  C  863  1  0.35985700  0.74074400  0.17856700  1
  C  864  1  0.34232200  0.76233900  0.18195500  1
  C  865  1  0.34567500  0.78389000  0.16435700  1
  C  866  1  0.36517200  0.78376000  0.14448100  1
  C  867  1  0.58140200  0.76194800  0.08079800  1
  C  868  1  0.59622800  0.78493500  0.08633700  1
  C  869  1  0.61591600  0.78483800  0.10603400  1
  C  870  1  0.62152800  0.76188500  0.12111600  1
  C  871  1  0.60642800  0.73896900  0.11540600  1
  C  872  1  0.58683200  0.73892900  0.09561300  1
  C  873  1  0.64165700  0.76185100  0.14127500  1
  C  874  1  0.65821300  0.73964200  0.14546300  1
  C  875  1  0.67782100  0.73954500  0.16524900  1
  C  876  1  0.68202600  0.76181000  0.18161700  1
  C  877  1  0.66568300  0.78409800  0.17744200  1
  C  878  1  0.64587800  0.78403800  0.15785400  1
  C  879  1  0.58088800  0.76183500  0.94258100  1
  C  880  1  0.59326300  0.78557900  0.93477300  1
  C  881  1  0.58862100  0.73810900  0.93012900  1
  C  882  1  0.60827200  0.73817100  0.91041500  1
  C  883  1  0.62089600  0.76186100  0.90235000  1
  C  884  1  0.61286500  0.78554300  0.91500900  1
  C  885  1  0.64100300  0.76185900  0.88223900  1
  C  886  1  0.66357600  0.77830400  0.88407800  1
  C  887  1  0.68324700  0.77831800  0.86437500  1
  C  888  1  0.68147500  0.76180800  0.84182400  1
  C  889  1  0.65890600  0.74532500  0.84004300  1
  C  890  1  0.63917400  0.74539000  0.85968200  1
  N  1  1  0.26225500  0.26225500  0.26225500  1
  N  32  1  0.76206800  0.76178800  0.26158000  1
  N  63  1  0.76178800  0.26157800  0.76207400  1
  N  94  1  0.26157800  0.76207200  0.76179000  1
  N  125  1  0.76171100  0.76171300  0.76170700  1
  N  156  1  0.26233200  0.26207600  0.76240200  1
  N  187  1  0.26208200  0.76239600  0.26233800  1
  N  218  1  0.76241200  0.26232600  0.26206400  1
  N  252  1  0.05445600  0.51222100  0.26271600  1
  N  256  1  0.01232000  0.55528800  0.26186400  1
  N  262  1  0.97029600  0.51221300  0.26226500  1
  N  268  1  0.01244200  0.46915600  0.26164900  1
  N  366  1  0.96950800  0.51171700  0.76134100  1
  N  370  1  0.01170600  0.55499800  0.76217100  1
  N  376  1  0.05372000  0.51207700  0.76204300  1
  N  382  1  0.01151900  0.46880500  0.76198300  1
  N  480  1  0.26272900  0.05446200  0.51222100  1
  N  484  1  0.26183100  0.01231900  0.55528800  1
  N  490  1  0.26226500  0.97029400  0.51220900  1
  N  496  1  0.26164300  0.01243900  0.46915400  1
  N  594  1  0.76131800  0.96950400  0.51171500  1
  N  598  1  0.76216700  0.01171000  0.55499800  1
  N  604  1  0.76205600  0.05372400  0.51207700  1
  N  610  1  0.76198300  0.01152300  0.46880300  1
  N  708  1  0.51222100  0.26270000  0.05445500  1
  N  712  1  0.55528600  0.26185400  0.01232100  1
  N  718  1  0.51220900  0.26225500  0.97029800  1
  N  724  1  0.46915600  0.26162700  0.01244200  1
  N  822  1  0.51171900  0.76134500  0.96950600  1
  N  826  1  0.55500000  0.76217500  0.01170400  1
  N  832  1  0.51207900  0.76204300  0.05371900  1
  N  838  1  0.46880700  0.76198100  0.01151900  1
