# generated using pymatgen
data_H3C6(NO)2
_symmetry_space_group_name_H-M   'P 1'
_cell_length_a   66.22230000
_cell_length_b   66.22230000
_cell_length_c   66.22230000
_cell_angle_alpha   90.00000000
_cell_angle_beta   90.00000000
_cell_angle_gamma   90.00000000
_symmetry_Int_Tables_number   1
_chemical_formula_structural   H3C6(NO)2
_chemical_formula_sum   'H432 C864 N288 O288'
_cell_volume   290410.81200888
_cell_formula_units_Z   144
loop_
 _symmetry_equiv_pos_site_id
 _symmetry_equiv_pos_as_xyz
  1  'x, y, z'
loop_
 _atom_site_type_symbol
 _atom_site_label
 _atom_site_symmetry_multiplicity
 _atom_site_fract_x
 _atom_site_fract_y
 _atom_site_fract_z
 _atom_site_occupancy
  H  7  1  0.31021600  0.33383600  0.02522500  1
  H  16  1  0.33361100  0.31035600  0.97393500  1
  H  19  1  0.35323500  0.36040900  0.97295700  1
  H  20  1  0.36037700  0.35322900  0.02623300  1
  H  21  1  0.28879600  0.39929000  0.00026300  1
  H  22  1  0.39884500  0.28843200  0.99906100  1
  H  27  1  0.35768600  0.26753700  0.97584900  1
  H  28  1  0.32545300  0.39129700  0.96250300  1
  H  29  1  0.26762200  0.35791000  0.02351700  1
  H  30  1  0.39118400  0.32516100  0.03673400  1
  H  37  1  0.68925900  0.66566300  0.02528800  1
  H  46  1  0.66580600  0.68916700  0.97405900  1
  H  49  1  0.64610900  0.63909600  0.97312100  1
  H  50  1  0.63906000  0.64625700  0.02634100  1
  H  51  1  0.71065800  0.60022000  0.00025500  1
  H  52  1  0.60056700  0.71105100  0.99920200  1
  H  57  1  0.64170400  0.73197600  0.97599800  1
  H  58  1  0.67387000  0.60824100  0.96255600  1
  H  59  1  0.73186000  0.64154400  0.02345800  1
  H  60  1  0.60824600  0.67429700  0.03684800  1
  H  67  1  0.68913800  0.33357700  0.97385800  1
  H  76  1  0.66562700  0.31027000  0.02516600  1
  H  79  1  0.64629600  0.36044800  0.02610800  1
  H  80  1  0.63913600  0.35330600  0.97287200  1
  H  81  1  0.71119000  0.39878600  0.99893000  1
  H  82  1  0.60006600  0.28903600  0.00030400  1
  H  87  1  0.64166200  0.26779200  0.02360200  1
  H  88  1  0.67433700  0.39103300  0.03672100  1
  H  89  1  0.73201500  0.35769100  0.97582500  1
  H  90  1  0.60812300  0.32563700  0.96280200  1
  H  97  1  0.31030500  0.66566700  0.97400000  1
  H  106  1  0.33361100  0.68926100  0.02527500  1
  H  109  1  0.35326300  0.63921000  0.02638600  1
  H  110  1  0.36045300  0.64623000  0.97316400  1
  H  111  1  0.28883500  0.60025900  0.99908900  1
  H  112  1  0.39901400  0.71091400  0.00038800  1
  H  117  1  0.35774400  0.73197700  0.02340400  1
  H  118  1  0.32543400  0.60815800  0.03632600  1
  H  119  1  0.26772300  0.64165600  0.97574900  1
  H  120  1  0.39122300  0.67409100  0.96268100  1
  H  127  1  0.02522500  0.31021600  0.33383600  1
  H  136  1  0.97393500  0.33361100  0.31035600  1
  H  139  1  0.97295700  0.35323600  0.36040900  1
  H  140  1  0.02623300  0.36037700  0.35322900  1
  H  141  1  0.00026300  0.28879600  0.39929000  1
  H  142  1  0.99906100  0.39884500  0.28843200  1
  H  147  1  0.97584900  0.35768600  0.26753700  1
  H  148  1  0.96250300  0.32545300  0.39129700  1
  H  149  1  0.02351700  0.26762200  0.35791000  1
  H  150  1  0.03673400  0.39118400  0.32516100  1
  H  157  1  0.02528800  0.68925900  0.66566300  1
  H  166  1  0.97405900  0.66580600  0.68916700  1
  H  169  1  0.97312100  0.64610900  0.63909600  1
  H  170  1  0.02634100  0.63906000  0.64625700  1
  H  171  1  0.00025500  0.71066000  0.60022000  1
  H  172  1  0.99920200  0.60056700  0.71105100  1
  H  177  1  0.97599800  0.64170400  0.73197600  1
  H  178  1  0.96255600  0.67387000  0.60824100  1
  H  179  1  0.02345700  0.73186000  0.64154300  1
  H  180  1  0.03684800  0.60824600  0.67429700  1
  H  187  1  0.97385800  0.68913800  0.33357700  1
  H  196  1  0.02516600  0.66562700  0.31027000  1
  H  199  1  0.02610800  0.64629600  0.36044800  1
  H  200  1  0.97287200  0.63913600  0.35330600  1
  H  201  1  0.99893000  0.71119000  0.39878600  1
  H  202  1  0.00030400  0.60006600  0.28903600  1
  H  207  1  0.02360200  0.64166000  0.26779200  1
  H  208  1  0.03672100  0.67433700  0.39103300  1
  H  209  1  0.97582500  0.73201500  0.35769100  1
  H  210  1  0.96280200  0.60812300  0.32563700  1
  H  217  1  0.97400000  0.31030500  0.66566700  1
  H  226  1  0.02527500  0.33361100  0.68926100  1
  H  229  1  0.02638600  0.35326300  0.63921000  1
  H  230  1  0.97316400  0.36045300  0.64623000  1
  H  231  1  0.99908900  0.28883500  0.60025900  1
  H  232  1  0.00038800  0.39901400  0.71091400  1
  H  237  1  0.02340400  0.35774500  0.73197700  1
  H  238  1  0.03632600  0.32543400  0.60815800  1
  H  239  1  0.97574900  0.26772300  0.64165600  1
  H  240  1  0.96267900  0.39122300  0.67409100  1
  H  247  1  0.33383600  0.02522500  0.31021600  1
  H  256  1  0.31035600  0.97393500  0.33361100  1
  H  259  1  0.36040900  0.97295700  0.35323600  1
  H  260  1  0.35322900  0.02623300  0.36037700  1
  H  261  1  0.39929000  0.00026300  0.28879600  1
  H  262  1  0.28843200  0.99906100  0.39884500  1
  H  267  1  0.26753700  0.97584900  0.35768600  1
  H  268  1  0.39129700  0.96250300  0.32545300  1
  H  269  1  0.35791000  0.02351700  0.26762200  1
  H  270  1  0.32516100  0.03673400  0.39118400  1
  H  277  1  0.66566300  0.02528800  0.68925900  1
  H  286  1  0.68916700  0.97405900  0.66580600  1
  H  289  1  0.63909600  0.97312100  0.64610900  1
  H  290  1  0.64625700  0.02634100  0.63906000  1
  H  291  1  0.60022000  0.00025500  0.71065800  1
  H  292  1  0.71105100  0.99920200  0.60056700  1
  H  297  1  0.73197600  0.97599800  0.64170400  1
  H  298  1  0.60824100  0.96255600  0.67387000  1
  H  299  1  0.64154300  0.02345700  0.73186000  1
  H  300  1  0.67429700  0.03684800  0.60824600  1
  H  307  1  0.33357700  0.97385800  0.68913800  1
  H  316  1  0.31027000  0.02516600  0.66562700  1
  H  319  1  0.36044800  0.02610800  0.64629600  1
  H  320  1  0.35330600  0.97287200  0.63913600  1
  H  321  1  0.39878600  0.99893000  0.71119000  1
  H  322  1  0.28903600  0.00030400  0.60006600  1
  H  327  1  0.26779200  0.02360200  0.64166000  1
  H  328  1  0.39103300  0.03672100  0.67433700  1
  H  329  1  0.35769100  0.97582500  0.73201500  1
  H  330  1  0.32563700  0.96280200  0.60812300  1
  H  337  1  0.66566700  0.97400000  0.31030500  1
  H  346  1  0.68926100  0.02527500  0.33361100  1
  H  349  1  0.63921000  0.02638600  0.35326300  1
  H  350  1  0.64623000  0.97316400  0.36045300  1
  H  351  1  0.60025900  0.99908900  0.28883500  1
  H  352  1  0.71091200  0.00038800  0.39901400  1
  H  357  1  0.73197700  0.02340300  0.35774500  1
  H  358  1  0.60815800  0.03632600  0.32543400  1
  H  359  1  0.64165600  0.97574900  0.26772300  1
  H  360  1  0.67409100  0.96268100  0.39122300  1
  H  367  1  0.80757100  0.83711900  0.52348700  1
  H  376  1  0.83679700  0.80784500  0.47565400  1
  H  379  1  0.85290800  0.85423500  0.46939700  1
  H  380  1  0.85412400  0.85265700  0.53011900  1
  H  381  1  0.78658300  0.89614100  0.48469400  1
  H  382  1  0.89531200  0.78593700  0.51472900  1
  H  387  1  0.86427700  0.76512900  0.48458200  1
  H  388  1  0.82436800  0.87562700  0.44703200  1
  H  389  1  0.76523200  0.86509400  0.51450200  1
  H  390  1  0.87509600  0.82368400  0.55252100  1
  H  397  1  0.19187100  0.16239100  0.52347500  1
  H  406  1  0.16263400  0.19163600  0.47566200  1
  H  409  1  0.14651100  0.14521900  0.46941900  1
  H  410  1  0.14530300  0.14681800  0.53012200  1
  H  411  1  0.21286500  0.10335100  0.48471300  1
  H  412  1  0.10413900  0.21357000  0.51475100  1
  H  417  1  0.13517400  0.23437300  0.48463600  1
  H  418  1  0.17504700  0.12383700  0.44704600  1
  H  419  1  0.23422900  0.13443100  0.51445100  1
  H  420  1  0.12434100  0.17579700  0.55253300  1
  H  427  1  0.19196100  0.83695300  0.47597900  1
  H  436  1  0.16269600  0.80773800  0.52377600  1
  H  439  1  0.14661300  0.85425100  0.53000600  1
  H  440  1  0.14542400  0.85271300  0.46943700  1
  H  441  1  0.21286500  0.89610100  0.51459000  1
  H  442  1  0.10390600  0.78622200  0.48494100  1
  H  447  1  0.13511900  0.76515100  0.51488600  1
  H  448  1  0.17518300  0.87529300  0.55270100  1
  H  449  1  0.23428700  0.86505500  0.48495200  1
  H  450  1  0.12431900  0.82398700  0.44712300  1
  H  457  1  0.80774500  0.16257200  0.47564500  1
  H  466  1  0.83686100  0.19190200  0.52343700  1
  H  469  1  0.85277500  0.14538700  0.52996700  1
  H  470  1  0.85427800  0.14656400  0.46944800  1
  H  471  1  0.78635000  0.10372900  0.51446800  1
  H  472  1  0.89603000  0.21291500  0.48493400  1
  H  477  1  0.86489200  0.23428700  0.51447800  1
  H  478  1  0.82411100  0.12414700  0.55223700  1
  H  479  1  0.76521300  0.13489200  0.48454900  1
  H  480  1  0.87554300  0.17506500  0.44706600  1
  H  487  1  0.52348700  0.80757100  0.83711900  1
  H  496  1  0.47565400  0.83679700  0.80784500  1
  H  499  1  0.46939700  0.85290800  0.85423500  1
  H  500  1  0.53011900  0.85412400  0.85265700  1
  H  501  1  0.48469400  0.78658300  0.89614100  1
  H  502  1  0.51472900  0.89531200  0.78593700  1
  H  507  1  0.48458200  0.86427700  0.76512900  1
  H  508  1  0.44703200  0.82436800  0.87562700  1
  H  509  1  0.51450200  0.76523200  0.86509400  1
  H  510  1  0.55252300  0.87509600  0.82368400  1
  H  517  1  0.52347500  0.19187100  0.16239100  1
  H  526  1  0.47566000  0.16263400  0.19163600  1
  H  529  1  0.46941900  0.14651000  0.14521900  1
  H  530  1  0.53012200  0.14530300  0.14681800  1
  H  531  1  0.48471300  0.21286500  0.10335100  1
  H  532  1  0.51475000  0.10414000  0.21357200  1
  H  537  1  0.48463500  0.13517500  0.23437300  1
  H  538  1  0.44704600  0.17504500  0.12383600  1
  H  539  1  0.51445100  0.23422800  0.13443000  1
  H  540  1  0.55253300  0.12434100  0.17579900  1
  H  547  1  0.47597900  0.19196100  0.83695300  1
  H  556  1  0.52377600  0.16269600  0.80773800  1
  H  559  1  0.53000600  0.14661300  0.85425100  1
  H  560  1  0.46943700  0.14542400  0.85271300  1
  H  561  1  0.51459000  0.21286500  0.89610100  1
  H  562  1  0.48494100  0.10390600  0.78622200  1
  H  567  1  0.51488600  0.13511900  0.76515100  1
  H  568  1  0.55270100  0.17518300  0.87529300  1
  H  569  1  0.48495200  0.23428700  0.86505500  1
  H  570  1  0.44712300  0.12431900  0.82398700  1
  H  577  1  0.47564500  0.80774500  0.16257200  1
  H  586  1  0.52343700  0.83686100  0.19190200  1
  H  589  1  0.52996700  0.85277500  0.14538600  1
  H  590  1  0.46944800  0.85427800  0.14656400  1
  H  591  1  0.51446800  0.78635000  0.10372900  1
  H  592  1  0.48493400  0.89603000  0.21291500  1
  H  597  1  0.51447800  0.86489200  0.23428700  1
  H  598  1  0.55223700  0.82411100  0.12414700  1
  H  599  1  0.48454900  0.76521300  0.13489200  1
  H  600  1  0.44706700  0.87554300  0.17506500  1
  H  607  1  0.83711900  0.52348700  0.80757100  1
  H  616  1  0.80784500  0.47565400  0.83679700  1
  H  619  1  0.85423500  0.46939700  0.85290800  1
  H  620  1  0.85265700  0.53011900  0.85412400  1
  H  621  1  0.89614100  0.48469400  0.78658300  1
  H  622  1  0.78593700  0.51472900  0.89531200  1
  H  627  1  0.76512900  0.48458200  0.86427700  1
  H  628  1  0.87562700  0.44703200  0.82436800  1
  H  629  1  0.86509400  0.51450200  0.76523200  1
  H  630  1  0.82368400  0.55252300  0.87509600  1
  H  637  1  0.16239100  0.52347500  0.19187100  1
  H  646  1  0.19163600  0.47566200  0.16263400  1
  H  649  1  0.14521900  0.46941900  0.14651100  1
  H  650  1  0.14681800  0.53012200  0.14530300  1
  H  651  1  0.10335100  0.48471300  0.21286500  1
  H  652  1  0.21357200  0.51475100  0.10413900  1
  H  657  1  0.23437300  0.48463600  0.13517400  1
  H  658  1  0.12383700  0.44704600  0.17504700  1
  H  659  1  0.13443100  0.51445100  0.23422900  1
  H  660  1  0.17579700  0.55253300  0.12434100  1
  H  667  1  0.83695300  0.47597900  0.19196100  1
  H  676  1  0.80773800  0.52377600  0.16269600  1
  H  679  1  0.85425100  0.53000600  0.14661300  1
  H  680  1  0.85271300  0.46943700  0.14542400  1
  H  681  1  0.89610100  0.51459000  0.21286500  1
  H  682  1  0.78622200  0.48494100  0.10390600  1
  H  687  1  0.76515100  0.51488600  0.13511900  1
  H  688  1  0.87529300  0.55270100  0.17518300  1
  H  689  1  0.86505500  0.48495200  0.23428700  1
  H  690  1  0.82398700  0.44712300  0.12431900  1
  H  697  1  0.16257200  0.47564500  0.80774500  1
  H  706  1  0.19190200  0.52343700  0.83686100  1
  H  709  1  0.14538700  0.52996700  0.85277500  1
  H  710  1  0.14656400  0.46944800  0.85427800  1
  H  711  1  0.10372900  0.51446800  0.78635000  1
  H  712  1  0.21291500  0.48493400  0.89603000  1
  H  717  1  0.23428700  0.51447800  0.86489200  1
  H  718  1  0.12414700  0.55223700  0.82411100  1
  H  719  1  0.13489200  0.48454900  0.76521300  1
  H  720  1  0.17506500  0.44706600  0.87554300  1
  H  727  1  0.43217000  0.19759100  0.88632700  1
  H  734  1  0.37970000  0.29912800  0.92164500  1
  H  735  1  0.38480900  0.24818700  0.95931500  1
  H  736  1  0.45802000  0.25487800  0.87654700  1
  H  751  1  0.56730600  0.80190100  0.88639500  1
  H  758  1  0.61967800  0.70034300  0.92179700  1
  H  759  1  0.61466800  0.75134400  0.95940000  1
  H  760  1  0.54135000  0.74463900  0.87675800  1
  H  775  1  0.56739700  0.19768300  0.11326200  1
  H  782  1  0.61923100  0.29942200  0.07754100  1
  H  783  1  0.61448700  0.24825500  0.04013400  1
  H  784  1  0.54123900  0.25487500  0.12278000  1
  H  799  1  0.43193800  0.80194500  0.11318500  1
  H  806  1  0.37963200  0.70037500  0.07769700  1
  H  807  1  0.38476300  0.75136200  0.04009300  1
  H  808  1  0.45779000  0.74466500  0.12299700  1
  H  823  1  0.88632700  0.43217000  0.19759100  1
  H  830  1  0.92164500  0.37970000  0.29912800  1
  H  831  1  0.95931500  0.38480900  0.24818700  1
  H  832  1  0.87654700  0.45802000  0.25487800  1
  H  847  1  0.88639500  0.56730600  0.80190100  1
  H  854  1  0.92179700  0.61967800  0.70034300  1
  H  855  1  0.95940000  0.61466800  0.75134400  1
  H  856  1  0.87675800  0.54135000  0.74463900  1
  H  871  1  0.11326200  0.56739700  0.19768300  1
  H  878  1  0.07754100  0.61923300  0.29942200  1
  H  879  1  0.04013400  0.61448700  0.24825500  1
  H  880  1  0.12278100  0.54123900  0.25487500  1
  H  895  1  0.11318500  0.43193800  0.80194500  1
  H  902  1  0.07769700  0.37963200  0.70037500  1
  H  903  1  0.04009300  0.38476300  0.75136200  1
  H  904  1  0.12299700  0.45779000  0.74466500  1
  H  919  1  0.19759100  0.88632700  0.43217000  1
  H  926  1  0.29912800  0.92164500  0.37970000  1
  H  927  1  0.24818700  0.95931500  0.38480900  1
  H  928  1  0.25487800  0.87654700  0.45802000  1
  H  943  1  0.80190100  0.88639500  0.56730600  1
  H  950  1  0.70034300  0.92179700  0.61967800  1
  H  951  1  0.75134400  0.95940000  0.61466800  1
  H  952  1  0.74463900  0.87675800  0.54135000  1
  H  967  1  0.19768300  0.11326200  0.56739700  1
  H  974  1  0.29942200  0.07754100  0.61923300  1
  H  975  1  0.24825500  0.04013400  0.61448700  1
  H  976  1  0.25487500  0.12278100  0.54123900  1
  H  991  1  0.80194500  0.11318500  0.43193800  1
  H  998  1  0.70037500  0.07769600  0.37963200  1
  H  999  1  0.75136200  0.04009300  0.38476300  1
  H  1000  1  0.74466500  0.12299700  0.45779000  1
  H  1015  1  0.19766800  0.43206300  0.11333100  1
  H  1022  1  0.29926900  0.37996100  0.07761500  1
  H  1023  1  0.24822000  0.38507700  0.04009700  1
  H  1024  1  0.25493200  0.45794100  0.12315700  1
  H  1039  1  0.80186000  0.56747800  0.11331700  1
  H  1046  1  0.70024300  0.61958200  0.07764700  1
  H  1047  1  0.75129100  0.61449100  0.04012100  1
  H  1048  1  0.74459900  0.54157500  0.12310200  1
  H  1063  1  0.19767200  0.56735000  0.88609300  1
  H  1070  1  0.29932800  0.61943400  0.92167200  1
  H  1071  1  0.24826200  0.61449100  0.95919100  1
  H  1072  1  0.25491100  0.54135600  0.87641400  1
  H  1087  1  0.80193100  0.43212700  0.88624000  1
  H  1094  1  0.70044300  0.37952600  0.92150600  1
  H  1095  1  0.75130600  0.38481800  0.95925500  1
  H  1096  1  0.74460900  0.45781100  0.87623700  1
  H  1111  1  0.43212700  0.88624000  0.80193100  1
  H  1118  1  0.37952600  0.92150600  0.70044300  1
  H  1119  1  0.38481800  0.95925500  0.75130600  1
  H  1120  1  0.45781300  0.87623700  0.74460900  1
  H  1135  1  0.56735000  0.88609300  0.19767200  1
  H  1142  1  0.61943400  0.92167200  0.29933000  1
  H  1143  1  0.61449100  0.95919100  0.24826200  1
  H  1144  1  0.54135600  0.87641400  0.25491100  1
  H  1159  1  0.56747800  0.11331700  0.80186000  1
  H  1166  1  0.61958200  0.07764700  0.70024300  1
  H  1167  1  0.61449100  0.04012100  0.75129100  1
  H  1168  1  0.54157500  0.12310200  0.74459900  1
  H  1183  1  0.43206300  0.11333100  0.19766800  1
  H  1190  1  0.37996100  0.07761500  0.29926900  1
  H  1191  1  0.38507700  0.04009700  0.24822000  1
  H  1192  1  0.45794100  0.12315800  0.25493200  1
  H  1207  1  0.88609300  0.19767200  0.56735000  1
  H  1214  1  0.92167200  0.29932800  0.61943400  1
  H  1215  1  0.95919100  0.24826200  0.61449100  1
  H  1216  1  0.87641400  0.25491100  0.54135600  1
  H  1231  1  0.88624000  0.80193100  0.43212700  1
  H  1238  1  0.92150600  0.70044300  0.37952600  1
  H  1239  1  0.95925500  0.75130600  0.38481800  1
  H  1240  1  0.87623700  0.74460900  0.45781300  1
  H  1255  1  0.11333100  0.19766800  0.43206300  1
  H  1262  1  0.07761500  0.29926900  0.37996100  1
  H  1263  1  0.04009700  0.24822000  0.38507700  1
  H  1264  1  0.12315700  0.25493200  0.45794100  1
  H  1279  1  0.11331700  0.80186000  0.56747800  1
  H  1286  1  0.07764700  0.70024300  0.61958200  1
  H  1287  1  0.04012100  0.75129100  0.61449100  1
  H  1288  1  0.12310200  0.74459900  0.54157500  1
  H  1303  1  0.57528800  0.80438700  0.09726200  1
  H  1310  1  0.63209300  0.70060100  0.08923400  1
  H  1311  1  0.59535900  0.72249900  0.04214500  1
  H  1312  1  0.56846900  0.76082900  0.14310100  1
  H  1327  1  0.42386800  0.19487600  0.09696800  1
  H  1334  1  0.36738400  0.29883500  0.08911700  1
  H  1335  1  0.40402100  0.27691600  0.04196400  1
  H  1336  1  0.43086700  0.23832900  0.14287500  1
  H  1351  1  0.42371300  0.80461200  0.90237300  1
  H  1358  1  0.36745400  0.70054400  0.91038000  1
  H  1359  1  0.40408800  0.72260000  0.95747000  1
  H  1360  1  0.43093500  0.76106300  0.85659000  1
  H  1375  1  0.57574100  0.19495300  0.90228400  1
  H  1382  1  0.63166800  0.29921200  0.91016700  1
  H  1383  1  0.59535600  0.27694000  0.95740300  1
  H  1384  1  0.56810800  0.23854700  0.85661100  1
  H  1399  1  0.09726300  0.57528800  0.80438700  1
  H  1406  1  0.08923400  0.63209300  0.70060100  1
  H  1407  1  0.04214500  0.59536000  0.72249900  1
  H  1408  1  0.14310100  0.56846900  0.76082900  1
  H  1423  1  0.09696800  0.42386800  0.19487600  1
  H  1430  1  0.08911700  0.36738400  0.29883500  1
  H  1431  1  0.04196400  0.40402100  0.27691600  1
  H  1432  1  0.14287500  0.43086900  0.23832900  1
  H  1447  1  0.90237300  0.42371300  0.80461200  1
  H  1454  1  0.91038000  0.36745400  0.70054400  1
  H  1455  1  0.95747000  0.40408800  0.72260000  1
  H  1456  1  0.85659000  0.43093500  0.76106300  1
  H  1471  1  0.90228400  0.57574100  0.19495300  1
  H  1478  1  0.91016700  0.63166800  0.29921200  1
  H  1479  1  0.95740300  0.59535600  0.27694000  1
  H  1480  1  0.85661100  0.56810800  0.23854700  1
  H  1495  1  0.80438700  0.09726200  0.57528800  1
  H  1502  1  0.70060100  0.08923400  0.63209300  1
  H  1503  1  0.72249900  0.04214500  0.59535900  1
  H  1504  1  0.76082900  0.14310100  0.56846900  1
  H  1519  1  0.19487600  0.09696800  0.42386800  1
  H  1526  1  0.29883500  0.08911700  0.36738400  1
  H  1527  1  0.27691600  0.04196400  0.40402100  1
  H  1528  1  0.23832900  0.14287500  0.43086900  1
  H  1543  1  0.80461200  0.90237300  0.42371300  1
  H  1550  1  0.70054400  0.91038000  0.36745400  1
  H  1551  1  0.72260000  0.95747000  0.40408800  1
  H  1552  1  0.76106300  0.85659000  0.43093500  1
  H  1567  1  0.19495300  0.90228400  0.57574100  1
  H  1574  1  0.29921200  0.91016700  0.63166800  1
  H  1575  1  0.27694000  0.95740300  0.59535600  1
  H  1576  1  0.23854700  0.85661100  0.56810800  1
  H  1591  1  0.80410400  0.57529800  0.90193400  1
  H  1598  1  0.70039000  0.63222700  0.91037500  1
  H  1599  1  0.72232700  0.59524600  0.95725100  1
  H  1600  1  0.76044700  0.56881300  0.85614000  1
  H  1615  1  0.19482400  0.42361000  0.90225700  1
  H  1622  1  0.29906100  0.36768600  0.91017700  1
  H  1623  1  0.27681800  0.40404500  0.95739000  1
  H  1624  1  0.23844400  0.43133500  0.85662400  1
  H  1639  1  0.80438500  0.42417000  0.09734500  1
  H  1646  1  0.70077300  0.36713200  0.08885700  1
  H  1647  1  0.72275400  0.40397100  0.04189100  1
  H  1648  1  0.76062800  0.43089700  0.14300700  1
  H  1663  1  0.19534800  0.57543200  0.09759000  1
  H  1670  1  0.29931000  0.63199800  0.08920300  1
  H  1671  1  0.27699900  0.59547200  0.04214900  1
  H  1672  1  0.23906800  0.56871400  0.14328900  1
  H  1687  1  0.57543200  0.09759100  0.19534800  1
  H  1694  1  0.63199800  0.08920300  0.29931000  1
  H  1695  1  0.59547200  0.04214900  0.27699900  1
  H  1696  1  0.56871200  0.14328900  0.23906800  1
  H  1711  1  0.42417000  0.09734500  0.80438500  1
  H  1718  1  0.36713200  0.08885700  0.70077300  1
  H  1719  1  0.40397100  0.04189100  0.72275400  1
  H  1720  1  0.43089700  0.14300700  0.76062800  1
  H  1735  1  0.42361000  0.90225700  0.19482400  1
  H  1742  1  0.36768600  0.91017700  0.29906100  1
  H  1743  1  0.40404500  0.95739000  0.27681800  1
  H  1744  1  0.43133500  0.85662400  0.23844400  1
  H  1759  1  0.57529800  0.90193400  0.80410400  1
  H  1766  1  0.63222700  0.91037500  0.70039000  1
  H  1767  1  0.59524600  0.95725100  0.72232700  1
  H  1768  1  0.56881300  0.85614000  0.76044700  1
  H  1783  1  0.09734500  0.80438500  0.42417000  1
  H  1790  1  0.08885700  0.70077300  0.36713200  1
  H  1791  1  0.04189100  0.72275400  0.40397100  1
  H  1792  1  0.14300700  0.76062800  0.43089700  1
  H  1807  1  0.09759000  0.19534800  0.57543200  1
  H  1814  1  0.08920300  0.29931000  0.63199800  1
  H  1815  1  0.04214900  0.27699900  0.59547200  1
  H  1816  1  0.14328900  0.23906800  0.56871400  1
  H  1831  1  0.90193400  0.80410400  0.57529600  1
  H  1838  1  0.91037500  0.70039000  0.63222700  1
  H  1839  1  0.95725100  0.72232500  0.59524600  1
  H  1840  1  0.85614000  0.76044700  0.56881500  1
  H  1855  1  0.90225700  0.19482400  0.42361000  1
  H  1862  1  0.91017700  0.29906100  0.36768600  1
  H  1863  1  0.95739000  0.27681800  0.40404500  1
  H  1864  1  0.85662400  0.23844400  0.43133500  1
  C  1  1  0.32591200  0.34113200  0.99834000  1
  C  2  1  0.31066600  0.34345600  0.01309400  1
  C  3  1  0.29616000  0.35895200  0.01146600  1
  C  4  1  0.29687900  0.37238500  0.99484400  1
  C  5  1  0.31193600  0.37016000  0.97980500  1
  C  6  1  0.32663600  0.35470700  0.98178900  1
  C  9  1  0.34095600  0.32601700  0.00082800  1
  C  10  1  0.35451200  0.32666700  0.01739800  1
  C  11  1  0.36985900  0.31186800  0.01941500  1
  C  12  1  0.37200200  0.29676700  0.00441000  1
  C  13  1  0.35860800  0.29613800  0.98775300  1
  C  14  1  0.34321400  0.31075100  0.98608200  1
  C  23  1  0.36122000  0.28181900  0.97288900  1
  C  24  1  0.31257600  0.38379500  0.96399500  1
  C  25  1  0.28188100  0.36164600  0.02634700  1
  C  26  1  0.38341500  0.31241800  0.03526600  1
  C  31  1  0.67350300  0.65837200  0.99843600  1
  C  32  1  0.68878200  0.65604400  0.01315800  1
  C  33  1  0.70328200  0.64054600  0.01149300  1
  C  34  1  0.70252700  0.62711700  0.99486800  1
  C  35  1  0.68742100  0.62933800  0.97987800  1
  C  36  1  0.67273000  0.64479200  0.98189300  1
  C  39  1  0.65847000  0.67349300  0.00094700  1
  C  40  1  0.64492100  0.67282400  0.01751700  1
  C  41  1  0.62956600  0.68761500  0.01954200  1
  C  42  1  0.62741300  0.70272300  0.00454600  1
  C  43  1  0.64080600  0.70336900  0.98788700  1
  C  44  1  0.65620700  0.68876500  0.98620800  1
  C  53  1  0.63818400  0.71769200  0.97302900  1
  C  54  1  0.68675600  0.61572500  0.96405200  1
  C  55  1  0.71759900  0.63785100  0.02633900  1
  C  56  1  0.61601000  0.68704400  0.03539100  1
  C  61  1  0.67349000  0.34097600  0.00074200  1
  C  62  1  0.68876200  0.34319000  0.98599600  1
  C  63  1  0.70340600  0.35855500  0.98765700  1
  C  64  1  0.70280000  0.37196600  0.00430400  1
  C  65  1  0.68769000  0.36987000  0.01930900  1
  C  66  1  0.67285800  0.35455000  0.01729600  1
  C  69  1  0.65834800  0.32595700  0.99827000  1
  C  70  1  0.64475900  0.32669800  0.98173200  1
  C  71  1  0.62924800  0.31205400  0.97979100  1
  C  72  1  0.62699300  0.29702300  0.99485300  1
  C  73  1  0.64045100  0.29627700  0.01145300  1
  C  74  1  0.65599900  0.31073100  0.01304300  1
  C  83  1  0.63773400  0.28201800  0.02634900  1
  C  84  1  0.68717100  0.38347400  0.03514800  1
  C  85  1  0.71772700  0.36113100  0.97278600  1
  C  86  1  0.61557900  0.31270200  0.96398000  1
  C  91  1  0.32596600  0.65843400  0.00092300  1
  C  92  1  0.31074000  0.65607400  0.98615200  1
  C  93  1  0.29623700  0.64057500  0.98779600  1
  C  94  1  0.29694500  0.62716800  0.00444100  1
  C  95  1  0.31199800  0.62942300  0.01948000  1
  C  96  1  0.32667900  0.64489000  0.01749800  1
  C  99  1  0.34101200  0.67354400  0.99843200  1
  C  100  1  0.35462700  0.67283000  0.98191500  1
  C  101  1  0.37002400  0.68758600  0.97992600  1
  C  102  1  0.37215700  0.70269400  0.99492800  1
  C  103  1  0.35869200  0.70339500  0.01152600  1
  C  104  1  0.34325000  0.68883200  0.01315800  1
  C  113  1  0.36131100  0.71770700  0.02639700  1
  C  114  1  0.31259300  0.61584100  0.03535700  1
  C  115  1  0.28196400  0.63785100  0.97291300  1
  C  116  1  0.38369900  0.68695600  0.96414900  1
  C  121  1  0.99834000  0.32591200  0.34113200  1
  C  122  1  0.01309400  0.31066600  0.34345700  1
  C  123  1  0.01146600  0.29616000  0.35895200  1
  C  124  1  0.99484400  0.29687900  0.37238500  1
  C  125  1  0.97980500  0.31193600  0.37016000  1
  C  126  1  0.98178900  0.32663600  0.35470700  1
  C  129  1  0.00082800  0.34095600  0.32601700  1
  C  130  1  0.01739800  0.35451200  0.32666700  1
  C  131  1  0.01941500  0.36985900  0.31186800  1
  C  132  1  0.00441000  0.37200200  0.29676700  1
  C  133  1  0.98775300  0.35860800  0.29613800  1
  C  134  1  0.98608200  0.34321400  0.31075100  1
  C  143  1  0.97288900  0.36122000  0.28181900  1
  C  144  1  0.96399500  0.31257600  0.38379500  1
  C  145  1  0.02634700  0.28188000  0.36164600  1
  C  146  1  0.03526600  0.38341500  0.31241800  1
  C  151  1  0.99843600  0.67350300  0.65837200  1
  C  152  1  0.01315800  0.68878200  0.65604400  1
  C  153  1  0.01149300  0.70328200  0.64054600  1
  C  154  1  0.99486800  0.70252700  0.62711700  1
  C  155  1  0.97987800  0.68742100  0.62933800  1
  C  156  1  0.98189300  0.67273000  0.64479200  1
  C  159  1  0.00094700  0.65847000  0.67349300  1
  C  160  1  0.01751700  0.64492100  0.67282400  1
  C  161  1  0.01954200  0.62956600  0.68761500  1
  C  162  1  0.00454600  0.62741300  0.70272300  1
  C  163  1  0.98788700  0.64080600  0.70336900  1
  C  164  1  0.98620800  0.65620700  0.68876500  1
  C  173  1  0.97302900  0.63818400  0.71769200  1
  C  174  1  0.96405200  0.68675600  0.61572500  1
  C  175  1  0.02633800  0.71759900  0.63785100  1
  C  176  1  0.03539100  0.61601000  0.68704400  1
  C  181  1  0.00074200  0.67349000  0.34097600  1
  C  182  1  0.98599600  0.68876200  0.34319000  1
  C  183  1  0.98765700  0.70340600  0.35855500  1
  C  184  1  0.00430400  0.70280000  0.37196600  1
  C  185  1  0.01930900  0.68769000  0.36987000  1
  C  186  1  0.01729600  0.67285800  0.35455000  1
  C  189  1  0.99827000  0.65834800  0.32595500  1
  C  190  1  0.98173200  0.64475900  0.32669800  1
  C  191  1  0.97979000  0.62924800  0.31205400  1
  C  192  1  0.99485300  0.62699300  0.29702300  1
  C  193  1  0.01145300  0.64045100  0.29627700  1
  C  194  1  0.01304300  0.65599900  0.31073100  1
  C  203  1  0.02634900  0.63773400  0.28201800  1
  C  204  1  0.03514800  0.68717100  0.38347400  1
  C  205  1  0.97278600  0.71772700  0.36113100  1
  C  206  1  0.96398000  0.61557900  0.31270200  1
  C  211  1  0.00092300  0.32596600  0.65843400  1
  C  212  1  0.98615200  0.31074000  0.65607400  1
  C  213  1  0.98779600  0.29623700  0.64057500  1
  C  214  1  0.00444100  0.29694500  0.62717000  1
  C  215  1  0.01948000  0.31199800  0.62942300  1
  C  216  1  0.01749800  0.32667900  0.64489000  1
  C  219  1  0.99843200  0.34101200  0.67354400  1
  C  220  1  0.98191500  0.35462700  0.67283100  1
  C  221  1  0.97992600  0.37002400  0.68758600  1
  C  222  1  0.99492800  0.37215700  0.70269400  1
  C  223  1  0.01152600  0.35869200  0.70339500  1
  C  224  1  0.01315800  0.34325000  0.68883200  1
  C  233  1  0.02639700  0.36131100  0.71770700  1
  C  234  1  0.03535700  0.31259300  0.61584100  1
  C  235  1  0.97291300  0.28196400  0.63785100  1
  C  236  1  0.96414900  0.38369900  0.68695600  1
  C  241  1  0.34113200  0.99834000  0.32591200  1
  C  242  1  0.34345700  0.01309400  0.31066600  1
  C  243  1  0.35895200  0.01146600  0.29616000  1
  C  244  1  0.37238500  0.99484400  0.29687900  1
  C  245  1  0.37016000  0.97980500  0.31193600  1
  C  246  1  0.35470700  0.98178900  0.32663600  1
  C  249  1  0.32601700  0.00082800  0.34095600  1
  C  250  1  0.32666700  0.01739800  0.35451200  1
  C  251  1  0.31186800  0.01941500  0.36985900  1
  C  252  1  0.29676700  0.00441000  0.37200200  1
  C  253  1  0.29613800  0.98775300  0.35860800  1
  C  254  1  0.31075100  0.98608200  0.34321400  1
  C  263  1  0.28181900  0.97288900  0.36122000  1
  C  264  1  0.38379500  0.96399500  0.31257600  1
  C  265  1  0.36164600  0.02634700  0.28188000  1
  C  266  1  0.31241800  0.03526600  0.38341500  1
  C  271  1  0.65837200  0.99843600  0.67350300  1
  C  272  1  0.65604400  0.01315800  0.68878200  1
  C  273  1  0.64054600  0.01149300  0.70328200  1
  C  274  1  0.62711700  0.99486800  0.70252700  1
  C  275  1  0.62933800  0.97987800  0.68742100  1
  C  276  1  0.64479200  0.98189300  0.67273000  1
  C  279  1  0.67349300  0.00094700  0.65847000  1
  C  280  1  0.67282400  0.01751700  0.64492100  1
  C  281  1  0.68761500  0.01954200  0.62956600  1
  C  282  1  0.70272300  0.00454600  0.62741300  1
  C  283  1  0.70336900  0.98788700  0.64080600  1
  C  284  1  0.68876500  0.98620800  0.65620700  1
  C  293  1  0.71769200  0.97302900  0.63818400  1
  C  294  1  0.61572500  0.96405200  0.68675600  1
  C  295  1  0.63785100  0.02633900  0.71759900  1
  C  296  1  0.68704400  0.03539100  0.61601000  1
  C  301  1  0.34097600  0.00074200  0.67349000  1
  C  302  1  0.34319000  0.98599600  0.68876200  1
  C  303  1  0.35855500  0.98765700  0.70340600  1
  C  304  1  0.37196600  0.00430400  0.70280000  1
  C  305  1  0.36987000  0.01930900  0.68769000  1
  C  306  1  0.35455000  0.01729600  0.67285800  1
  C  309  1  0.32595700  0.99827000  0.65834800  1
  C  310  1  0.32669800  0.98173200  0.64475900  1
  C  311  1  0.31205400  0.97979100  0.62924800  1
  C  312  1  0.29702300  0.99485300  0.62699300  1
  C  313  1  0.29627700  0.01145300  0.64045100  1
  C  314  1  0.31073100  0.01304300  0.65599900  1
  C  323  1  0.28201800  0.02634900  0.63773400  1
  C  324  1  0.38347400  0.03514800  0.68717100  1
  C  325  1  0.36113100  0.97278600  0.71772700  1
  C  326  1  0.31270200  0.96398000  0.61557900  1
  C  331  1  0.65843400  0.00092300  0.32596600  1
  C  332  1  0.65607400  0.98615200  0.31074000  1
  C  333  1  0.64057500  0.98779600  0.29623700  1
  C  334  1  0.62717000  0.00444100  0.29694500  1
  C  335  1  0.62942300  0.01948000  0.31199800  1
  C  336  1  0.64489000  0.01749800  0.32667900  1
  C  339  1  0.67354400  0.99843200  0.34101200  1
  C  340  1  0.67283000  0.98191500  0.35462900  1
  C  341  1  0.68758600  0.97992600  0.37002400  1
  C  342  1  0.70269400  0.99492800  0.37215700  1
  C  343  1  0.70339500  0.01152600  0.35869200  1
  C  344  1  0.68883200  0.01315800  0.34325000  1
  C  353  1  0.71770700  0.02639700  0.36131100  1
  C  354  1  0.61584100  0.03535700  0.31259300  1
  C  355  1  0.63785100  0.97291300  0.28196400  1
  C  356  1  0.68695500  0.96414900  0.38369900  1
  C  361  1  0.82483100  0.83972800  0.49671700  1
  C  362  1  0.80874500  0.84450800  0.50993000  1
  C  363  1  0.79422400  0.85928100  0.50496900  1
  C  364  1  0.79525400  0.86889700  0.48590500  1
  C  365  1  0.81083300  0.86391000  0.47205600  1
  C  366  1  0.82593500  0.84984400  0.47782700  1
  C  369  1  0.83944100  0.82491800  0.50254100  1
  C  370  1  0.84945200  0.82579300  0.52149800  1
  C  371  1  0.86329000  0.81048400  0.52726800  1
  C  372  1  0.86817600  0.79492300  0.51336700  1
  C  373  1  0.85868100  0.79412600  0.49423100  1
  C  374  1  0.84411200  0.80885000  0.48926500  1
  C  383  1  0.86401000  0.77950500  0.48030500  1
  C  384  1  0.81093300  0.87297500  0.45316200  1
  C  385  1  0.77958700  0.86470200  0.51883900  1
  C  386  1  0.87217700  0.81036500  0.54622300  1
  C  391  1  0.17459400  0.15975000  0.49671800  1
  C  392  1  0.19069300  0.15499200  0.50992500  1
  C  393  1  0.20522000  0.14022400  0.50496300  1
  C  394  1  0.20418100  0.13059300  0.48590800  1
  C  395  1  0.18858900  0.13555900  0.47206500  1
  C  396  1  0.17348500  0.14962400  0.47783600  1
  C  399  1  0.15998400  0.17455900  0.50254600  1
  C  400  1  0.14997700  0.17368200  0.52150400  1
  C  401  1  0.13614700  0.18899500  0.52728000  1
  C  402  1  0.13126900  0.20456400  0.51338300  1
  C  403  1  0.14076300  0.20536400  0.49424800  1
  C  404  1  0.15531900  0.19063100  0.48927100  1
  C  413  1  0.13545100  0.22000500  0.48033600  1
  C  414  1  0.18848200  0.12647800  0.45317800  1
  C  415  1  0.21988200  0.13483600  0.51882000  1
  C  416  1  0.12726500  0.18911800  0.54623800  1
  C  421  1  0.17469800  0.83962100  0.50273900  1
  C  422  1  0.19079400  0.84436300  0.48952600  1
  C  423  1  0.20530400  0.85915800  0.49445600  1
  C  424  1  0.20424900  0.86883300  0.51348900  1
  C  425  1  0.18868000  0.86385800  0.52735900  1
  C  426  1  0.17358200  0.84977800  0.52160600  1
  C  429  1  0.16005200  0.82485000  0.49691500  1
  C  430  1  0.14998100  0.82580700  0.47799200  1
  C  431  1  0.13602100  0.81059300  0.47225200  1
  C  432  1  0.13110400  0.79504200  0.48615800  1
  C  433  1  0.14069000  0.79414800  0.50524400  1
  C  434  1  0.15535000  0.80878900  0.51018600  1
  C  443  1  0.13533200  0.77952900  0.51915500  1
  C  444  1  0.18848800  0.87303700  0.54618500  1
  C  445  1  0.21994900  0.86453900  0.48057600  1
  C  446  1  0.12694300  0.81059600  0.45336100  1
  C  451  1  0.82486600  0.15995700  0.50250300  1
  C  452  1  0.80881400  0.15522400  0.48923300  1
  C  453  1  0.79420400  0.14053300  0.49417500  1
  C  454  1  0.79512700  0.13094100  0.51325600  1
  C  455  1  0.81067800  0.13588100  0.52715500  1
  C  456  1  0.82585500  0.14988000  0.52141800  1
  C  459  1  0.83960300  0.17463900  0.49668500  1
  C  460  1  0.84978800  0.17353500  0.47783600  1
  C  461  1  0.86386700  0.18864700  0.47210700  1
  C  462  1  0.86877900  0.20423500  0.48597400  1
  C  463  1  0.85906300  0.20528600  0.50498700  1
  C  464  1  0.84429200  0.19074900  0.50990300  1
  C  473  1  0.86439200  0.21995000  0.51886800  1
  C  474  1  0.81070600  0.12680300  0.54604300  1
  C  475  1  0.77959000  0.13515100  0.48026900  1
  C  476  1  0.87310200  0.18847900  0.45329000  1
  C  481  1  0.49671700  0.82483100  0.83972800  1
  C  482  1  0.50993000  0.80874500  0.84450600  1
  C  483  1  0.50496900  0.79422400  0.85928100  1
  C  484  1  0.48590500  0.79525400  0.86889700  1
  C  485  1  0.47205600  0.81083300  0.86391000  1
  C  486  1  0.47782700  0.82593500  0.84984400  1
  C  489  1  0.50254100  0.83944100  0.82491800  1
  C  490  1  0.52149800  0.84945200  0.82579300  1
  C  491  1  0.52726800  0.86329000  0.81048400  1
  C  492  1  0.51336700  0.86817600  0.79492300  1
  C  493  1  0.49423100  0.85868100  0.79412600  1
  C  494  1  0.48926500  0.84411200  0.80885000  1
  C  503  1  0.48030500  0.86401000  0.77950500  1
  C  504  1  0.45316200  0.81093300  0.87297500  1
  C  505  1  0.51883900  0.77958700  0.86470200  1
  C  506  1  0.54622300  0.87217700  0.81036500  1
  C  511  1  0.49671800  0.17459400  0.15975000  1
  C  512  1  0.50992400  0.19069300  0.15499200  1
  C  513  1  0.50496300  0.20522000  0.14022400  1
  C  514  1  0.48590800  0.20418100  0.13059300  1
  C  515  1  0.47206500  0.18858900  0.13555900  1
  C  516  1  0.47783500  0.17348400  0.14962400  1
  C  519  1  0.50254400  0.15998400  0.17455900  1
  C  520  1  0.52150400  0.14997700  0.17368300  1
  C  521  1  0.52727900  0.13614700  0.18899500  1
  C  522  1  0.51338300  0.13126900  0.20456400  1
  C  523  1  0.49424800  0.14076300  0.20536400  1
  C  524  1  0.48927100  0.15532100  0.19063100  1
  C  533  1  0.48033600  0.13545200  0.22000500  1
  C  534  1  0.45317800  0.18848200  0.12647800  1
  C  535  1  0.51882000  0.21988200  0.13483600  1
  C  536  1  0.54623800  0.12726500  0.18911800  1
  C  541  1  0.50273900  0.17469800  0.83962100  1
  C  542  1  0.48952600  0.19079400  0.84436300  1
  C  543  1  0.49445600  0.20530400  0.85915800  1
  C  544  1  0.51348900  0.20424900  0.86883300  1
  C  545  1  0.52735900  0.18868000  0.86385800  1
  C  546  1  0.52160600  0.17358200  0.84977800  1
  C  549  1  0.49691500  0.16005200  0.82485000  1
  C  550  1  0.47799200  0.14998100  0.82580700  1
  C  551  1  0.47225200  0.13602100  0.81059300  1
  C  552  1  0.48615800  0.13110400  0.79504200  1
  C  553  1  0.50524400  0.14069000  0.79414800  1
  C  554  1  0.51018600  0.15535000  0.80878900  1
  C  563  1  0.51915500  0.13533200  0.77952900  1
  C  564  1  0.54618500  0.18848800  0.87303700  1
  C  565  1  0.48057600  0.21994900  0.86453900  1
  C  566  1  0.45336100  0.12694300  0.81059600  1
  C  571  1  0.50250300  0.82486600  0.15995700  1
  C  572  1  0.48923300  0.80881400  0.15522400  1
  C  573  1  0.49417500  0.79420400  0.14053300  1
  C  574  1  0.51325600  0.79512700  0.13094100  1
  C  575  1  0.52715500  0.81067800  0.13588100  1
  C  576  1  0.52141800  0.82585500  0.14988000  1
  C  579  1  0.49668500  0.83960300  0.17463900  1
  C  580  1  0.47783600  0.84978800  0.17353500  1
  C  581  1  0.47210700  0.86386700  0.18864700  1
  C  582  1  0.48597400  0.86877900  0.20423500  1
  C  583  1  0.50498700  0.85906300  0.20528600  1
  C  584  1  0.50990300  0.84429200  0.19074900  1
  C  593  1  0.51886800  0.86439200  0.21995000  1
  C  594  1  0.54604500  0.81070600  0.12680300  1
  C  595  1  0.48026900  0.77959000  0.13515100  1
  C  596  1  0.45329000  0.87310200  0.18847900  1
  C  601  1  0.83972800  0.49671700  0.82483100  1
  C  602  1  0.84450600  0.50993000  0.80874500  1
  C  603  1  0.85928100  0.50496900  0.79422400  1
  C  604  1  0.86889700  0.48590500  0.79525400  1
  C  605  1  0.86391000  0.47205600  0.81083300  1
  C  606  1  0.84984400  0.47782700  0.82593500  1
  C  609  1  0.82491800  0.50254100  0.83944100  1
  C  610  1  0.82579300  0.52149800  0.84945200  1
  C  611  1  0.81048400  0.52726800  0.86329000  1
  C  612  1  0.79492300  0.51336700  0.86817600  1
  C  613  1  0.79412600  0.49423100  0.85868100  1
  C  614  1  0.80885000  0.48926500  0.84411200  1
  C  623  1  0.77950500  0.48030500  0.86401000  1
  C  624  1  0.87297500  0.45316200  0.81093300  1
  C  625  1  0.86470200  0.51883900  0.77958700  1
  C  626  1  0.81036500  0.54622300  0.87217700  1
  C  631  1  0.15975000  0.49671800  0.17459400  1
  C  632  1  0.15499200  0.50992500  0.19069300  1
  C  633  1  0.14022400  0.50496300  0.20522000  1
  C  634  1  0.13059300  0.48590800  0.20418100  1
  C  635  1  0.13555900  0.47206500  0.18858900  1
  C  636  1  0.14962400  0.47783600  0.17348500  1
  C  639  1  0.17455900  0.50254600  0.15998400  1
  C  640  1  0.17368200  0.52150400  0.14997700  1
  C  641  1  0.18899500  0.52728000  0.13614700  1
  C  642  1  0.20456400  0.51338300  0.13126900  1
  C  643  1  0.20536400  0.49424800  0.14076300  1
  C  644  1  0.19063100  0.48927100  0.15531900  1
  C  653  1  0.22000500  0.48033600  0.13545100  1
  C  654  1  0.12647800  0.45317800  0.18848200  1
  C  655  1  0.13483600  0.51882000  0.21988200  1
  C  656  1  0.18911800  0.54623800  0.12726500  1
  C  661  1  0.83962100  0.50273900  0.17469800  1
  C  662  1  0.84436300  0.48952600  0.19079400  1
  C  663  1  0.85915800  0.49445600  0.20530400  1
  C  664  1  0.86883300  0.51348900  0.20424900  1
  C  665  1  0.86385800  0.52735900  0.18868000  1
  C  666  1  0.84977800  0.52160600  0.17358200  1
  C  669  1  0.82485000  0.49691500  0.16005200  1
  C  670  1  0.82580700  0.47799200  0.14998100  1
  C  671  1  0.81059300  0.47225200  0.13602100  1
  C  672  1  0.79504200  0.48615800  0.13110400  1
  C  673  1  0.79414800  0.50524400  0.14069000  1
  C  674  1  0.80878900  0.51018600  0.15535000  1
  C  683  1  0.77952900  0.51915500  0.13533200  1
  C  684  1  0.87303700  0.54618500  0.18848800  1
  C  685  1  0.86453900  0.48057600  0.21994900  1
  C  686  1  0.81059600  0.45336100  0.12694300  1
  C  691  1  0.15995700  0.50250300  0.82486600  1
  C  692  1  0.15522400  0.48923300  0.80881400  1
  C  693  1  0.14053300  0.49417500  0.79420400  1
  C  694  1  0.13094100  0.51325600  0.79512700  1
  C  695  1  0.13588100  0.52715500  0.81067800  1
  C  696  1  0.14988000  0.52141800  0.82585500  1
  C  699  1  0.17463900  0.49668500  0.83960300  1
  C  700  1  0.17353500  0.47783600  0.84978800  1
  C  701  1  0.18864700  0.47210700  0.86386700  1
  C  702  1  0.20423500  0.48597400  0.86877900  1
  C  703  1  0.20528600  0.50498700  0.85906300  1
  C  704  1  0.19074900  0.50990300  0.84429200  1
  C  713  1  0.21995000  0.51886800  0.86439200  1
  C  714  1  0.12680300  0.54604500  0.81070600  1
  C  715  1  0.13515100  0.48026900  0.77959000  1
  C  716  1  0.18847900  0.45329000  0.87310200  1
  C  721  1  0.44783400  0.22450800  0.87953100  1
  C  722  1  0.44683800  0.24567000  0.88179700  1
  C  724  1  0.41579200  0.24353300  0.90046000  1
  C  725  1  0.41570900  0.22219600  0.89824500  1
  C  726  1  0.43186200  0.21300100  0.88763700  1
  C  728  1  0.40209100  0.25434800  0.91298200  1
  C  729  1  0.39523300  0.27427000  0.90892900  1
  C  730  1  0.38416100  0.28452800  0.92411400  1
  C  731  1  0.37972900  0.27526800  0.94275300  1
  C  732  1  0.38666600  0.25535800  0.94578900  1
  C  745  1  0.55159300  0.77499800  0.87966500  1
  C  746  1  0.55256000  0.75383700  0.88196300  1
  C  748  1  0.58364400  0.75595600  0.90056400  1
  C  749  1  0.58375500  0.77729000  0.89831600  1
  C  750  1  0.56759800  0.78649200  0.88772400  1
  C  752  1  0.59734300  0.74514200  0.91308900  1
  C  753  1  0.60417200  0.72520500  0.90905700  1
  C  754  1  0.61524000  0.71495300  0.92425000  1
  C  755  1  0.61969700  0.72423200  0.94287300  1
  C  756  1  0.61278900  0.74415600  0.94588600  1
  C  769  1  0.55158800  0.22454500  0.11993700  1
  C  770  1  0.55248900  0.24570600  0.11761000  1
  C  772  1  0.58359400  0.24366000  0.09903400  1
  C  773  1  0.58377800  0.22233200  0.10132300  1
  C  774  1  0.56764000  0.21309200  0.11191600  1
  C  776  1  0.59723600  0.25449800  0.08647000  1
  C  777  1  0.60394500  0.27449400  0.09041600  1
  C  778  1  0.61490100  0.28477000  0.07515900  1
  C  779  1  0.61937000  0.27545400  0.05655600  1
  C  780  1  0.61260100  0.25547000  0.05363300  1
  C  793  1  0.44759100  0.77503300  0.12001900  1
  C  794  1  0.44660500  0.75387000  0.11774700  1
  C  796  1  0.41559300  0.75599800  0.09902800  1
  C  797  1  0.41549900  0.77733500  0.10124700  1
  C  798  1  0.43163100  0.78653500  0.11188300  1
  C  800  1  0.40193100  0.74518200  0.08646600  1
  C  801  1  0.39509100  0.72524400  0.09048100  1
  C  802  1  0.38407500  0.71498500  0.07525600  1
  C  803  1  0.37968100  0.72425700  0.05661300  1
  C  804  1  0.38659500  0.74418000  0.05361700  1
  C  817  1  0.87953100  0.44783400  0.22450800  1
  C  818  1  0.88179700  0.44683800  0.24567000  1
  C  820  1  0.90046000  0.41579200  0.24353300  1
  C  821  1  0.89824500  0.41570900  0.22219600  1
  C  822  1  0.88763700  0.43186200  0.21300100  1
  C  824  1  0.91298200  0.40209100  0.25434800  1
  C  825  1  0.90892900  0.39523300  0.27427000  1
  C  826  1  0.92411400  0.38416100  0.28452800  1
  C  827  1  0.94275300  0.37972900  0.27526800  1
  C  828  1  0.94578900  0.38666600  0.25535800  1
  C  841  1  0.87966500  0.55159300  0.77499800  1
  C  842  1  0.88196300  0.55256000  0.75383700  1
  C  844  1  0.90056400  0.58364400  0.75595600  1
  C  845  1  0.89831600  0.58375500  0.77729000  1
  C  846  1  0.88772400  0.56759800  0.78649200  1
  C  848  1  0.91308900  0.59734300  0.74514200  1
  C  849  1  0.90905700  0.60417200  0.72520500  1
  C  850  1  0.92425000  0.61524000  0.71495300  1
  C  851  1  0.94287300  0.61969700  0.72423200  1
  C  852  1  0.94588600  0.61278900  0.74415600  1
  C  865  1  0.11993700  0.55158800  0.22454500  1
  C  866  1  0.11761000  0.55248900  0.24570600  1
  C  868  1  0.09903400  0.58359400  0.24366000  1
  C  869  1  0.10132300  0.58377800  0.22233200  1
  C  870  1  0.11191600  0.56764000  0.21309200  1
  C  872  1  0.08647000  0.59723600  0.25449800  1
  C  873  1  0.09041600  0.60394500  0.27449400  1
  C  874  1  0.07515900  0.61490100  0.28477000  1
  C  875  1  0.05655600  0.61937000  0.27545400  1
  C  876  1  0.05363300  0.61260100  0.25547000  1
  C  889  1  0.12001900  0.44759100  0.77503300  1
  C  890  1  0.11774700  0.44660500  0.75387000  1
  C  892  1  0.09902800  0.41559300  0.75599800  1
  C  893  1  0.10124700  0.41549900  0.77733500  1
  C  894  1  0.11188300  0.43163100  0.78653500  1
  C  896  1  0.08646600  0.40193100  0.74518200  1
  C  897  1  0.09048100  0.39509100  0.72524400  1
  C  898  1  0.07525600  0.38407500  0.71498500  1
  C  899  1  0.05661300  0.37968100  0.72425700  1
  C  900  1  0.05361700  0.38659500  0.74418000  1
  C  913  1  0.22450800  0.87953100  0.44783400  1
  C  914  1  0.24567000  0.88179700  0.44683800  1
  C  916  1  0.24353300  0.90046000  0.41579200  1
  C  917  1  0.22219600  0.89824500  0.41570900  1
  C  918  1  0.21300100  0.88763700  0.43186200  1
  C  920  1  0.25434800  0.91298200  0.40209100  1
  C  921  1  0.27427000  0.90892900  0.39523300  1
  C  922  1  0.28452800  0.92411400  0.38416100  1
  C  923  1  0.27526800  0.94275300  0.37972900  1
  C  924  1  0.25535800  0.94578900  0.38666600  1
  C  937  1  0.77499800  0.87966500  0.55159300  1
  C  938  1  0.75383700  0.88196300  0.55256000  1
  C  940  1  0.75595600  0.90056400  0.58364400  1
  C  941  1  0.77729000  0.89831600  0.58375500  1
  C  942  1  0.78649200  0.88772400  0.56759800  1
  C  944  1  0.74514200  0.91308900  0.59734300  1
  C  945  1  0.72520500  0.90905700  0.60417200  1
  C  946  1  0.71495300  0.92425000  0.61524000  1
  C  947  1  0.72423200  0.94287300  0.61969700  1
  C  948  1  0.74415600  0.94588600  0.61278900  1
  C  961  1  0.22454500  0.11993700  0.55158800  1
  C  962  1  0.24570600  0.11761000  0.55248900  1
  C  964  1  0.24366000  0.09903400  0.58359400  1
  C  965  1  0.22233200  0.10132300  0.58377800  1
  C  966  1  0.21309200  0.11191600  0.56764000  1
  C  968  1  0.25449800  0.08647000  0.59723600  1
  C  969  1  0.27449400  0.09041600  0.60394500  1
  C  970  1  0.28477000  0.07515900  0.61490100  1
  C  971  1  0.27545400  0.05655600  0.61937000  1
  C  972  1  0.25547000  0.05363300  0.61260100  1
  C  985  1  0.77503300  0.12001900  0.44759100  1
  C  986  1  0.75387000  0.11774700  0.44660500  1
  C  988  1  0.75599800  0.09902800  0.41559300  1
  C  989  1  0.77733500  0.10124700  0.41549900  1
  C  990  1  0.78653500  0.11188300  0.43163100  1
  C  992  1  0.74518200  0.08646600  0.40193100  1
  C  993  1  0.72524400  0.09048100  0.39509100  1
  C  994  1  0.71498500  0.07525600  0.38407500  1
  C  995  1  0.72425700  0.05661300  0.37968100  1
  C  996  1  0.74418000  0.05361700  0.38659500  1
  C  1009  1  0.22457100  0.44772300  0.12018100  1
  C  1010  1  0.24573300  0.44676100  0.11788900  1
  C  1012  1  0.24361700  0.41579100  0.09909900  1
  C  1013  1  0.22228200  0.41567300  0.10133500  1
  C  1014  1  0.21307600  0.43177300  0.11201400  1
  C  1016  1  0.25443700  0.40216700  0.08649600  1
  C  1017  1  0.27439100  0.39534900  0.09046900  1
  C  1018  1  0.28464800  0.38438300  0.07520600  1
  C  1019  1  0.27535500  0.38000800  0.05657000  1
  C  1020  1  0.25541600  0.38689600  0.05361600  1
  C  1033  1  0.77495700  0.55180700  0.12014700  1
  C  1034  1  0.75379500  0.55276700  0.11785700  1
  C  1036  1  0.75590800  0.58376600  0.09911200  1
  C  1037  1  0.77724200  0.58388400  0.10134900  1
  C  1038  1  0.78645000  0.56777000  0.11200500  1
  C  1040  1  0.74508500  0.59739600  0.08651800  1
  C  1041  1  0.72512900  0.60420500  0.09049500  1
  C  1042  1  0.71486500  0.61516800  0.07523500  1
  C  1043  1  0.72415400  0.61954500  0.05659600  1
  C  1044  1  0.74409700  0.61267200  0.05364000  1
  C  1057  1  0.22456000  0.55161800  0.87934300  1
  C  1058  1  0.24572300  0.55256800  0.88163400  1
  C  1060  1  0.24363400  0.58362900  0.90027600  1
  C  1061  1  0.22230000  0.58376400  0.89802600  1
  C  1062  1  0.21308100  0.56762600  0.88741800  1
  C  1064  1  0.25446100  0.59728600  0.91283400  1
  C  1065  1  0.27442600  0.60406300  0.90884700  1
  C  1066  1  0.28469900  0.61504700  0.92408700  1
  C  1067  1  0.27540900  0.61947600  0.94271200  1
  C  1068  1  0.25545500  0.61263400  0.94567600  1
  C  1081  1  0.77499500  0.44769500  0.87931000  1
  C  1082  1  0.75383000  0.44666700  0.88154700  1
  C  1084  1  0.75599500  0.41570600  0.90034500  1
  C  1085  1  0.77733800  0.41566200  0.89817700  1
  C  1086  1  0.78651800  0.43179000  0.88751900  1
  C  1088  1  0.74518200  0.40202000  0.91288500  1
  C  1089  1  0.72528000  0.39510700  0.90881100  1
  C  1090  1  0.71502400  0.38403100  0.92399500  1
  C  1091  1  0.72426600  0.37964600  0.94265400  1
  C  1092  1  0.74415200  0.38664200  0.94571500  1
  C  1105  1  0.44769500  0.87931000  0.77499500  1
  C  1106  1  0.44666700  0.88154700  0.75383000  1
  C  1108  1  0.41570600  0.90034500  0.75599500  1
  C  1109  1  0.41566200  0.89817700  0.77733800  1
  C  1110  1  0.43179000  0.88751900  0.78651800  1
  C  1112  1  0.40202000  0.91288500  0.74518200  1
  C  1113  1  0.39510700  0.90881100  0.72528000  1
  C  1114  1  0.38403100  0.92399500  0.71502400  1
  C  1115  1  0.37964600  0.94265400  0.72426600  1
  C  1116  1  0.38664200  0.94571500  0.74415200  1
  C  1129  1  0.55161800  0.87934300  0.22456000  1
  C  1130  1  0.55256800  0.88163300  0.24572300  1
  C  1132  1  0.58362900  0.90027600  0.24363400  1
  C  1133  1  0.58376400  0.89802600  0.22230000  1
  C  1134  1  0.56762600  0.88741800  0.21308100  1
  C  1136  1  0.59728600  0.91283400  0.25446100  1
  C  1137  1  0.60406300  0.90884700  0.27442600  1
  C  1138  1  0.61504700  0.92408700  0.28469900  1
  C  1139  1  0.61947600  0.94271200  0.27540900  1
  C  1140  1  0.61263400  0.94567600  0.25545600  1
  C  1153  1  0.55180700  0.12014700  0.77495700  1
  C  1154  1  0.55276700  0.11785700  0.75379500  1
  C  1156  1  0.58376600  0.09911200  0.75590800  1
  C  1157  1  0.58388400  0.10134900  0.77724200  1
  C  1158  1  0.56777000  0.11200500  0.78645000  1
  C  1160  1  0.59739600  0.08651800  0.74508500  1
  C  1161  1  0.60420500  0.09049500  0.72512900  1
  C  1162  1  0.61516800  0.07523500  0.71486500  1
  C  1163  1  0.61954500  0.05659600  0.72415400  1
  C  1164  1  0.61267200  0.05364000  0.74409700  1
  C  1177  1  0.44772100  0.12018100  0.22457100  1
  C  1178  1  0.44676100  0.11788900  0.24573300  1
  C  1180  1  0.41579100  0.09909900  0.24361700  1
  C  1181  1  0.41567300  0.10133500  0.22228200  1
  C  1182  1  0.43177300  0.11201500  0.21307600  1
  C  1184  1  0.40216700  0.08649600  0.25443700  1
  C  1185  1  0.39534900  0.09046900  0.27439100  1
  C  1186  1  0.38438300  0.07520600  0.28464800  1
  C  1187  1  0.38000800  0.05657000  0.27535500  1
  C  1188  1  0.38689600  0.05361600  0.25541600  1
  C  1201  1  0.87934300  0.22456000  0.55161800  1
  C  1202  1  0.88163400  0.24572300  0.55256800  1
  C  1204  1  0.90027600  0.24363400  0.58362900  1
  C  1205  1  0.89802600  0.22230000  0.58376400  1
  C  1206  1  0.88741800  0.21308100  0.56762600  1
  C  1208  1  0.91283400  0.25446100  0.59728600  1
  C  1209  1  0.90884700  0.27442600  0.60406300  1
  C  1210  1  0.92408700  0.28469900  0.61504700  1
  C  1211  1  0.94271200  0.27540900  0.61947600  1
  C  1212  1  0.94567600  0.25545500  0.61263400  1
  C  1225  1  0.87931000  0.77499500  0.44769500  1
  C  1226  1  0.88154700  0.75383000  0.44666700  1
  C  1228  1  0.90034500  0.75599500  0.41570600  1
  C  1229  1  0.89817700  0.77733800  0.41566200  1
  C  1230  1  0.88751900  0.78651800  0.43179000  1
  C  1232  1  0.91288500  0.74518200  0.40202000  1
  C  1233  1  0.90881100  0.72528000  0.39510700  1
  C  1234  1  0.92399500  0.71502400  0.38403100  1
  C  1235  1  0.94265400  0.72426600  0.37964600  1
  C  1236  1  0.94571500  0.74415200  0.38664200  1
  C  1249  1  0.12018100  0.22457100  0.44772300  1
  C  1250  1  0.11788900  0.24573300  0.44676100  1
  C  1252  1  0.09909900  0.24361700  0.41579100  1
  C  1253  1  0.10133500  0.22228200  0.41567300  1
  C  1254  1  0.11201400  0.21307600  0.43177300  1
  C  1256  1  0.08649600  0.25443700  0.40216700  1
  C  1257  1  0.09046900  0.27439100  0.39534900  1
  C  1258  1  0.07520600  0.28464800  0.38438300  1
  C  1259  1  0.05657000  0.27535500  0.38000800  1
  C  1260  1  0.05361600  0.25541600  0.38689600  1
  C  1273  1  0.12014700  0.77495700  0.55180700  1
  C  1274  1  0.11785700  0.75379500  0.55276900  1
  C  1276  1  0.09911200  0.75590800  0.58376600  1
  C  1277  1  0.10134900  0.77724200  0.58388400  1
  C  1278  1  0.11200500  0.78645000  0.56777000  1
  C  1280  1  0.08651800  0.74508600  0.59739600  1
  C  1281  1  0.09049500  0.72512900  0.60420500  1
  C  1282  1  0.07523500  0.71486500  0.61516800  1
  C  1283  1  0.05659600  0.72415400  0.61954500  1
  C  1284  1  0.05364000  0.74409700  0.61267200  1
  C  1297  1  0.56988800  0.78498100  0.12205700  1
  C  1298  1  0.57401200  0.76549900  0.12946700  1
  C  1300  1  0.59187200  0.75648900  0.09931300  1
  C  1301  1  0.58885900  0.77615000  0.09129900  1
  C  1302  1  0.57778200  0.79023900  0.10294400  1
  C  1304  1  0.60077400  0.74052000  0.08818800  1
  C  1305  1  0.61465700  0.72638900  0.09636800  1
  C  1306  1  0.62185100  0.71075000  0.08364300  1
  C  1307  1  0.61506200  0.70878400  0.06356000  1
  C  1308  1  0.60095400  0.72311000  0.05648000  1
  C  1321  1  0.42935400  0.21422100  0.12178700  1
  C  1322  1  0.42531200  0.23370800  0.12922900  1
  C  1324  1  0.40749100  0.24284400  0.09908900  1
  C  1325  1  0.41042200  0.22318300  0.09104300  1
  C  1326  1  0.42144100  0.20902800  0.10266500  1
  C  1328  1  0.39863000  0.25885900  0.08799700  1
  C  1329  1  0.38478500  0.27301100  0.09620700  1
  C  1330  1  0.37760300  0.28867300  0.08350500  1
  C  1331  1  0.38436800  0.29064400  0.06341400  1
  C  1332  1  0.39844500  0.27630100  0.05630600  1
  C  1345  1  0.42931300  0.78521500  0.87761700  1
  C  1346  1  0.42532400  0.76570600  0.87020600  1
  C  1348  1  0.40742900  0.75661000  0.90031200  1
  C  1349  1  0.41029700  0.77629500  0.90832000  1
  C  1350  1  0.42132700  0.79044300  0.89670000  1
  C  1352  1  0.39859900  0.74059800  0.91142900  1
  C  1353  1  0.38478300  0.72640500  0.90324500  1
  C  1354  1  0.37764800  0.71074000  0.91597200  1
  C  1355  1  0.38444200  0.70880400  0.93605700  1
  C  1356  1  0.39849000  0.72319000  0.94313600  1
  C  1369  1  0.56993200  0.21436800  0.87759200  1
  C  1370  1  0.57381000  0.23390300  0.87018900  1
  C  1372  1  0.59184000  0.24301500  0.90020900  1
  C  1373  1  0.58908700  0.22330700  0.90820200  1
  C  1374  1  0.57804300  0.20914000  0.89662000  1
  C  1376  1  0.60067600  0.25904000  0.91130700  1
  C  1377  1  0.61439800  0.27329800  0.90307900  1
  C  1378  1  0.62154200  0.28896800  0.91579600  1
  C  1379  1  0.61484300  0.29084800  0.93592000  1
  C  1380  1  0.60088600  0.27639700  0.94304200  1
  C  1393  1  0.12205700  0.56988800  0.78498100  1
  C  1394  1  0.12946700  0.57401200  0.76549800  1
  C  1396  1  0.09931300  0.59187200  0.75648900  1
  C  1397  1  0.09129900  0.58885900  0.77615000  1
  C  1398  1  0.10294400  0.57778200  0.79023900  1
  C  1400  1  0.08818900  0.60077400  0.74052000  1
  C  1401  1  0.09636800  0.61465700  0.72638900  1
  C  1402  1  0.08364400  0.62185100  0.71075000  1
  C  1403  1  0.06356000  0.61506200  0.70878400  1
  C  1404  1  0.05648000  0.60095400  0.72311000  1
  C  1417  1  0.12178800  0.42935400  0.21422300  1
  C  1418  1  0.12922900  0.42531200  0.23370800  1
  C  1420  1  0.09908900  0.40749100  0.24284400  1
  C  1421  1  0.09104300  0.41042200  0.22318300  1
  C  1422  1  0.10266600  0.42144100  0.20902800  1
  C  1424  1  0.08799800  0.39863000  0.25886000  1
  C  1425  1  0.09620800  0.38478500  0.27301100  1
  C  1426  1  0.08350500  0.37760300  0.28867300  1
  C  1427  1  0.06341400  0.38436600  0.29064400  1
  C  1428  1  0.05630600  0.39844500  0.27630100  1
  C  1441  1  0.87761700  0.42931300  0.78521500  1
  C  1442  1  0.87020600  0.42532400  0.76570600  1
  C  1444  1  0.90031200  0.40742900  0.75661000  1
  C  1445  1  0.90832000  0.41029700  0.77629500  1
  C  1446  1  0.89670000  0.42132700  0.79044300  1
  C  1448  1  0.91142900  0.39859900  0.74059800  1
  C  1449  1  0.90324500  0.38478300  0.72640500  1
  C  1450  1  0.91597200  0.37764800  0.71074000  1
  C  1451  1  0.93605700  0.38444200  0.70880400  1
  C  1452  1  0.94313600  0.39849000  0.72319000  1
  C  1465  1  0.87759200  0.56993200  0.21436800  1
  C  1466  1  0.87018900  0.57381000  0.23390300  1
  C  1468  1  0.90020900  0.59184000  0.24301500  1
  C  1469  1  0.90820200  0.58908700  0.22330700  1
  C  1470  1  0.89662000  0.57804300  0.20914000  1
  C  1472  1  0.91130700  0.60067600  0.25904000  1
  C  1473  1  0.90307900  0.61439800  0.27329800  1
  C  1474  1  0.91579600  0.62154200  0.28896800  1
  C  1475  1  0.93592000  0.61484300  0.29084800  1
  C  1476  1  0.94304200  0.60088600  0.27639700  1
  C  1489  1  0.78498100  0.12205700  0.56988800  1
  C  1490  1  0.76549900  0.12946700  0.57401200  1
  C  1492  1  0.75648900  0.09931300  0.59187200  1
  C  1493  1  0.77615000  0.09129900  0.58885900  1
  C  1494  1  0.79023900  0.10294400  0.57778200  1
  C  1496  1  0.74052000  0.08818900  0.60077400  1
  C  1497  1  0.72638900  0.09636800  0.61465700  1
  C  1498  1  0.71075000  0.08364300  0.62185100  1
  C  1499  1  0.70878400  0.06356000  0.61506200  1
  C  1500  1  0.72311000  0.05648000  0.60095400  1
  C  1513  1  0.21422300  0.12178800  0.42935400  1
  C  1514  1  0.23370800  0.12922900  0.42531200  1
  C  1516  1  0.24284400  0.09908900  0.40749100  1
  C  1517  1  0.22318300  0.09104300  0.41042200  1
  C  1518  1  0.20902800  0.10266600  0.42144100  1
  C  1520  1  0.25886000  0.08799800  0.39863000  1
  C  1521  1  0.27301100  0.09620800  0.38478500  1
  C  1522  1  0.28867300  0.08350500  0.37760300  1
  C  1523  1  0.29064400  0.06341400  0.38436600  1
  C  1524  1  0.27630100  0.05630600  0.39844500  1
  C  1537  1  0.78521500  0.87761700  0.42931300  1
  C  1538  1  0.76570600  0.87020600  0.42532400  1
  C  1540  1  0.75661000  0.90031200  0.40742900  1
  C  1541  1  0.77629500  0.90832000  0.41029700  1
  C  1542  1  0.79044300  0.89670000  0.42132700  1
  C  1544  1  0.74059800  0.91142900  0.39859900  1
  C  1545  1  0.72640500  0.90324500  0.38478300  1
  C  1546  1  0.71074000  0.91597200  0.37764800  1
  C  1547  1  0.70880400  0.93605700  0.38444200  1
  C  1548  1  0.72319000  0.94313600  0.39849000  1
  C  1561  1  0.21436800  0.87759200  0.56993200  1
  C  1562  1  0.23390300  0.87018900  0.57381000  1
  C  1564  1  0.24301500  0.90020900  0.59184000  1
  C  1565  1  0.22330700  0.90820200  0.58908700  1
  C  1566  1  0.20914000  0.89662000  0.57804300  1
  C  1568  1  0.25904000  0.91130700  0.60067600  1
  C  1569  1  0.27329800  0.90307900  0.61439800  1
  C  1570  1  0.28896800  0.91579600  0.62154200  1
  C  1571  1  0.29084800  0.93592000  0.61484300  1
  C  1572  1  0.27639700  0.94304200  0.60088600  1
  C  1585  1  0.78464400  0.57007400  0.87714300  1
  C  1586  1  0.76516100  0.57428900  0.86978600  1
  C  1588  1  0.75625600  0.59204300  0.90003300  1
  C  1589  1  0.77592200  0.58893800  0.90799800  1
  C  1590  1  0.78995800  0.57786500  0.89628300  1
  C  1592  1  0.74032100  0.60091600  0.91122700  1
  C  1593  1  0.72618200  0.61484000  0.90313300  1
  C  1594  1  0.71055100  0.62196500  0.91590700  1
  C  1595  1  0.70859600  0.61506100  0.93595100  1
  C  1596  1  0.72293400  0.60092300  0.94294700  1
  C  1609  1  0.21425300  0.42946700  0.87758700  1
  C  1610  1  0.23379600  0.42560900  0.87019100  1
  C  1612  1  0.24289900  0.40754900  0.90019400  1
  C  1613  1  0.22318300  0.41027600  0.90817700  1
  C  1614  1  0.20901600  0.42132400  0.89659900  1
  C  1616  1  0.25892100  0.39871600  0.91129300  1
  C  1617  1  0.27316800  0.38497900  0.90307300  1
  C  1618  1  0.28882600  0.37782600  0.91579600  1
  C  1619  1  0.29070700  0.38453400  0.93591800  1
  C  1620  1  0.27627100  0.39851100  0.94303200  1
  C  1633  1  0.78487100  0.42952600  0.12206500  1
  C  1634  1  0.76536500  0.42536500  0.12939100  1
  C  1636  1  0.75651200  0.40749400  0.09919700  1
  C  1637  1  0.77620100  0.41054500  0.09126500  1
  C  1638  1  0.79022200  0.42164800  0.10297100  1
  C  1640  1  0.74060800  0.39856700  0.08800300  1
  C  1641  1  0.72648400  0.38463500  0.09611300  1
  C  1642  1  0.71091500  0.37740900  0.08331900  1
  C  1643  1  0.70900200  0.38422400  0.06323900  1
  C  1644  1  0.72332000  0.39837500  0.05622800  1
  C  1657  1  0.21483900  0.57009100  0.12233000  1
  C  1658  1  0.23434300  0.57423900  0.12966600  1
  C  1660  1  0.24324000  0.59206700  0.09945800  1
  C  1661  1  0.22355000  0.58902900  0.09151700  1
  C  1662  1  0.20951000  0.57795100  0.10322300  1
  C  1664  1  0.25918200  0.60093800  0.08826600  1
  C  1665  1  0.27342800  0.61473000  0.09640500  1
  C  1666  1  0.28906700  0.62183800  0.08363400  1
  C  1667  1  0.29092300  0.61505600  0.06353700  1
  C  1668  1  0.27647200  0.60105900  0.05649000  1
  C  1681  1  0.57009100  0.12233000  0.21484000  1
  C  1682  1  0.57423900  0.12966600  0.23434300  1
  C  1684  1  0.59206700  0.09945800  0.24324000  1
  C  1685  1  0.58902900  0.09151700  0.22355000  1
  C  1686  1  0.57795100  0.10322300  0.20951000  1
  C  1688  1  0.60094000  0.08826600  0.25918200  1
  C  1689  1  0.61473000  0.09640600  0.27342800  1
  C  1690  1  0.62183800  0.08363400  0.28906700  1
  C  1691  1  0.61505600  0.06353700  0.29092300  1
  C  1692  1  0.60105900  0.05649000  0.27647200  1
  C  1705  1  0.42952600  0.12206500  0.78487100  1
  C  1706  1  0.42536500  0.12939100  0.76536500  1
  C  1708  1  0.40749400  0.09919700  0.75651200  1
  C  1709  1  0.41054500  0.09126500  0.77620100  1
  C  1710  1  0.42164800  0.10297100  0.79022200  1
  C  1712  1  0.39856700  0.08800300  0.74060800  1
  C  1713  1  0.38463500  0.09611300  0.72648400  1
  C  1714  1  0.37740900  0.08331900  0.71091500  1
  C  1715  1  0.38422400  0.06323900  0.70900200  1
  C  1716  1  0.39837500  0.05622800  0.72332000  1
  C  1729  1  0.42946700  0.87758700  0.21425300  1
  C  1730  1  0.42560900  0.87019100  0.23379600  1
  C  1732  1  0.40754900  0.90019400  0.24289900  1
  C  1733  1  0.41027600  0.90817700  0.22318300  1
  C  1734  1  0.42132400  0.89659900  0.20901600  1
  C  1736  1  0.39871600  0.91129300  0.25892100  1
  C  1737  1  0.38498100  0.90307300  0.27316800  1
  C  1738  1  0.37782600  0.91579600  0.28882700  1
  C  1739  1  0.38453400  0.93591600  0.29070700  1
  C  1740  1  0.39851100  0.94303200  0.27627100  1
  C  1753  1  0.57007400  0.87714300  0.78464400  1
  C  1754  1  0.57428900  0.86978600  0.76516100  1
  C  1756  1  0.59204300  0.90003300  0.75625600  1
  C  1757  1  0.58893800  0.90799800  0.77592200  1
  C  1758  1  0.57786500  0.89628300  0.78995800  1
  C  1760  1  0.60091600  0.91122700  0.74032100  1
  C  1761  1  0.61484000  0.90313300  0.72618200  1
  C  1762  1  0.62196500  0.91590700  0.71055100  1
  C  1763  1  0.61506100  0.93595100  0.70859600  1
  C  1764  1  0.60092300  0.94294700  0.72293400  1
  C  1777  1  0.12206500  0.78487100  0.42952600  1
  C  1778  1  0.12939100  0.76536500  0.42536500  1
  C  1780  1  0.09919700  0.75651200  0.40749400  1
  C  1781  1  0.09126500  0.77620100  0.41054500  1
  C  1782  1  0.10297100  0.79022200  0.42164800  1
  C  1784  1  0.08800300  0.74060800  0.39856700  1
  C  1785  1  0.09611300  0.72648400  0.38463500  1
  C  1786  1  0.08331900  0.71091500  0.37740900  1
  C  1787  1  0.06323900  0.70900200  0.38422400  1
  C  1788  1  0.05622800  0.72332000  0.39837500  1
  C  1801  1  0.12233000  0.21483900  0.57009100  1
  C  1802  1  0.12966600  0.23434300  0.57423900  1
  C  1804  1  0.09945800  0.24324000  0.59206700  1
  C  1805  1  0.09151700  0.22355000  0.58902900  1
  C  1806  1  0.10322300  0.20951000  0.57795100  1
  C  1808  1  0.08826600  0.25918200  0.60093800  1
  C  1809  1  0.09640500  0.27342800  0.61473000  1
  C  1810  1  0.08363400  0.28906700  0.62183800  1
  C  1811  1  0.06353700  0.29092300  0.61505600  1
  C  1812  1  0.05649000  0.27647200  0.60105900  1
  C  1825  1  0.87714300  0.78464400  0.57007400  1
  C  1826  1  0.86978600  0.76516100  0.57428900  1
  C  1828  1  0.90003300  0.75625600  0.59204300  1
  C  1829  1  0.90800000  0.77592200  0.58893800  1
  C  1830  1  0.89628300  0.78995800  0.57786500  1
  C  1832  1  0.91122800  0.74032100  0.60091600  1
  C  1833  1  0.90313300  0.72618200  0.61484000  1
  C  1834  1  0.91590700  0.71055100  0.62196500  1
  C  1835  1  0.93595100  0.70859600  0.61506100  1
  C  1836  1  0.94294700  0.72293400  0.60092200  1
  C  1849  1  0.87758700  0.21425300  0.42946700  1
  C  1850  1  0.87019100  0.23379600  0.42560900  1
  C  1852  1  0.90019400  0.24289900  0.40754900  1
  C  1853  1  0.90817700  0.22318300  0.41027600  1
  C  1854  1  0.89659900  0.20901600  0.42132400  1
  C  1856  1  0.91129300  0.25892100  0.39871600  1
  C  1857  1  0.90307300  0.27316800  0.38498100  1
  C  1858  1  0.91579600  0.28882700  0.37782600  1
  C  1859  1  0.93591600  0.29070700  0.38453400  1
  C  1860  1  0.94303200  0.27627100  0.39851100  1
  N  723  1  0.43137600  0.25408100  0.89220500  1
  N  733  1  0.39759300  0.24605900  0.93123400  1
  N  737  1  0.39943800  0.28345000  0.89009400  1
  N  738  1  0.39973900  0.21057900  0.90642200  1
  N  743  1  0.37202800  0.28649600  0.95747900  1
  N  744  1  0.46331000  0.21452300  0.87154500  1
  N  747  1  0.56803000  0.74541900  0.89235600  1
  N  757  1  0.60186700  0.75344900  0.93132600  1
  N  761  1  0.59993700  0.71600400  0.89024000  1
  N  762  1  0.59975800  0.78889500  0.90644900  1
  N  767  1  0.62739600  0.71301100  0.95760700  1
  N  768  1  0.53610700  0.78499400  0.87171800  1
  N  771  1  0.56793600  0.25415800  0.10721100  1
  N  781  1  0.60177200  0.24615700  0.06825000  1
  N  785  1  0.59969100  0.28373200  0.10921100  1
  N  786  1  0.59982300  0.21076600  0.09321700  1
  N  791  1  0.62688900  0.28667700  0.04173700  1
  N  792  1  0.53611300  0.21451100  0.12785700  1
  N  795  1  0.43116600  0.74545600  0.10730800  1
  N  805  1  0.39746900  0.75347900  0.06821000  1
  N  809  1  0.39926200  0.71604900  0.10931600  1
  N  810  1  0.39954200  0.78894900  0.09303800  1
  N  815  1  0.37204400  0.71302800  0.04185600  1
  N  816  1  0.46306900  0.78502300  0.12799000  1
  N  819  1  0.89220500  0.43137600  0.25408100  1
  N  829  1  0.93123400  0.39759300  0.24605900  1
  N  833  1  0.89009400  0.39943800  0.28345000  1
  N  834  1  0.90642200  0.39973900  0.21057900  1
  N  839  1  0.95747700  0.37202800  0.28649600  1
  N  840  1  0.87154500  0.46331000  0.21452300  1
  N  843  1  0.89235600  0.56803000  0.74541900  1
  N  853  1  0.93132600  0.60186700  0.75344900  1
  N  857  1  0.89024000  0.59993700  0.71600400  1
  N  858  1  0.90644900  0.59975800  0.78889500  1
  N  863  1  0.95760700  0.62739500  0.71301100  1
  N  864  1  0.87171800  0.53610700  0.78499400  1
  N  867  1  0.10721200  0.56793600  0.25415800  1
  N  877  1  0.06825000  0.60177200  0.24615700  1
  N  881  1  0.10921100  0.59969100  0.28373200  1
  N  882  1  0.09321700  0.59982300  0.21076600  1
  N  887  1  0.04173700  0.62688900  0.28667700  1
  N  888  1  0.12785700  0.53611300  0.21451100  1
  N  891  1  0.10730800  0.43116600  0.74545600  1
  N  901  1  0.06821000  0.39746900  0.75347900  1
  N  905  1  0.10931600  0.39926200  0.71604900  1
  N  906  1  0.09303800  0.39954200  0.78894900  1
  N  911  1  0.04185600  0.37204400  0.71302800  1
  N  912  1  0.12799000  0.46306900  0.78502200  1
  N  915  1  0.25408100  0.89220500  0.43137600  1
  N  925  1  0.24605900  0.93123400  0.39759300  1
  N  929  1  0.28345000  0.89009400  0.39943800  1
  N  930  1  0.21057900  0.90642200  0.39973900  1
  N  935  1  0.28649600  0.95747700  0.37202800  1
  N  936  1  0.21452300  0.87154500  0.46331000  1
  N  939  1  0.74541900  0.89235600  0.56803000  1
  N  949  1  0.75344900  0.93132600  0.60186700  1
  N  953  1  0.71600400  0.89024000  0.59993700  1
  N  954  1  0.78889500  0.90644900  0.59975800  1
  N  959  1  0.71301100  0.95760700  0.62739600  1
  N  960  1  0.78499400  0.87171800  0.53610700  1
  N  963  1  0.25415800  0.10721200  0.56793600  1
  N  973  1  0.24615700  0.06825000  0.60177200  1
  N  977  1  0.28373200  0.10921100  0.59969100  1
  N  978  1  0.21076600  0.09321700  0.59982300  1
  N  983  1  0.28667700  0.04173700  0.62688900  1
  N  984  1  0.21451100  0.12785700  0.53611300  1
  N  987  1  0.74545600  0.10730800  0.43116600  1
  N  997  1  0.75347900  0.06821000  0.39746900  1
  N  1001  1  0.71604900  0.10931600  0.39926200  1
  N  1002  1  0.78894900  0.09303800  0.39954200  1
  N  1007  1  0.71302800  0.04185500  0.37204400  1
  N  1008  1  0.78502200  0.12799000  0.46306900  1
  N  1011  1  0.25415200  0.43135300  0.10740600  1
  N  1021  1  0.24612000  0.39772600  0.06824300  1
  N  1025  1  0.28360700  0.39949700  0.10929900  1
  N  1026  1  0.21067400  0.39972400  0.09310000  1
  N  1031  1  0.28656700  0.37242900  0.04177200  1
  N  1032  1  0.21457700  0.46317200  0.12820000  1
  N  1035  1  0.74537500  0.56818800  0.10739600  1
  N  1045  1  0.75339900  0.60184300  0.06826500  1
  N  1049  1  0.71591800  0.60004800  0.10932500  1
  N  1050  1  0.78884700  0.59984500  0.09313400  1
  N  1055  1  0.71292800  0.62712000  0.04180400  1
  N  1056  1  0.78495700  0.53633500  0.12812300  1
  N  1059  1  0.25415500  0.56801400  0.89204600  1
  N  1069  1  0.24614700  0.60178300  0.93107400  1
  N  1073  1  0.28363900  0.59985300  0.89002900  1
  N  1074  1  0.21071000  0.59976700  0.90618200  1
  N  1079  1  0.28663800  0.62704600  0.95750100  1
  N  1080  1  0.21455000  0.53614600  0.87138700  1
  N  1083  1  0.74543100  0.43123300  0.89200400  1
  N  1093  1  0.75344800  0.39756900  0.93115800  1
  N  1097  1  0.71612000  0.39925900  0.88995500  1
  N  1098  1  0.78897500  0.39975200  0.90644300  1
  N  1103  1  0.71303800  0.37191600  0.95736200  1
  N  1104  1  0.78496100  0.46316000  0.87128100  1
  N  1107  1  0.43123300  0.89200400  0.74543100  1
  N  1117  1  0.39756900  0.93115800  0.75344800  1
  N  1121  1  0.39925900  0.88995500  0.71612000  1
  N  1122  1  0.39975200  0.90644300  0.78897500  1
  N  1127  1  0.37191600  0.95736200  0.71303800  1
  N  1128  1  0.46316000  0.87128100  0.78496100  1
  N  1131  1  0.56801400  0.89204600  0.25415500  1
  N  1141  1  0.60178300  0.93107400  0.24614700  1
  N  1145  1  0.59985300  0.89002900  0.28363900  1
  N  1146  1  0.59976700  0.90618200  0.21071000  1
  N  1151  1  0.62704600  0.95750100  0.28663800  1
  N  1152  1  0.53614600  0.87138700  0.21455000  1
  N  1155  1  0.56818800  0.10739600  0.74537500  1
  N  1165  1  0.60184300  0.06826500  0.75339900  1
  N  1169  1  0.60004800  0.10932500  0.71591800  1
  N  1170  1  0.59984500  0.09313400  0.78884700  1
  N  1175  1  0.62712000  0.04180400  0.71292800  1
  N  1176  1  0.53633500  0.12812300  0.78495700  1
  N  1179  1  0.43135300  0.10740600  0.25415200  1
  N  1189  1  0.39772600  0.06824300  0.24612000  1
  N  1193  1  0.39949700  0.10929900  0.28360700  1
  N  1194  1  0.39972400  0.09310000  0.21067400  1
  N  1199  1  0.37242900  0.04177200  0.28656700  1
  N  1200  1  0.46317200  0.12820100  0.21457700  1
  N  1203  1  0.89204600  0.25415500  0.56801400  1
  N  1213  1  0.93107400  0.24614700  0.60178300  1
  N  1217  1  0.89002900  0.28363900  0.59985300  1
  N  1218  1  0.90618200  0.21071000  0.59976700  1
  N  1223  1  0.95750100  0.28663800  0.62704600  1
  N  1224  1  0.87138700  0.21455000  0.53614600  1
  N  1227  1  0.89200400  0.74543100  0.43123300  1
  N  1237  1  0.93115800  0.75344800  0.39756900  1
  N  1241  1  0.88995500  0.71612000  0.39925900  1
  N  1242  1  0.90644300  0.78897500  0.39975200  1
  N  1247  1  0.95736200  0.71303800  0.37191600  1
  N  1248  1  0.87128100  0.78496100  0.46316000  1
  N  1251  1  0.10740600  0.25415200  0.43135300  1
  N  1261  1  0.06824300  0.24612000  0.39772600  1
  N  1265  1  0.10929900  0.28360700  0.39949700  1
  N  1266  1  0.09310000  0.21067400  0.39972400  1
  N  1271  1  0.04177200  0.28656700  0.37242900  1
  N  1272  1  0.12820000  0.21457700  0.46317200  1
  N  1275  1  0.10739500  0.74537500  0.56818800  1
  N  1285  1  0.06826500  0.75339900  0.60184300  1
  N  1289  1  0.10932500  0.71591800  0.60004800  1
  N  1290  1  0.09313400  0.78884700  0.59984700  1
  N  1295  1  0.04180400  0.71292800  0.62712000  1
  N  1296  1  0.12812300  0.78495700  0.53633500  1
  N  1299  1  0.58432500  0.75214300  0.11791200  1
  N  1309  1  0.59451000  0.73806000  0.06879900  1
  N  1313  1  0.62140300  0.72842100  0.11653800  1
  N  1314  1  0.59714100  0.78145000  0.07231700  1
  N  1319  1  0.62260000  0.69392400  0.05240200  1
  N  1320  1  0.55821700  0.79688600  0.13313400  1
  N  1323  1  0.41505500  0.24712700  0.11769700  1
  N  1333  1  0.40487300  0.26132600  0.06860200  1
  N  1337  1  0.37806000  0.27097400  0.11638400  1
  N  1338  1  0.40211300  0.21794300  0.07205800  1
  N  1343  1  0.37683000  0.30552000  0.05227200  1
  N  1344  1  0.44094200  0.20222800  0.13285400  1
  N  1347  1  0.41505700  0.75229500  0.88173800  1
  N  1357  1  0.40486800  0.73816900  0.93082000  1
  N  1361  1  0.37804800  0.72839900  0.88306700  1
  N  1362  1  0.40192100  0.78155900  0.92727000  1
  N  1367  1  0.37696800  0.69391300  0.94722100  1
  N  1368  1  0.44093000  0.79719900  0.86657100  1
  N  1371  1  0.58409400  0.24733200  0.88168500  1
  N  1381  1  0.59449800  0.26141500  0.93073400  1
  N  1385  1  0.62103100  0.27136300  0.88286200  1
  N  1386  1  0.59759100  0.21804200  0.92709500  1
  N  1391  1  0.62230700  0.30575700  0.94706700  1
  N  1392  1  0.55831100  0.20234600  0.86658500  1
  N  1395  1  0.11791300  0.58432500  0.75214300  1
  N  1405  1  0.06879900  0.59451000  0.73806000  1
  N  1409  1  0.11653800  0.62140300  0.72842000  1
  N  1410  1  0.07231800  0.59714100  0.78145000  1
  N  1415  1  0.05240200  0.62260000  0.69392400  1
  N  1416  1  0.13313400  0.55821700  0.79688600  1
  N  1419  1  0.11769700  0.41505500  0.24712700  1
  N  1429  1  0.06860200  0.40487300  0.26132600  1
  N  1433  1  0.11638400  0.37806000  0.27097500  1
  N  1434  1  0.07205800  0.40211300  0.21794300  1
  N  1439  1  0.05227200  0.37683000  0.30552000  1
  N  1440  1  0.13285400  0.44094200  0.20222800  1
  N  1443  1  0.88173800  0.41505700  0.75229500  1
  N  1453  1  0.93082000  0.40486800  0.73816900  1
  N  1457  1  0.88306700  0.37804800  0.72839900  1
  N  1458  1  0.92727000  0.40192100  0.78155900  1
  N  1463  1  0.94722100  0.37696800  0.69391300  1
  N  1464  1  0.86657100  0.44093000  0.79719900  1
  N  1467  1  0.88168500  0.58409400  0.24733200  1
  N  1477  1  0.93073400  0.59449800  0.26141500  1
  N  1481  1  0.88286200  0.62103100  0.27136300  1
  N  1482  1  0.92709500  0.59759100  0.21804200  1
  N  1487  1  0.94706700  0.62230700  0.30575700  1
  N  1488  1  0.86658500  0.55831100  0.20234600  1
  N  1491  1  0.75214300  0.11791200  0.58432500  1
  N  1501  1  0.73806000  0.06879900  0.59451000  1
  N  1505  1  0.72842100  0.11653800  0.62140300  1
  N  1506  1  0.78145000  0.07231700  0.59714100  1
  N  1511  1  0.69392400  0.05240200  0.62260000  1
  N  1512  1  0.79688600  0.13313400  0.55821700  1
  N  1515  1  0.24712700  0.11769700  0.41505500  1
  N  1525  1  0.26132600  0.06860200  0.40487300  1
  N  1529  1  0.27097500  0.11638400  0.37806000  1
  N  1530  1  0.21794300  0.07205800  0.40211300  1
  N  1535  1  0.30552000  0.05227200  0.37683000  1
  N  1536  1  0.20222800  0.13285400  0.44094200  1
  N  1539  1  0.75229500  0.88173800  0.41505700  1
  N  1549  1  0.73816900  0.93082000  0.40486800  1
  N  1553  1  0.72839900  0.88306700  0.37804800  1
  N  1554  1  0.78155900  0.92727000  0.40192100  1
  N  1559  1  0.69391300  0.94722100  0.37696800  1
  N  1560  1  0.79719900  0.86657100  0.44093000  1
  N  1563  1  0.24733200  0.88168500  0.58409400  1
  N  1573  1  0.26141500  0.93073400  0.59449800  1
  N  1577  1  0.27136300  0.88286200  0.62103100  1
  N  1578  1  0.21804200  0.92709500  0.59759100  1
  N  1583  1  0.30575700  0.94706700  0.62230700  1
  N  1584  1  0.20234600  0.86658500  0.55831100  1
  N  1587  1  0.75185600  0.58458700  0.88140900  1
  N  1597  1  0.73787600  0.59454900  0.93058400  1
  N  1601  1  0.72818900  0.62168400  0.88299200  1
  N  1602  1  0.78127800  0.59712100  0.92700700  1
  N  1607  1  0.69372300  0.62251300  0.94715100  1
  N  1608  1  0.79647100  0.55839400  0.86599600  1
  N  1611  1  0.24722400  0.41532000  0.88168200  1
  N  1621  1  0.26129600  0.40490300  0.93071700  1
  N  1625  1  0.27123100  0.37834100  0.88285700  1
  N  1626  1  0.21791500  0.40174700  0.92705700  1
  N  1631  1  0.30559400  0.37704800  0.94708200  1
  N  1632  1  0.20223700  0.44110900  0.86659800  1
  N  1635  1  0.75207600  0.41502800  0.11778000  1
  N  1645  1  0.73820700  0.40484100  0.06860900  1
  N  1649  1  0.72845500  0.37787600  0.11628400  1
  N  1650  1  0.78159400  0.40227900  0.07230400  1
  N  1655  1  0.69421800  0.37665400  0.05200200  1
  N  1656  1  0.79670300  0.44122600  0.13319200  1
  N  1659  1  0.24765100  0.58454200  0.11805100  1
  N  1669  1  0.26153100  0.59468800  0.06885900  1
  N  1673  1  0.27152100  0.62146300  0.11659200  1
  N  1674  1  0.21817700  0.59728100  0.07254400  1
  N  1679  1  0.30582600  0.62247700  0.05235400  1
  N  1680  1  0.20300100  0.55840900  0.13346500  1
  N  1683  1  0.58454200  0.11805100  0.24765100  1
  N  1693  1  0.59469000  0.06885900  0.26153100  1
  N  1697  1  0.62146300  0.11659200  0.27152100  1
  N  1698  1  0.59728100  0.07254400  0.21817700  1
  N  1703  1  0.62247700  0.05235400  0.30582600  1
  N  1704  1  0.55840900  0.13346500  0.20300100  1
  N  1707  1  0.41502800  0.11778000  0.75207600  1
  N  1717  1  0.40484100  0.06860900  0.73820700  1
  N  1721  1  0.37787400  0.11628400  0.72845500  1
  N  1722  1  0.40227900  0.07230400  0.78159400  1
  N  1727  1  0.37665400  0.05200200  0.69421800  1
  N  1728  1  0.44122600  0.13319200  0.79670300  1
  N  1731  1  0.41532000  0.88168200  0.24722400  1
  N  1741  1  0.40490300  0.93071700  0.26129600  1
  N  1745  1  0.37834100  0.88285700  0.27123100  1
  N  1746  1  0.40174700  0.92705700  0.21791500  1
  N  1751  1  0.37704800  0.94708000  0.30559400  1
  N  1752  1  0.44110900  0.86659800  0.20223700  1
  N  1755  1  0.58458700  0.88140900  0.75185600  1
  N  1765  1  0.59454900  0.93058400  0.73787600  1
  N  1769  1  0.62168400  0.88299200  0.72818900  1
  N  1770  1  0.59712100  0.92700700  0.78127800  1
  N  1775  1  0.62251300  0.94715100  0.69372300  1
  N  1776  1  0.55839400  0.86599600  0.79647200  1
  N  1779  1  0.11778000  0.75207600  0.41502800  1
  N  1789  1  0.06860900  0.73820700  0.40484100  1
  N  1793  1  0.11628400  0.72845500  0.37787600  1
  N  1794  1  0.07230400  0.78159400  0.40227900  1
  N  1799  1  0.05200200  0.69421800  0.37665400  1
  N  1800  1  0.13319200  0.79670300  0.44122600  1
  N  1803  1  0.11805100  0.24765100  0.58454200  1
  N  1813  1  0.06885900  0.26153100  0.59468800  1
  N  1817  1  0.11659200  0.27152100  0.62146300  1
  N  1818  1  0.07254400  0.21817700  0.59728100  1
  N  1823  1  0.05235400  0.30582600  0.62247700  1
  N  1824  1  0.13346500  0.20300100  0.55840900  1
  N  1827  1  0.88141100  0.75185600  0.58458700  1
  N  1837  1  0.93058400  0.73787600  0.59454800  1
  N  1841  1  0.88299300  0.72818900  0.62168400  1
  N  1842  1  0.92700700  0.78127700  0.59712000  1
  N  1847  1  0.94715100  0.69372300  0.62251300  1
  N  1848  1  0.86599600  0.79647200  0.55839400  1
  N  1851  1  0.88168200  0.24722400  0.41532000  1
  N  1861  1  0.93071700  0.26129600  0.40490300  1
  N  1865  1  0.88285700  0.27123100  0.37834100  1
  N  1866  1  0.92705700  0.21791500  0.40174700  1
  N  1871  1  0.94708000  0.30559400  0.37704800  1
  N  1872  1  0.86659800  0.20223700  0.44110900  1
  O  8  1  0.28289700  0.38749800  0.99342300  1
  O  15  1  0.38699200  0.28266000  0.00590700  1
  O  17  1  0.34153800  0.35296400  0.96763200  1
  O  18  1  0.35284100  0.34158500  0.03154600  1
  O  38  1  0.71651900  0.61201900  0.99339000  1
  O  45  1  0.61241600  0.71682200  0.00605500  1
  O  47  1  0.65779700  0.64654100  0.96777100  1
  O  48  1  0.64660100  0.65789700  0.03165600  1
  O  68  1  0.71693600  0.38692900  0.00579100  1
  O  75  1  0.61183700  0.28308600  0.99346800  1
  O  77  1  0.65793600  0.35292100  0.03144400  1
  O  78  1  0.64653200  0.34157400  0.96755200  1
  O  98  1  0.28295000  0.61207200  0.00590600  1
  O  105  1  0.38721300  0.71673500  0.99349400  1
  O  107  1  0.34155600  0.64666500  0.03167600  1
  O  108  1  0.35297700  0.65788600  0.96779100  1
  O  128  1  0.99342300  0.28289700  0.38749800  1
  O  135  1  0.00590700  0.38699200  0.28266000  1
  O  137  1  0.96763200  0.34153800  0.35296400  1
  O  138  1  0.03154600  0.35284100  0.34158500  1
  O  158  1  0.99339000  0.71651900  0.61201900  1
  O  165  1  0.00605500  0.61241600  0.71682200  1
  O  167  1  0.96777100  0.65779700  0.64654100  1
  O  168  1  0.03165600  0.64660100  0.65789800  1
  O  188  1  0.00579100  0.71693600  0.38692900  1
  O  195  1  0.99346800  0.61183700  0.28308600  1
  O  197  1  0.03144400  0.65793600  0.35292100  1
  O  198  1  0.96755200  0.64653200  0.34157400  1
  O  218  1  0.00590600  0.28295000  0.61207200  1
  O  225  1  0.99349400  0.38721300  0.71673500  1
  O  227  1  0.03167600  0.34155600  0.64666500  1
  O  228  1  0.96779100  0.35297700  0.65788600  1
  O  248  1  0.38749800  0.99342300  0.28289700  1
  O  255  1  0.28266000  0.00590700  0.38699200  1
  O  257  1  0.35296400  0.96763200  0.34153800  1
  O  258  1  0.34158500  0.03154600  0.35284100  1
  O  278  1  0.61201800  0.99339000  0.71651900  1
  O  285  1  0.71682200  0.00605500  0.61241600  1
  O  287  1  0.64654100  0.96777100  0.65779700  1
  O  288  1  0.65789700  0.03165600  0.64660100  1
  O  308  1  0.38692900  0.00579100  0.71693600  1
  O  315  1  0.28308600  0.99346800  0.61183700  1
  O  317  1  0.35292100  0.03144400  0.65793600  1
  O  318  1  0.34157400  0.96755200  0.64653200  1
  O  338  1  0.61207200  0.00590600  0.28295000  1
  O  345  1  0.71673500  0.99349400  0.38721300  1
  O  347  1  0.64666500  0.03167600  0.34155600  1
  O  348  1  0.65788600  0.96779100  0.35297700  1
  O  368  1  0.78098500  0.88293700  0.48082900  1
  O  375  1  0.88201600  0.78046000  0.51844700  1
  O  377  1  0.84148400  0.84589400  0.46486000  1
  O  378  1  0.84561100  0.84131400  0.53453200  1
  O  398  1  0.21845400  0.11655400  0.48083400  1
  O  405  1  0.11744000  0.21903500  0.51847200  1
  O  407  1  0.15792700  0.15356500  0.46487700  1
  O  408  1  0.15382000  0.15816000  0.53453500  1
  O  428  1  0.21848500  0.88292500  0.51851900  1
  O  435  1  0.11714500  0.78067600  0.48112700  1
  O  437  1  0.15800300  0.84586500  0.53454700  1
  O  438  1  0.15386400  0.84133200  0.46497800  1
  O  458  1  0.78078700  0.11695700  0.51829700  1
  O  465  1  0.88285100  0.21849800  0.48096100  1
  O  467  1  0.84137400  0.15379600  0.53443100  1
  O  468  1  0.84590900  0.15795600  0.46488300  1
  O  488  1  0.48082900  0.78098500  0.88293700  1
  O  495  1  0.51844700  0.88201600  0.78046000  1
  O  497  1  0.46486200  0.84148400  0.84589400  1
  O  498  1  0.53453200  0.84561100  0.84131400  1
  O  518  1  0.48083400  0.21845400  0.11655400  1
  O  525  1  0.51847200  0.11744000  0.21903700  1
  O  527  1  0.46487700  0.15792700  0.15356500  1
  O  528  1  0.53453300  0.15382000  0.15816000  1
  O  548  1  0.51851900  0.21848500  0.88292500  1
  O  555  1  0.48112700  0.11714500  0.78067600  1
  O  557  1  0.53454700  0.15800300  0.84586500  1
  O  558  1  0.46497800  0.15386400  0.84133200  1
  O  578  1  0.51829700  0.78078700  0.11695700  1
  O  585  1  0.48096100  0.88285100  0.21849800  1
  O  587  1  0.53443200  0.84137400  0.15379600  1
  O  588  1  0.46488300  0.84590900  0.15795600  1
  O  608  1  0.88293700  0.48082900  0.78098500  1
  O  615  1  0.78046000  0.51844700  0.88201600  1
  O  617  1  0.84589400  0.46486000  0.84148400  1
  O  618  1  0.84131400  0.53453200  0.84561100  1
  O  638  1  0.11655400  0.48083400  0.21845400  1
  O  645  1  0.21903500  0.51847200  0.11744000  1
  O  647  1  0.15356500  0.46487700  0.15792700  1
  O  648  1  0.15816000  0.53453500  0.15382000  1
  O  668  1  0.88292500  0.51851900  0.21848400  1
  O  675  1  0.78067600  0.48112700  0.11714500  1
  O  677  1  0.84586500  0.53454700  0.15800300  1
  O  678  1  0.84133200  0.46497800  0.15386400  1
  O  698  1  0.11695700  0.51829700  0.78078700  1
  O  705  1  0.21849800  0.48096100  0.88285100  1
  O  707  1  0.15379600  0.53443200  0.84137400  1
  O  708  1  0.15795600  0.46488300  0.84590900  1
  O  739  1  0.40961900  0.29932100  0.89222700  1
  O  740  1  0.40609900  0.19813100  0.91926000  1
  O  741  1  0.39045200  0.20109300  0.89286800  1
  O  742  1  0.38345400  0.28770500  0.88079800  1
  O  763  1  0.58973500  0.70015100  0.89240200  1
  O  764  1  0.59343800  0.80137000  0.91927900  1
  O  765  1  0.60903500  0.79834800  0.89286300  1
  O  766  1  0.61590800  0.71171400  0.88093600  1
  O  787  1  0.58937600  0.29950800  0.10701700  1
  O  788  1  0.59355300  0.19825100  0.08040200  1
  O  789  1  0.60912300  0.20136400  0.10682300  1
  O  790  1  0.61565400  0.28816400  0.11846000  1
  O  811  1  0.40947600  0.70019800  0.10719200  1
  O  812  1  0.40592400  0.80139700  0.08021100  1
  O  813  1  0.39022800  0.79843600  0.10657500  1
  O  814  1  0.38326100  0.71175800  0.11856700  1
  O  835  1  0.89222700  0.40961900  0.29932100  1
  O  836  1  0.91926000  0.40609900  0.19813100  1
  O  837  1  0.89286800  0.39045200  0.20109300  1
  O  838  1  0.88079800  0.38345400  0.28770500  1
  O  859  1  0.89240200  0.58973500  0.70015100  1
  O  860  1  0.91927900  0.59343800  0.80137000  1
  O  861  1  0.89286300  0.60903500  0.79834800  1
  O  862  1  0.88093600  0.61590800  0.71171400  1
  O  883  1  0.10701700  0.58937600  0.29950800  1
  O  884  1  0.08040200  0.59355300  0.19825200  1
  O  885  1  0.10682300  0.60912300  0.20136400  1
  O  886  1  0.11846000  0.61565600  0.28816400  1
  O  907  1  0.10719200  0.40947600  0.70019800  1
  O  908  1  0.08021100  0.40592400  0.80139700  1
  O  909  1  0.10657500  0.39022800  0.79843600  1
  O  910  1  0.11856700  0.38326100  0.71175800  1
  O  931  1  0.29932100  0.89222700  0.40961900  1
  O  932  1  0.19813100  0.91926000  0.40609900  1
  O  933  1  0.20109300  0.89286800  0.39045200  1
  O  934  1  0.28770500  0.88079800  0.38345400  1
  O  955  1  0.70015100  0.89240200  0.58973500  1
  O  956  1  0.80137000  0.91927900  0.59343800  1
  O  957  1  0.79834800  0.89286300  0.60903500  1
  O  958  1  0.71171400  0.88093600  0.61590800  1
  O  979  1  0.29950800  0.10701700  0.58937600  1
  O  980  1  0.19825200  0.08040200  0.59355300  1
  O  981  1  0.20136400  0.10682300  0.60912300  1
  O  982  1  0.28816400  0.11846000  0.61565600  1
  O  1003  1  0.70019800  0.10719200  0.40947600  1
  O  1004  1  0.80139700  0.08021100  0.40592400  1
  O  1005  1  0.79843600  0.10657500  0.39022800  1
  O  1006  1  0.71175800  0.11856700  0.38326100  1
  O  1027  1  0.29943900  0.40974000  0.10717400  1
  O  1028  1  0.19821100  0.40612300  0.08029900  1
  O  1029  1  0.20120900  0.39037000  0.10662500  1
  O  1030  1  0.28793600  0.38348400  0.11851100  1
  O  1051  1  0.70009100  0.58979700  0.10719800  1
  O  1052  1  0.80130900  0.59346400  0.08032300  1
  O  1053  1  0.79831200  0.60918200  0.10667000  1
  O  1054  1  0.71158100  0.61605600  0.11854100  1
  O  1075  1  0.29945400  0.58959000  0.89218200  1
  O  1076  1  0.19823100  0.59344200  0.91900500  1
  O  1077  1  0.20126300  0.60907000  0.89260900  1
  O  1078  1  0.28799500  0.61583700  0.88077900  1
  O  1099  1  0.70022200  0.40940600  0.89204600  1
  O  1100  1  0.80138000  0.40619400  0.91928000  1
  O  1101  1  0.79851000  0.39043100  0.89294600  1
  O  1102  1  0.71191900  0.38325000  0.88067700  1
  O  1123  1  0.40940600  0.89204600  0.70022200  1
  O  1124  1  0.40619400  0.91928000  0.80138000  1
  O  1125  1  0.39043100  0.89294600  0.79851000  1
  O  1126  1  0.38325000  0.88067700  0.71191900  1
  O  1147  1  0.58959000  0.89218200  0.29945400  1
  O  1148  1  0.59344200  0.91900500  0.19823100  1
  O  1149  1  0.60907000  0.89260900  0.20126300  1
  O  1150  1  0.61583700  0.88077900  0.28799500  1
  O  1171  1  0.58979700  0.10719800  0.70009100  1
  O  1172  1  0.59346400  0.08032300  0.80130900  1
  O  1173  1  0.60918200  0.10667000  0.79831200  1
  O  1174  1  0.61605600  0.11854100  0.71158100  1
  O  1195  1  0.40974000  0.10717400  0.29943900  1
  O  1196  1  0.40612300  0.08029900  0.19821100  1
  O  1197  1  0.39037000  0.10662500  0.20120900  1
  O  1198  1  0.38348400  0.11851100  0.28793600  1
  O  1219  1  0.89218200  0.29945400  0.58959000  1
  O  1220  1  0.91900500  0.19823100  0.59344200  1
  O  1221  1  0.89260900  0.20126300  0.60906900  1
  O  1222  1  0.88077900  0.28799500  0.61583700  1
  O  1243  1  0.89204600  0.70022200  0.40940600  1
  O  1244  1  0.91928000  0.80138000  0.40619400  1
  O  1245  1  0.89294600  0.79851000  0.39043100  1
  O  1246  1  0.88067700  0.71191900  0.38325000  1
  O  1267  1  0.10717400  0.29943900  0.40974000  1
  O  1268  1  0.08029900  0.19821000  0.40612300  1
  O  1269  1  0.10662500  0.20120900  0.39037000  1
  O  1270  1  0.11851100  0.28793600  0.38348400  1
  O  1291  1  0.10719800  0.70009100  0.58979700  1
  O  1292  1  0.08032300  0.80130900  0.59346500  1
  O  1293  1  0.10667000  0.79831200  0.60918200  1
  O  1294  1  0.11854100  0.71158100  0.61605600  1
  O  1315  1  0.61694100  0.71310900  0.12681900  1
  O  1316  1  0.58362900  0.78671400  0.06008000  1
  O  1317  1  0.60967300  0.79560100  0.07398200  1
  O  1318  1  0.64018100  0.73100200  0.11734600  1
  O  1339  1  0.38256500  0.28626800  0.12667400  1
  O  1340  1  0.41559600  0.21263500  0.05981000  1
  O  1341  1  0.38951900  0.20384500  0.07370900  1
  O  1342  1  0.35927800  0.26843100  0.11721500  1
  O  1363  1  0.38259000  0.71310300  0.87279700  1
  O  1364  1  0.41535900  0.78691800  0.93954700  1
  O  1365  1  0.38930600  0.79563000  0.92555100  1
  O  1366  1  0.35925800  0.73089200  0.88224000  1
  O  1387  1  0.61637900  0.28666000  0.87264300  1
  O  1388  1  0.58424200  0.21261300  0.93943800  1
  O  1389  1  0.61024500  0.20401900  0.92528000  1
  O  1390  1  0.63982600  0.26894100  0.88192900  1
  O  1411  1  0.12682000  0.61694100  0.71310800  1
  O  1412  1  0.06008100  0.58362900  0.78671600  1
  O  1413  1  0.07398300  0.60967300  0.79560100  1
  O  1414  1  0.11734700  0.64018100  0.73100000  1
  O  1435  1  0.12667400  0.38256600  0.28626900  1
  O  1436  1  0.05981000  0.41559600  0.21263500  1
  O  1437  1  0.07371000  0.38951900  0.20384500  1
  O  1438  1  0.11721500  0.35927800  0.26843100  1
  O  1459  1  0.87279700  0.38259000  0.71310300  1
  O  1460  1  0.93954500  0.41535900  0.78692000  1
  O  1461  1  0.92555000  0.38930600  0.79563000  1
  O  1462  1  0.88223800  0.35925800  0.73089200  1
  O  1483  1  0.87264300  0.61637900  0.28666000  1
  O  1484  1  0.93943800  0.58424200  0.21261300  1
  O  1485  1  0.92528000  0.61024500  0.20401900  1
  O  1486  1  0.88192900  0.63982600  0.26894100  1
  O  1507  1  0.71310800  0.12682000  0.61694100  1
  O  1508  1  0.78671400  0.06008100  0.58362900  1
  O  1509  1  0.79560100  0.07398200  0.60967300  1
  O  1510  1  0.73100200  0.11734700  0.64018100  1
  O  1531  1  0.28626900  0.12667400  0.38256600  1
  O  1532  1  0.21263500  0.05981000  0.41559600  1
  O  1533  1  0.20384500  0.07371000  0.38951900  1
  O  1534  1  0.26843100  0.11721500  0.35927800  1
  O  1555  1  0.71310300  0.87279700  0.38259000  1
  O  1556  1  0.78691800  0.93954500  0.41535900  1
  O  1557  1  0.79563000  0.92555100  0.38930600  1
  O  1558  1  0.73089200  0.88224000  0.35925800  1
  O  1579  1  0.28666000  0.87264300  0.61637900  1
  O  1580  1  0.21261300  0.93943800  0.58424200  1
  O  1581  1  0.20401900  0.92528000  0.61024500  1
  O  1582  1  0.26894100  0.88192900  0.63982600  1
  O  1603  1  0.71286800  0.61726100  0.87270500  1
  O  1604  1  0.78652400  0.58354100  0.93917700  1
  O  1605  1  0.79546200  0.60961800  0.92537200  1
  O  1606  1  0.73075700  0.64046600  0.88227000  1
  O  1627  1  0.28653400  0.38297900  0.87264000  1
  O  1628  1  0.21246900  0.41507800  0.93941200  1
  O  1629  1  0.20390100  0.38908400  0.92521900  1
  O  1630  1  0.26879200  0.35955000  0.88193200  1
  O  1651  1  0.71309100  0.38228500  0.12651000  1
  O  1652  1  0.78688400  0.41580300  0.06009200  1
  O  1653  1  0.79576100  0.38977200  0.07402400  1
  O  1654  1  0.73108400  0.35910300  0.11708500  1
  O  1675  1  0.28684300  0.61688900  0.12680900  1
  O  1676  1  0.21288200  0.58374900  0.06034200  1
  O  1677  1  0.20402100  0.60980300  0.07424200  1
  O  1678  1  0.26906400  0.64025600  0.11743500  1
  O  1699  1  0.61688900  0.12680900  0.28684300  1
  O  1700  1  0.58374900  0.06034200  0.21288200  1
  O  1701  1  0.60980300  0.07424300  0.20402100  1
  O  1702  1  0.64025600  0.11743500  0.26906400  1
  O  1723  1  0.38228500  0.12651000  0.71309100  1
  O  1724  1  0.41580300  0.06009200  0.78688400  1
  O  1725  1  0.38977200  0.07402400  0.79576100  1
  O  1726  1  0.35910300  0.11708500  0.73108400  1
  O  1747  1  0.38297900  0.87264000  0.28653400  1
  O  1748  1  0.41507800  0.93941200  0.21246900  1
  O  1749  1  0.38908400  0.92521900  0.20390100  1
  O  1750  1  0.35955000  0.88193200  0.26879200  1
  O  1771  1  0.61726100  0.87270500  0.71286800  1
  O  1772  1  0.58354100  0.93917700  0.78652400  1
  O  1773  1  0.60961800  0.92537200  0.79546200  1
  O  1774  1  0.64046600  0.88227000  0.73075700  1
  O  1795  1  0.12651000  0.71309100  0.38228500  1
  O  1796  1  0.06009200  0.78688400  0.41580300  1
  O  1797  1  0.07402400  0.79576100  0.38977200  1
  O  1798  1  0.11708500  0.73108400  0.35910300  1
  O  1819  1  0.12680900  0.28684300  0.61688900  1
  O  1820  1  0.06034200  0.21288200  0.58374900  1
  O  1821  1  0.07424200  0.20402100  0.60980300  1
  O  1822  1  0.11743500  0.26906400  0.64025600  1
  O  1843  1  0.87270500  0.71286900  0.61726100  1
  O  1844  1  0.93917700  0.78652400  0.58354100  1
  O  1845  1  0.92537300  0.79546200  0.60961800  1
  O  1846  1  0.88227000  0.73075700  0.64046700  1
  O  1867  1  0.87264000  0.28653400  0.38297900  1
  O  1868  1  0.93941200  0.21246900  0.41507800  1
  O  1869  1  0.92521900  0.20390100  0.38908400  1
  O  1870  1  0.88193200  0.26879200  0.35955000  1
