# generated using pymatgen
data_H7C14O
_symmetry_space_group_name_H-M   'P 1'
_cell_length_a   45.82380000
_cell_length_b   45.82340000
_cell_length_c   45.82350000
_cell_angle_alpha   89.99860000
_cell_angle_beta   90.00140000
_cell_angle_gamma   89.99930000
_symmetry_Int_Tables_number   1
_chemical_formula_structural   H7C14O
_chemical_formula_sum   'H672 C1344 O96'
_cell_volume   96220.29140475
_cell_formula_units_Z   96
loop_
 _symmetry_equiv_pos_site_id
 _symmetry_equiv_pos_as_xyz
  1  'x, y, z'
loop_
 _atom_site_type_symbol
 _atom_site_label
 _atom_site_symmetry_multiplicity
 _atom_site_fract_x
 _atom_site_fract_y
 _atom_site_fract_z
 _atom_site_occupancy
  H  9  1  0.57265700  0.69082600  0.85380800  1
  H  17  1  0.71332900  0.55000100  0.85416600  1
  H  19  1  0.71125200  0.65263200  0.87403000  1
  H  20  1  0.67523700  0.68869200  0.87391700  1
  H  21  1  0.61016100  0.55139700  0.84542700  1
  H  22  1  0.57397100  0.58761300  0.84538600  1
  H  31  1  0.46423700  0.30098700  0.85383800  1
  H  39  1  0.32356400  0.44181200  0.85419000  1
  H  41  1  0.32564800  0.33918500  0.87408300  1
  H  42  1  0.36166200  0.30312400  0.87396700  1
  H  43  1  0.42672800  0.44041000  0.84541400  1
  H  44  1  0.46291900  0.40419700  0.84538400  1
  H  53  1  0.57264300  0.30099800  0.09295200  1
  H  61  1  0.71332700  0.44180600  0.09255200  1
  H  63  1  0.71123600  0.33917400  0.07270200  1
  H  64  1  0.67521800  0.30311800  0.07282200  1
  H  65  1  0.61016300  0.44041900  0.10133200  1
  H  66  1  0.57396800  0.40420900  0.10136700  1
  H  75  1  0.46425100  0.69083100  0.09293200  1
  H  83  1  0.32358900  0.55000000  0.09257400  1
  H  85  1  0.32566100  0.65262700  0.07269300  1
  H  86  1  0.36167300  0.68869200  0.07280700  1
  H  87  1  0.42675600  0.55140200  0.10132900  1
  H  88  1  0.46294400  0.58761900  0.10136400  1
  H  97  1  0.71336900  0.87636900  0.52758700  1
  H  105  1  0.57253200  0.87669000  0.66824400  1
  H  107  1  0.67515600  0.89659600  0.66617800  1
  H  108  1  0.71121900  0.89648900  0.63016500  1
  H  109  1  0.57394400  0.86794200  0.56507700  1
  H  110  1  0.61016000  0.86792100  0.52889000  1
  H  119  1  0.32353500  0.87636800  0.41915800  1
  H  127  1  0.46436300  0.87672200  0.27849400  1
  H  129  1  0.36173500  0.89658600  0.28056300  1
  H  130  1  0.32567400  0.89647100  0.31657500  1
  H  131  1  0.46296200  0.86796500  0.38166200  1
  H  132  1  0.42674600  0.86793300  0.41785100  1
  H  141  1  0.32352300  0.11547400  0.52756300  1
  H  149  1  0.46434400  0.11508700  0.66824200  1
  H  151  1  0.36171600  0.09521200  0.66615400  1
  H  152  1  0.32565700  0.09533100  0.63013700  1
  H  153  1  0.46294500  0.12387900  0.56507700  1
  H  154  1  0.42673400  0.12391300  0.52888500  1
  H  163  1  0.71337700  0.11547800  0.41916400  1
  H  171  1  0.57254300  0.11512300  0.27849800  1
  H  173  1  0.67517100  0.09524300  0.28057400  1
  H  174  1  0.71123400  0.09535800  0.31658600  1
  H  175  1  0.57394800  0.12388900  0.38166400  1
  H  176  1  0.61016600  0.12392700  0.41785300  1
  H  185  1  0.89885600  0.55010800  0.66827900  1
  H  193  1  0.89924700  0.69078000  0.52745200  1
  H  195  1  0.91910700  0.68870000  0.63008500  1
  H  196  1  0.91898800  0.65268400  0.66614500  1
  H  197  1  0.89050200  0.58761400  0.52884800  1
  H  198  1  0.89045600  0.55142200  0.56506300  1
  H  207  1  0.89893700  0.44169000  0.27844600  1
  H  215  1  0.89924200  0.30102700  0.41928400  1
  H  217  1  0.91914200  0.30309600  0.31666000  1
  H  218  1  0.91903800  0.33910700  0.28059600  1
  H  219  1  0.89050100  0.40419800  0.41787200  1
  H  220  1  0.89048400  0.44038700  0.38165300  1
  H  229  1  0.13802100  0.55011800  0.27845000  1
  H  237  1  0.13763400  0.69079400  0.41926900  1
  H  239  1  0.11779300  0.68871300  0.31663600  1
  H  240  1  0.11791200  0.65269700  0.28057800  1
  H  241  1  0.14640900  0.58762800  0.41787700  1
  H  242  1  0.14645400  0.55143600  0.38166400  1
  H  251  1  0.13800500  0.44171400  0.66829700  1
  H  259  1  0.13765900  0.30103600  0.52748400  1
  H  261  1  0.11776500  0.30312000  0.63010700  1
  H  262  1  0.11787700  0.33913800  0.66616400  1
  H  263  1  0.14642300  0.40420400  0.52887700  1
  H  264  1  0.14645400  0.44039600  0.56508700  1
  H  273  1  0.71337500  0.55011800  0.09289700  1
  H  281  1  0.57253400  0.69077700  0.09258900  1
  H  283  1  0.67516100  0.68871400  0.07270700  1
  H  284  1  0.71122500  0.65270100  0.07281100  1
  H  285  1  0.57394600  0.58760700  0.10132100  1
  H  286  1  0.61016500  0.55142000  0.10134900  1
  H  295  1  0.32353200  0.44170600  0.09292300  1
  H  303  1  0.46435600  0.30103200  0.09258900  1
  H  305  1  0.36172800  0.30311100  0.07270400  1
  H  306  1  0.32566800  0.33912600  0.07281600  1
  H  307  1  0.46295500  0.40420000  0.10133400  1
  H  308  1  0.42674300  0.44039100  0.10136200  1
  H  317  1  0.32353100  0.55011300  0.85382500  1
  H  325  1  0.46436600  0.69077500  0.85418100  1
  H  327  1  0.36173900  0.68870300  0.87405700  1
  H  328  1  0.32567600  0.65269100  0.87394800  1
  H  329  1  0.46295600  0.58761000  0.84541000  1
  H  330  1  0.42674100  0.55142100  0.84538100  1
  H  339  1  0.71337200  0.44170300  0.85380100  1
  H  347  1  0.57253900  0.30104500  0.85415100  1
  H  349  1  0.67516500  0.30311400  0.87403500  1
  H  350  1  0.71122800  0.33912400  0.87392200  1
  H  351  1  0.57394400  0.40421500  0.84540600  1
  H  352  1  0.61016100  0.44040300  0.84537500  1
  H  361  1  0.89889900  0.69081500  0.41916000  1
  H  369  1  0.89926300  0.54998400  0.27849800  1
  H  371  1  0.91912100  0.65261500  0.28056700  1
  H  372  1  0.91900600  0.68867700  0.31657900  1
  H  373  1  0.89053500  0.55138300  0.38166600  1
  H  374  1  0.89049700  0.58760200  0.41785700  1
  H  383  1  0.89889900  0.30099000  0.52757800  1
  H  391  1  0.89921100  0.44182500  0.66823500  1
  H  393  1  0.91911400  0.33919800  0.66617100  1
  H  394  1  0.91901000  0.30313700  0.63015900  1
  H  395  1  0.89046900  0.44041600  0.56507000  1
  H  396  1  0.89044500  0.40419700  0.52888300  1
  H  405  1  0.13800900  0.30099500  0.41917500  1
  H  413  1  0.13764800  0.44181100  0.27849200  1
  H  415  1  0.11777900  0.33918500  0.28058000  1
  H  416  1  0.11788600  0.30312800  0.31659900  1
  H  417  1  0.14643200  0.44041800  0.38165500  1
  H  418  1  0.14646400  0.40420700  0.41785100  1
  H  427  1  0.13799900  0.69084400  0.52757600  1
  H  435  1  0.13765300  0.55000600  0.66824000  1
  H  437  1  0.11777900  0.65263500  0.66616900  1
  H  438  1  0.11789400  0.68870100  0.63015700  1
  H  439  1  0.14639500  0.55141200  0.56507000  1
  H  440  1  0.14642900  0.58763000  0.52888100  1
  H  449  1  0.57266000  0.87639700  0.27845900  1
  H  457  1  0.71331600  0.87668400  0.41930200  1
  H  459  1  0.71125500  0.89658000  0.31667500  1
  H  460  1  0.67524300  0.89648100  0.28061100  1
  H  461  1  0.61014700  0.86797200  0.41789000  1
  H  462  1  0.57395900  0.86795400  0.38167100  1
  H  471  1  0.46424600  0.87634600  0.66827900  1
  H  479  1  0.32357300  0.87670200  0.52745400  1
  H  481  1  0.32565300  0.89658500  0.63008000  1
  H  482  1  0.36166800  0.89647100  0.66614000  1
  H  483  1  0.42673800  0.86793500  0.52885500  1
  H  484  1  0.46293000  0.86790400  0.56507000  1
  H  493  1  0.57265200  0.11546700  0.66828600  1
  H  501  1  0.71332300  0.11509800  0.52746300  1
  H  503  1  0.71124300  0.09522300  0.63009300  1
  H  504  1  0.67522800  0.09533900  0.66615100  1
  H  505  1  0.61015800  0.12388100  0.52886400  1
  H  506  1  0.57397000  0.12391500  0.56507400  1
  H  515  1  0.46424100  0.11546300  0.27842900  1
  H  523  1  0.32358100  0.11512900  0.41926300  1
  H  525  1  0.32565200  0.09524000  0.31663600  1
  H  526  1  0.36166300  0.09535000  0.28057400  1
  H  527  1  0.42674800  0.12388300  0.41785700  1
  H  528  1  0.46293600  0.12391400  0.38164000  1
  H  537  1  0.07274000  0.19094900  0.35347300  1
  H  545  1  0.21345300  0.05012600  0.35386600  1
  H  547  1  0.21138700  0.15270700  0.37314900  1
  H  548  1  0.17526800  0.18885900  0.37303500  1
  H  549  1  0.11018100  0.05140600  0.34504300  1
  H  550  1  0.07397100  0.08762900  0.34499900  1
  H  559  1  0.96415500  0.80086100  0.35347100  1
  H  567  1  0.82344600  0.94168900  0.35386600  1
  H  569  1  0.82551200  0.83911100  0.37317000  1
  H  570  1  0.86163000  0.80295600  0.37304800  1
  H  571  1  0.92671700  0.94039800  0.34500800  1
  H  572  1  0.96292400  0.90417700  0.34497300  1
  H  581  1  0.07273500  0.80088300  0.59328300  1
  H  589  1  0.21344600  0.94170400  0.59285100  1
  H  591  1  0.21137900  0.83912300  0.57357400  1
  H  592  1  0.17525800  0.80297000  0.57369700  1
  H  593  1  0.11017700  0.94042100  0.60170800  1
  H  594  1  0.07396600  0.90420100  0.60175000  1
  H  603  1  0.96413600  0.19095800  0.59327000  1
  H  611  1  0.82346000  0.05010200  0.59289400  1
  H  613  1  0.82549900  0.15267900  0.57358700  1
  H  614  1  0.86160900  0.18884100  0.57369900  1
  H  615  1  0.92673400  0.05141000  0.60172200  1
  H  616  1  0.96293300  0.08764000  0.60175900  1
  H  625  1  0.21349100  0.37601600  0.02767100  1
  H  633  1  0.07265300  0.37637800  0.16836300  1
  H  635  1  0.17522900  0.39569900  0.16631400  1
  H  636  1  0.21138600  0.39558600  0.13019900  1
  H  637  1  0.07395100  0.36756000  0.06509000  1
  H  638  1  0.11017600  0.36753200  0.02888600  1
  H  647  1  0.82341000  0.37602100  0.91907500  1
  H  655  1  0.96423800  0.37639400  0.77837300  1
  H  657  1  0.86165900  0.39568500  0.78042700  1
  H  658  1  0.82550500  0.39557100  0.81654400  1
  H  659  1  0.96294900  0.36757100  0.88164700  1
  H  660  1  0.92672600  0.36754000  0.91785400  1
  H  669  1  0.82341100  0.61581200  0.02766400  1
  H  677  1  0.96424500  0.61541600  0.16836700  1
  H  679  1  0.86167000  0.59610400  0.16630500  1
  H  680  1  0.82551400  0.59621900  0.13018600  1
  H  681  1  0.96294800  0.62428500  0.06509500  1
  H  682  1  0.92672600  0.62431700  0.02889100  1
  H  691  1  0.21350000  0.61581900  0.91906500  1
  H  699  1  0.07265500  0.61542300  0.77837100  1
  H  701  1  0.17523300  0.59613000  0.78042500  1
  H  702  1  0.21139200  0.59624900  0.81653800  1
  H  703  1  0.07395600  0.62426500  0.88164600  1
  H  704  1  0.11018200  0.62431000  0.91784800  1
  H  713  1  0.39853800  0.05019400  0.16839500  1
  H  721  1  0.39895200  0.19090300  0.02756600  1
  H  723  1  0.41823500  0.18884000  0.13014900  1
  H  724  1  0.41811800  0.15272000  0.16630300  1
  H  725  1  0.39013100  0.08763000  0.02885100  1
  H  726  1  0.39008600  0.05142100  0.06507500  1
  H  735  1  0.39857700  0.94160200  0.77831900  1
  H  743  1  0.39893200  0.80091800  0.91917300  1
  H  745  1  0.41824700  0.80295900  0.81659700  1
  H  746  1  0.41813500  0.83907200  0.78043600  1
  H  747  1  0.39010900  0.90419200  0.91786300  1
  H  748  1  0.39008400  0.94039400  0.88163400  1
  H  757  1  0.63833100  0.05020700  0.77833200  1
  H  765  1  0.63793300  0.19090900  0.91916400  1
  H  767  1  0.61866300  0.18885300  0.81658100  1
  H  768  1  0.61878000  0.15273700  0.78042700  1
  H  769  1  0.64678000  0.08763600  0.91787400  1
  H  770  1  0.64682000  0.05143000  0.88165200  1
  H  779  1  0.63835300  0.94161400  0.16842400  1
  H  787  1  0.63795700  0.80090800  0.02759900  1
  H  789  1  0.61865000  0.80297200  0.13017300  1
  H  790  1  0.61876900  0.83909000  0.16632700  1
  H  791  1  0.64681200  0.90418100  0.02888600  1
  H  792  1  0.64685000  0.94038800  0.06510800  1
  H  801  1  0.21348500  0.05021800  0.59323700  1
  H  809  1  0.07263300  0.19090400  0.59290900  1
  H  811  1  0.17520800  0.18886700  0.57360300  1
  H  812  1  0.21137000  0.15275400  0.57371000  1
  H  813  1  0.07394000  0.08762900  0.60171100  1
  H  814  1  0.11016800  0.05142900  0.60173900  1
  H  823  1  0.82340700  0.94160700  0.59325600  1
  H  831  1  0.96424600  0.80091200  0.59289400  1
  H  833  1  0.86166900  0.80296300  0.57358700  1
  H  834  1  0.82551100  0.83907800  0.57369900  1
  H  835  1  0.96294800  0.90418400  0.60171900  1
  H  836  1  0.92672300  0.94038900  0.60175000  1
  H  845  1  0.82340700  0.05019300  0.35347100  1
  H  853  1  0.96424700  0.19088800  0.35388600  1
  H  855  1  0.86166800  0.18883300  0.37317900  1
  H  856  1  0.82551100  0.15271900  0.37305900  1
  H  857  1  0.96294800  0.08761800  0.34502300  1
  H  858  1  0.92672500  0.05141400  0.34498200  1
  H  867  1  0.21349700  0.94162300  0.35345800  1
  H  875  1  0.07266400  0.80092400  0.35384200  1
  H  877  1  0.17524000  0.80298100  0.37315100  1
  H  878  1  0.21139600  0.83909800  0.37303500  1
  H  879  1  0.07395600  0.90420100  0.34501500  1
  H  880  1  0.11017900  0.94040600  0.34498000  1
  H  889  1  0.39857000  0.19094200  0.91906600  1
  H  897  1  0.39895100  0.05010500  0.77837100  1
  H  899  1  0.41823300  0.15268500  0.78042300  1
  H  900  1  0.41811800  0.18884100  0.81653800  1
  H  901  1  0.39014100  0.05139400  0.88164700  1
  H  902  1  0.39010500  0.08762200  0.91785400  1
  H  911  1  0.39855500  0.80086800  0.02766000  1
  H  919  1  0.39894200  0.94170700  0.16835200  1
  H  921  1  0.41825300  0.83912900  0.16630300  1
  H  922  1  0.41813400  0.80297100  0.13018800  1
  H  923  1  0.39010100  0.94040900  0.06508200  1
  H  924  1  0.39006300  0.90418300  0.02887700  1
  H  933  1  0.63835400  0.80086900  0.91908500  1
  H  941  1  0.63792000  0.94169900  0.77837600  1
  H  943  1  0.61864400  0.83911800  0.78044200  1
  H  944  1  0.61876800  0.80296300  0.81656100  1
  H  945  1  0.64679600  0.94040900  0.88164600  1
  H  946  1  0.64684300  0.90418800  0.91785300  1
  H  955  1  0.63833900  0.19095700  0.02767300  1
  H  963  1  0.63797300  0.05011000  0.16836500  1
  H  965  1  0.61867500  0.15268900  0.16631600  1
  H  966  1  0.61879000  0.18884800  0.13020300  1
  H  967  1  0.64678900  0.05141100  0.06509000  1
  H  968  1  0.64682300  0.08763800  0.02888600  1
  H  977  1  0.07273600  0.37603800  0.77833600  1
  H  985  1  0.21343500  0.37639300  0.91917600  1
  H  987  1  0.21138100  0.39570000  0.81659800  1
  H  988  1  0.17526500  0.39558800  0.78044000  1
  H  989  1  0.11016100  0.36758300  0.91788000  1
  H  990  1  0.07395400  0.36755300  0.88165400  1
  H  999  1  0.96415700  0.37601200  0.16840600  1
  H  1007  1  0.82345100  0.37639000  0.02757500  1
  H  1009  1  0.82551200  0.39569400  0.13015100  1
  H  1010  1  0.86163000  0.39558200  0.16630700  1
  H  1011  1  0.92672300  0.36755500  0.02886400  1
  H  1012  1  0.96293100  0.36752300  0.06508800  1
  H  1021  1  0.07275800  0.61583300  0.16840600  1
  H  1029  1  0.21345400  0.61539600  0.02757000  1
  H  1031  1  0.21139400  0.59610800  0.13015100  1
  H  1032  1  0.17527900  0.59623400  0.16630700  1
  H  1033  1  0.11018500  0.62427200  0.02886400  1
  H  1034  1  0.07398200  0.62432200  0.06508800  1
  H  1043  1  0.96414700  0.61580500  0.77831000  1
  H  1051  1  0.82346200  0.61544700  0.91915600  1
  H  1053  1  0.82550700  0.59613600  0.81658100  1
  H  1054  1  0.86161900  0.59624600  0.78042300  1
  H  1055  1  0.92673500  0.62427600  0.91785400  1
  H  1056  1  0.96293700  0.62430700  0.88162700  1
  H  1062  1  0.59411200  0.77227000  0.89961100  1
  H  1063  1  0.58995000  0.72082500  0.89612700  1
  H  1065  1  0.65592600  0.71951600  0.83204200  1
  H  1067  1  0.68505900  0.77647300  0.84765300  1
  H  1073  1  0.44281100  0.21951900  0.89959100  1
  H  1074  1  0.44695900  0.27096900  0.89614300  1
  H  1076  1  0.38096600  0.27231100  0.83207800  1
  H  1078  1  0.35184600  0.21535100  0.84765700  1
  H  1084  1  0.59409600  0.21953600  0.04716100  1
  H  1085  1  0.58992300  0.27098300  0.05063900  1
  H  1087  1  0.65592100  0.27231000  0.11470700  1
  H  1089  1  0.68506300  0.21536500  0.09909500  1
  H  1095  1  0.44280300  0.77227300  0.04713200  1
  H  1096  1  0.44696000  0.72082800  0.05060600  1
  H  1098  1  0.38097900  0.71951100  0.11468500  1
  H  1100  1  0.35185100  0.77646500  0.09907900  1
  H  1106  1  0.79481900  0.92213500  0.54901700  1
  H  1107  1  0.74337100  0.91868200  0.54487100  1
  H  1109  1  0.74204600  0.85460900  0.61085900  1
  H  1111  1  0.79900600  0.87018900  0.63997900  1
  H  1117  1  0.24207900  0.92214200  0.39770800  1
  H  1118  1  0.29352700  0.91867300  0.40187000  1
  H  1120  1  0.29485400  0.85459400  0.33589000  1
  H  1122  1  0.23790000  0.87018700  0.30675300  1
  H  1128  1  0.24206100  0.06970300  0.54900400  1
  H  1129  1  0.29350800  0.07316300  0.54484500  1
  H  1131  1  0.29484800  0.13722100  0.61084600  1
  H  1133  1  0.23790200  0.12161700  0.63997500  1
  H  1139  1  0.79481500  0.06966900  0.39772100  1
  H  1140  1  0.74337000  0.07315300  0.40187800  1
  H  1142  1  0.74205900  0.13723500  0.33589900  1
  H  1144  1  0.79901900  0.12162700  0.30677000  1
  H  1150  1  0.94466200  0.57156000  0.74972900  1
  H  1151  1  0.94117700  0.56739100  0.69828300  1
  H  1153  1  0.87710800  0.63338400  0.69696100  1
  H  1155  1  0.89272400  0.66252500  0.75390300  1
  H  1161  1  0.94469200  0.42025300  0.19699200  1
  H  1162  1  0.94124200  0.42440000  0.24844000  1
  H  1164  1  0.87716100  0.35842200  0.24977300  1
  H  1166  1  0.89274000  0.32930000  0.19281100  1
  H  1172  1  0.09222600  0.57157900  0.19699700  1
  H  1173  1  0.09570600  0.56741400  0.24844400  1
  H  1175  1  0.15979500  0.63338600  0.24976200  1
  H  1177  1  0.14419300  0.66252300  0.19280700  1
  H  1183  1  0.09221600  0.42027200  0.74974400  1
  H  1184  1  0.09568700  0.42443000  0.69829900  1
  H  1186  1  0.15975600  0.35843700  0.69698300  1
  H  1188  1  0.14415000  0.32931100  0.75393400  1
  H  1194  1  0.79482200  0.57156600  0.04713000  1
  H  1195  1  0.74337600  0.56741300  0.05059600  1
  H  1197  1  0.74205300  0.63338000  0.11468700  1
  H  1199  1  0.79901800  0.66250900  0.09910100  1
  H  1205  1  0.24207500  0.42026300  0.04715200  1
  H  1206  1  0.29352200  0.42442000  0.05061700  1
  H  1208  1  0.29484900  0.35843900  0.11469600  1
  H  1210  1  0.23789500  0.32930800  0.09910800  1
  H  1216  1  0.24207600  0.57157100  0.89959800  1
  H  1217  1  0.29352100  0.56740700  0.89613700  1
  H  1219  1  0.29486200  0.63339200  0.83206000  1
  H  1221  1  0.23791400  0.66252800  0.84765100  1
  H  1227  1  0.79481700  0.42025700  0.89959300  1
  H  1228  1  0.74337100  0.42441700  0.89611900  1
  H  1230  1  0.74204900  0.35843100  0.83204700  1
  H  1232  1  0.79900400  0.32929800  0.84765400  1
  H  1238  1  0.94469000  0.77226100  0.39771000  1
  H  1239  1  0.94122000  0.72081300  0.40186300  1
  H  1241  1  0.87713300  0.71949900  0.33588800  1
  H  1243  1  0.89273100  0.77645800  0.30676100  1
  H  1249  1  0.94466400  0.21953200  0.54901900  1
  H  1250  1  0.94120800  0.27098000  0.54486600  1
  H  1252  1  0.87713200  0.27231500  0.61084800  1
  H  1254  1  0.89271700  0.21535800  0.63997500  1
  H  1260  1  0.09221600  0.21954000  0.39771500  1
  H  1261  1  0.09569700  0.27098500  0.40188500  1
  H  1263  1  0.15976900  0.27231300  0.33589900  1
  H  1265  1  0.14416100  0.21536500  0.30675900  1
  H  1271  1  0.09220700  0.77228700  0.54903500  1
  H  1272  1  0.09568500  0.72084200  0.54486900  1
  H  1274  1  0.15977100  0.71952100  0.61084800  1
  H  1276  1  0.14416400  0.77647800  0.63998400  1
  H  1282  1  0.59410800  0.92215100  0.19700700  1
  H  1283  1  0.58995600  0.91869700  0.24845500  1
  H  1285  1  0.65592400  0.85460500  0.24979000  1
  H  1287  1  0.68505400  0.87018000  0.19283100  1
  H  1293  1  0.44282200  0.92212100  0.74973300  1
  H  1294  1  0.44696500  0.91866200  0.69828600  1
  H  1296  1  0.38097800  0.85459300  0.69696500  1
  H  1298  1  0.35186100  0.87018100  0.75392300  1
  H  1304  1  0.59409700  0.06968500  0.74974200  1
  H  1305  1  0.58993700  0.07315400  0.69829600  1
  H  1307  1  0.65593100  0.13722100  0.69696700  1
  H  1309  1  0.68505900  0.12161600  0.75392500  1
  H  1315  1  0.44278500  0.06966700  0.19698600  1
  H  1316  1  0.44695000  0.07314700  0.24843300  1
  H  1318  1  0.38097300  0.13722800  0.24975100  1
  H  1320  1  0.35183400  0.12162700  0.19279600  1
  H  1326  1  0.44305600  0.21952700  0.04706500  1
  H  1327  1  0.44709600  0.27098300  0.05041400  1
  H  1329  1  0.38110100  0.27230000  0.11448200  1
  H  1331  1  0.35206300  0.21526000  0.09890500  1
  H  1337  1  0.59383800  0.77229700  0.04708400  1
  H  1338  1  0.58979400  0.72084100  0.05042800  1
  H  1340  1  0.65578800  0.71950300  0.11450000  1
  H  1342  1  0.68482700  0.77654400  0.09893300  1
  H  1348  1  0.44305700  0.77229100  0.89968900  1
  H  1349  1  0.44710100  0.72083500  0.89634800  1
  H  1351  1  0.38111200  0.71950200  0.83227300  1
  H  1353  1  0.35207300  0.77654500  0.84783200  1
  H  1359  1  0.59383300  0.21953900  0.89967100  1
  H  1360  1  0.58980000  0.27099600  0.89632600  1
  H  1362  1  0.65579900  0.27231200  0.83226100  1
  H  1364  1  0.68482600  0.21526900  0.84784300  1
  H  1370  1  0.24207300  0.06961300  0.39796600  1
  H  1371  1  0.29352900  0.07295300  0.40200100  1
  H  1373  1  0.29485400  0.13702200  0.33600400  1
  H  1375  1  0.23780600  0.12145500  0.30697300  1
  H  1381  1  0.79483800  0.06958900  0.54877300  1
  H  1382  1  0.74338200  0.07293300  0.54472900  1
  H  1384  1  0.74204600  0.13700400  0.61071700  1
  H  1386  1  0.79908900  0.12144200  0.63976100  1
  H  1392  1  0.79483300  0.92220800  0.39798500  1
  H  1393  1  0.74337600  0.91886000  0.40203300  1
  H  1395  1  0.74204100  0.85479100  0.33603900  1
  H  1397  1  0.79907300  0.87036900  0.30699700  1
  H  1403  1  0.24206300  0.92221200  0.54874400  1
  H  1404  1  0.29351900  0.91887300  0.54471400  1
  H  1406  1  0.29484800  0.85480700  0.61071000  1
  H  1408  1  0.23780400  0.87037500  0.63973900  1
  H  1414  1  0.09213700  0.42050100  0.19698300  1
  H  1415  1  0.09548100  0.42454400  0.24844000  1
  H  1417  1  0.15956200  0.35856100  0.24977300  1
  H  1419  1  0.14400100  0.32951900  0.19273000  1
  H  1425  1  0.09213700  0.57131700  0.74975300  1
  H  1426  1  0.09548400  0.56727200  0.69829400  1
  H  1428  1  0.15955700  0.63326400  0.69696300  1
  H  1430  1  0.14398200  0.66230500  0.75400600  1
  H  1436  1  0.94474200  0.42051400  0.74975500  1
  H  1437  1  0.94138900  0.42456600  0.69829900  1
  H  1439  1  0.87732900  0.35856400  0.69696500  1
  H  1441  1  0.89290700  0.32951800  0.75400400  1
  H  1447  1  0.94476900  0.57130000  0.19699000  1
  H  1448  1  0.94142600  0.56726000  0.24844600  1
  H  1450  1  0.87734000  0.63324200  0.24976900  1
  H  1452  1  0.89290900  0.66227900  0.19272600  1
  H  1458  1  0.24205000  0.42051300  0.89969300  1
  H  1459  1  0.29350600  0.42455000  0.89636200  1
  H  1461  1  0.29484600  0.35855600  0.83229300  1
  H  1463  1  0.23779800  0.32952300  0.84784500  1
  H  1469  1  0.79484500  0.57132600  0.89967400  1
  H  1470  1  0.74339000  0.56727200  0.89632700  1
  H  1472  1  0.74204700  0.63325800  0.83224600  1
  H  1474  1  0.79908500  0.66231000  0.84781300  1
  H  1480  1  0.79482800  0.42050100  0.04705200  1
  H  1481  1  0.74337200  0.42453200  0.05038800  1
  H  1483  1  0.74205100  0.35855300  0.11447600  1
  H  1485  1  0.79909400  0.32952000  0.09891400  1
  H  1491  1  0.24208200  0.57129300  0.04705600  1
  H  1492  1  0.29353800  0.56726400  0.05039700  1
  H  1494  1  0.29485700  0.63325500  0.11446700  1
  H  1496  1  0.23781000  0.66228000  0.09889800  1
  H  1502  1  0.09211700  0.21953900  0.54879700  1
  H  1503  1  0.09547100  0.27099500  0.54475100  1
  H  1505  1  0.15954700  0.27231300  0.61074100  1
  H  1507  1  0.14396800  0.21527100  0.63978300  1
  H  1513  1  0.09214400  0.77231000  0.39795700  1
  H  1514  1  0.09548100  0.72085200  0.40199600  1
  H  1516  1  0.15956600  0.71951700  0.33601900  1
  H  1518  1  0.14400800  0.77656100  0.30697700  1
  H  1524  1  0.94476100  0.77229000  0.54877700  1
  H  1525  1  0.94141000  0.72083300  0.54472700  1
  H  1527  1  0.87733000  0.71950100  0.61070800  1
  H  1529  1  0.89290400  0.77653900  0.63975900  1
  H  1535  1  0.94475700  0.21951400  0.39799800  1
  H  1536  1  0.94141900  0.27097300  0.40202900  1
  H  1538  1  0.87735600  0.27229800  0.33602800  1
  H  1540  1  0.89292100  0.21524900  0.30700600  1
  H  1546  1  0.44305400  0.06959300  0.74975300  1
  H  1547  1  0.44708300  0.07292200  0.69829600  1
  H  1549  1  0.38108900  0.13699100  0.69695900  1
  H  1551  1  0.35206200  0.12143400  0.75401000  1
  H  1557  1  0.59385700  0.06960000  0.19698600  1
  H  1558  1  0.58980600  0.07295100  0.24844200  1
  H  1560  1  0.65580000  0.13702000  0.24977300  1
  H  1562  1  0.68484500  0.12144600  0.19273500  1
  H  1568  1  0.44305800  0.92223100  0.19697900  1
  H  1569  1  0.44709400  0.91889200  0.24843500  1
  H  1571  1  0.38111300  0.85481200  0.24976400  1
  H  1573  1  0.35207800  0.87037600  0.19272100  1
  H  1579  1  0.59381400  0.92220400  0.74975500  1
  H  1580  1  0.58978400  0.91886600  0.69829900  1
  H  1582  1  0.65578900  0.85480700  0.69697800  1
  H  1584  1  0.68481300  0.87037500  0.75402300  1
  H  1590  1  0.64665700  0.52203000  0.89267700  1
  H  1591  1  0.64658000  0.46977100  0.89271200  1
  H  1593  1  0.68070200  0.46956300  0.80729900  1
  H  1595  1  0.66696500  0.53359900  0.79026300  1
  H  1601  1  0.39021600  0.46977400  0.89267400  1
  H  1602  1  0.39030100  0.52201400  0.89272500  1
  H  1604  1  0.35613300  0.52226700  0.80734600  1
  H  1606  1  0.36981300  0.45822400  0.79026500  1
  H  1612  1  0.64655100  0.46977400  0.05409400  1
  H  1613  1  0.64648300  0.52203600  0.05403900  1
  H  1615  1  0.68083900  0.52226900  0.13934500  1
  H  1617  1  0.66718900  0.45819700  0.15644300  1
  H  1623  1  0.39028200  0.52203200  0.05409200  1
  H  1624  1  0.39033700  0.46978400  0.05402800  1
  H  1626  1  0.35613400  0.46954600  0.13940600  1
  H  1628  1  0.36986700  0.53356300  0.15649300  1
  H  1634  1  0.54457400  0.91518800  0.60159300  1
  H  1635  1  0.49233900  0.91524000  0.60151000  1
  H  1637  1  0.49208200  0.82985300  0.63566300  1
  H  1639  1  0.55616600  0.81278700  0.62199500  1
  H  1645  1  0.49230000  0.91521800  0.34519600  1
  H  1646  1  0.54455400  0.91528500  0.34528300  1
  H  1648  1  0.54482400  0.82991100  0.31107800  1
  H  1650  1  0.48074900  0.81283000  0.32474100  1
  H  1656  1  0.49232800  0.07662900  0.60153200  1
  H  1657  1  0.54456700  0.07658500  0.60146200  1
  H  1659  1  0.54479100  0.16191800  0.63574300  1
  H  1661  1  0.48076700  0.17901300  0.62206700  1
  H  1667  1  0.54457000  0.07663900  0.34520700  1
  H  1668  1  0.49231900  0.07659000  0.34527200  1
  H  1670  1  0.49208300  0.16194000  0.31102100  1
  H  1672  1  0.55614400  0.17902200  0.32470000  1
  H  1678  1  0.93776200  0.62410200  0.49949700  1
  H  1679  1  0.93781000  0.62401800  0.44724000  1
  H  1681  1  0.85239800  0.65814600  0.44700200  1
  H  1683  1  0.83534600  0.64442000  0.51103400  1
  H  1689  1  0.93774500  0.36766500  0.44724400  1
  H  1690  1  0.93779500  0.36774200  0.49948400  1
  H  1692  1  0.85240500  0.33360500  0.49973000  1
  H  1694  1  0.83533000  0.34730300  0.43568400  1
  H  1700  1  0.09915900  0.62405100  0.44724400  1
  H  1701  1  0.09911700  0.62397900  0.49950800  1
  H  1703  1  0.18445500  0.65826200  0.49972600  1
  H  1705  1  0.20152100  0.64459400  0.43564500  1
  H  1711  1  0.09920000  0.36778100  0.49951400  1
  H  1712  1  0.09913500  0.36784700  0.44726800  1
  H  1714  1  0.18446200  0.33354500  0.44702100  1
  H  1716  1  0.20157700  0.34723900  0.51103200  1
  H  1722  1  0.54456900  0.62416400  0.05407000  1
  H  1723  1  0.49233000  0.62409200  0.05401700  1
  H  1725  1  0.49209000  0.65816900  0.13944300  1
  H  1727  1  0.55617500  0.64446500  0.15648700  1
  H  1733  1  0.49231000  0.36769700  0.05407600  1
  H  1734  1  0.54456000  0.36778400  0.05403300  1
  H  1736  1  0.54479800  0.33364400  0.13943000  1
  H  1738  1  0.48071400  0.34732100  0.15647800  1
  H  1744  1  0.49234600  0.62409200  0.89266200  1
  H  1745  1  0.54458700  0.62402100  0.89270600  1
  H  1747  1  0.54480400  0.65823700  0.80733600  1
  H  1749  1  0.48077100  0.64453800  0.79026500  1
  H  1755  1  0.54457200  0.36773900  0.89264700  1
  H  1756  1  0.49232600  0.36780800  0.89270200  1
  H  1758  1  0.49207300  0.33358000  0.80735200  1
  H  1760  1  0.55613100  0.34725700  0.79025900  1
  H  1766  1  0.93777800  0.52202500  0.34518300  1
  H  1767  1  0.93782900  0.46976800  0.34525500  1
  H  1769  1  0.85242500  0.46953600  0.31110600  1
  H  1771  1  0.83536800  0.53356900  0.32484400  1
  H  1777  1  0.93773100  0.46978300  0.60163000  1
  H  1778  1  0.93778200  0.52202500  0.60155600  1
  H  1780  1  0.85236200  0.52227000  0.63562600  1
  H  1782  1  0.83530000  0.45822200  0.62191400  1
  H  1788  1  0.09919200  0.46978200  0.34527200  1
  H  1789  1  0.09914800  0.52204400  0.34535300  1
  H  1791  1  0.18445200  0.52227100  0.31099900  1
  H  1793  1  0.20153500  0.45818700  0.32463900  1
  H  1799  1  0.09915900  0.52203100  0.60156700  1
  H  1800  1  0.09910400  0.46978300  0.60151200  1
  H  1802  1  0.18449700  0.46956300  0.63567600  1
  H  1804  1  0.20156900  0.53358000  0.62193200  1
  H  1810  1  0.64670300  0.91521400  0.44725700  1
  H  1811  1  0.64663200  0.91527200  0.49949400  1
  H  1813  1  0.68071500  0.82985300  0.49975400  1
  H  1815  1  0.66701500  0.81279600  0.43566900  1
  H  1821  1  0.39028700  0.91519000  0.49951400  1
  H  1822  1  0.39037300  0.91525700  0.44725900  1
  H  1824  1  0.35614100  0.82989300  0.44699100  1
  H  1826  1  0.36979800  0.81280900  0.51106900  1
  H  1832  1  0.64664100  0.07662600  0.49947500  1
  H  1833  1  0.64657800  0.07658500  0.44723100  1
  H  1835  1  0.68080100  0.16195200  0.44702300  1
  H  1837  1  0.66710000  0.17902300  0.51105200  1
  H  1843  1  0.39027700  0.07663900  0.44723700  1
  H  1844  1  0.39034800  0.07659200  0.49948100  1
  H  1846  1  0.35611700  0.16194100  0.49971900  1
  H  1848  1  0.36978900  0.17902600  0.43565800  1
  H  1854  1  0.14642600  0.02204000  0.39214100  1
  H  1855  1  0.14634500  0.96978000  0.39216700  1
  H  1857  1  0.18110200  0.96958900  0.30701200  1
  H  1859  1  0.16751500  0.03364800  0.28990300  1
  H  1865  1  0.89044500  0.96975700  0.39212100  1
  H  1866  1  0.89052700  0.02199800  0.39217200  1
  H  1868  1  0.85574000  0.02224700  0.30704500  1
  H  1870  1  0.86928100  0.95818300  0.28988300  1
  H  1876  1  0.14633400  0.96978200  0.55461500  1
  H  1877  1  0.14625700  0.02204300  0.55457100  1
  H  1879  1  0.18120900  0.02226000  0.63963200  1
  H  1881  1  0.16770300  0.95816500  0.65679800  1
  H  1887  1  0.89049800  0.02203800  0.55463000  1
  H  1888  1  0.89055600  0.96978900  0.55456400  1
  H  1890  1  0.85574600  0.96955100  0.63969300  1
  H  1892  1  0.86933700  0.03358900  0.65686400  1
  H  1898  1  0.04458300  0.41465800  0.10137300  1
  H  1899  1  0.99234800  0.41471000  0.10129200  1
  H  1901  1  0.99209900  0.32956700  0.13604700  1
  H  1903  1  0.05620400  0.31242600  0.12251500  1
  H  1909  1  0.99228500  0.41467000  0.84542100  1
  H  1910  1  0.04454200  0.41473100  0.84550800  1
  H  1912  1  0.04480100  0.32960500  0.81069000  1
  H  1914  1  0.98070000  0.31245200  0.82421000  1
  H  1920  1  0.99233500  0.57718300  0.10131000  1
  H  1921  1  0.04457600  0.57714700  0.10123100  1
  H  1923  1  0.04478700  0.66223400  0.13612200  1
  H  1925  1  0.98073500  0.67939300  0.12259100  1
  H  1931  1  0.04457300  0.57716600  0.84542100  1
  H  1932  1  0.99231900  0.57712600  0.84549200  1
  H  1934  1  0.99209800  0.66223200  0.81064200  1
  H  1936  1  0.05618400  0.67938000  0.82417500  1
  H  1942  1  0.43723300  0.12387200  0.99949700  1
  H  1943  1  0.43727300  0.12378700  0.94723800  1
  H  1945  1  0.35211900  0.15854800  0.94701700  1
  H  1947  1  0.33499300  0.14496700  0.01107400  1
  H  1953  1  0.43721600  0.86788100  0.94723800  1
  H  1954  1  0.43726300  0.86795400  0.99948200  1
  H  1956  1  0.35210400  0.83324100  0.99971300  1
  H  1958  1  0.33496400  0.84681200  0.93564100  1
  H  1964  1  0.59968200  0.12382700  0.94724800  1
  H  1965  1  0.59965100  0.12375200  0.99951300  1
  H  1967  1  0.68474400  0.15863300  0.99971100  1
  H  1969  1  0.70187600  0.14510500  0.93560600  1
  H  1975  1  0.59972900  0.86799400  0.99952100  1
  H  1976  1  0.59966900  0.86806400  0.94727500  1
  H  1978  1  0.68475000  0.83315500  0.94703700  1
  H  1980  1  0.70193600  0.84670600  0.01107200  1
  H  1986  1  0.04456300  0.12393500  0.55461200  1
  H  1987  1  0.99232100  0.12386400  0.55456200  1
  H  1989  1  0.99208400  0.15857400  0.63973000  1
  H  1991  1  0.05619100  0.14501800  0.65685700  1
  H  1997  1  0.99230200  0.86793000  0.55461000  1
  H  1998  1  0.04455700  0.86802100  0.55456900  1
  H  2000  1  0.04478800  0.83325600  0.63971300  1
  H  2002  1  0.98068000  0.84678300  0.65684000  1
  H  2008  1  0.99233700  0.12386200  0.39213500  1
  H  2009  1  0.04458300  0.12379500  0.39217400  1
  H  2011  1  0.04478200  0.15862200  0.30705200  1
  H  2013  1  0.98072700  0.14506100  0.28990700  1
  H  2019  1  0.04457700  0.86796300  0.39210400  1
  H  2020  1  0.99233100  0.86803200  0.39214500  1
  H  2022  1  0.99210400  0.83318800  0.30704500  1
  H  2024  1  0.05618600  0.84672100  0.28988800  1
  H  2030  1  0.43722900  0.02203200  0.84541400  1
  H  2031  1  0.43727100  0.96977400  0.84548800  1
  H  2033  1  0.35212800  0.96955900  0.81069900  1
  H  2035  1  0.33499600  0.03361500  0.82428700  1
  H  2041  1  0.43722200  0.96977900  0.10139500  1
  H  2042  1  0.43726300  0.02202200  0.10131600  1
  H  2044  1  0.35209900  0.02225100  0.13601500  1
  H  2046  1  0.33496300  0.95818000  0.12245000  1
  H  2052  1  0.59969500  0.96977600  0.84549200  1
  H  2053  1  0.59965200  0.02203600  0.84556600  1
  H  2055  1  0.68471100  0.02225200  0.81061300  1
  H  2057  1  0.70187300  0.95815400  0.82411700  1
  H  2063  1  0.59970800  0.02203100  0.10133800  1
  H  2064  1  0.59965500  0.96978100  0.10128100  1
  H  2066  1  0.68479300  0.96956700  0.13607800  1
  H  2068  1  0.70194300  0.03360600  0.12248000  1
  H  2074  1  0.14647000  0.41468000  0.94725000  1
  H  2075  1  0.14639900  0.41472700  0.99948900  1
  H  2077  1  0.18111000  0.32956200  0.99972600  1
  H  2079  1  0.16755500  0.31243700  0.93561900  1
  H  2085  1  0.89050400  0.41465900  0.99952300  1
  H  2086  1  0.89059000  0.41471900  0.94726600  1
  H  2088  1  0.85575800  0.32959900  0.94701400  1
  H  2090  1  0.86927800  0.31244500  0.01111600  1
  H  2096  1  0.14642500  0.57715500  0.99947300  1
  H  2097  1  0.14635600  0.57712300  0.94722800  1
  H  2099  1  0.18119200  0.66223800  0.94703200  1
  H  2101  1  0.16763900  0.67938100  0.01108300  1
  H  2107  1  0.89050400  0.57718400  0.94723500  1
  H  2108  1  0.89058000  0.57713900  0.99948200  1
  H  2110  1  0.85573400  0.66224000  0.99971300  1
  H  2112  1  0.86925900  0.67940000  0.93562900  1
  C  1  1  0.63204800  0.63164600  0.85701700  1
  C  2  1  0.63960500  0.66163000  0.86151700  1
  C  3  1  0.61774500  0.68386600  0.86018600  1
  C  4  1  0.58860900  0.67515000  0.85495400  1
  C  5  1  0.58021900  0.64572000  0.85196600  1
  C  6  1  0.60215000  0.62380500  0.85276200  1
  C  7  1  0.66897900  0.66803300  0.86844700  1
  C  8  1  0.59503800  0.59406500  0.84885600  1
  C  10  1  0.65421100  0.60946000  0.85707100  1
  C  11  1  0.68418900  0.61700000  0.86163700  1
  C  12  1  0.70640400  0.59511300  0.86043500  1
  C  13  1  0.69766900  0.56597100  0.85527800  1
  C  14  1  0.66824900  0.55761300  0.85213600  1
  C  15  1  0.64635500  0.57956500  0.85282600  1
  C  16  1  0.69060500  0.64638600  0.86850000  1
  C  18  1  0.61662100  0.57246700  0.84886900  1
  C  23  1  0.40484700  0.36016700  0.85705200  1
  C  24  1  0.39729000  0.33018200  0.86155200  1
  C  25  1  0.41914900  0.30794900  0.86022600  1
  C  26  1  0.44828700  0.31666500  0.85499800  1
  C  27  1  0.45667600  0.34609300  0.85199500  1
  C  28  1  0.43474400  0.36800800  0.85278700  1
  C  29  1  0.36791600  0.32378200  0.86848700  1
  C  30  1  0.44185400  0.39774600  0.84886600  1
  C  32  1  0.38268600  0.38235500  0.85710800  1
  C  33  1  0.35270800  0.37481500  0.86168200  1
  C  34  1  0.33049200  0.39670400  0.86048100  1
  C  35  1  0.33922600  0.42584200  0.85531600  1
  C  36  1  0.36864300  0.43420000  0.85216000  1
  C  37  1  0.39054000  0.41224800  0.85285000  1
  C  38  1  0.34629400  0.34543300  0.86855700  1
  C  40  1  0.42027100  0.41934400  0.84888400  1
  C  45  1  0.63203800  0.36017000  0.08972400  1
  C  46  1  0.63959300  0.33018300  0.08522800  1
  C  47  1  0.61773100  0.30795200  0.08656600  1
  C  48  1  0.58859500  0.31667300  0.09179300  1
  C  49  1  0.58020900  0.34610400  0.09477600  1
  C  50  1  0.60214300  0.36801600  0.09398200  1
  C  51  1  0.66896600  0.32377600  0.07830200  1
  C  52  1  0.59503300  0.39775600  0.09788400  1
  C  54  1  0.65420300  0.38235300  0.08966500  1
  C  55  1  0.68418100  0.37480800  0.08510000  1
  C  56  1  0.70639600  0.39669400  0.08628700  1
  C  57  1  0.69766500  0.42583700  0.09143900  1
  C  58  1  0.66824800  0.43419900  0.09459500  1
  C  59  1  0.64635100  0.41225000  0.09391000  1
  C  60  1  0.69059000  0.34542400  0.07823400  1
  C  62  1  0.61662000  0.41935200  0.09786800  1
  C  67  1  0.40486700  0.63164600  0.08971100  1
  C  68  1  0.39730600  0.66163000  0.08520900  1
  C  69  1  0.41916300  0.68386600  0.08654400  1
  C  70  1  0.44829900  0.67515300  0.09178400  1
  C  71  1  0.45669200  0.64572500  0.09478700  1
  C  72  1  0.43476200  0.62380600  0.09397300  1
  C  73  1  0.36793200  0.66803200  0.07827400  1
  C  74  1  0.44187900  0.59406800  0.09787900  1
  C  76  1  0.38270600  0.60945800  0.08965400  1
  C  77  1  0.35272600  0.61699700  0.08508200  1
  C  78  1  0.33051300  0.59510800  0.08628500  1
  C  79  1  0.33924900  0.56597000  0.09145500  1
  C  80  1  0.36866600  0.55761600  0.09462100  1
  C  81  1  0.39056300  0.57956500  0.09391200  1
  C  82  1  0.34631000  0.64638100  0.07821000  1
  C  84  1  0.42029400  0.57247000  0.09787700  1
  C  89  1  0.65418200  0.87957200  0.58697100  1
  C  90  1  0.68416500  0.88408200  0.59453300  1
  C  91  1  0.70640200  0.88275400  0.57267500  1
  C  92  1  0.69769200  0.87751700  0.54354000  1
  C  93  1  0.66826300  0.87452900  0.53514400  1
  C  94  1  0.64634500  0.87531100  0.55707400  1
  C  95  1  0.69056400  0.89101500  0.62390700  1
  C  96  1  0.61660900  0.87139300  0.54995800  1
  C  98  1  0.63199600  0.87962000  0.60913000  1
  C  99  1  0.63953200  0.88419200  0.63911100  1
  C  100  1  0.61764200  0.88298500  0.66132200  1
  C  101  1  0.58850400  0.87780900  0.65258400  1
  C  102  1  0.58015200  0.87466100  0.62316500  1
  C  103  1  0.60210500  0.87535900  0.60127200  1
  C  104  1  0.66891400  0.89106500  0.64552900  1
  C  106  1  0.59501000  0.87139400  0.57154000  1
  C  111  1  0.38271700  0.87957200  0.35976900  1
  C  112  1  0.35273300  0.88406600  0.35220700  1
  C  113  1  0.33049800  0.88274300  0.37406700  1
  C  114  1  0.33921300  0.87752300  0.40320500  1
  C  115  1  0.36864100  0.87451800  0.41159800  1
  C  116  1  0.39055700  0.87531600  0.38966900  1
  C  117  1  0.34633100  0.89099500  0.32283400  1
  C  118  1  0.42029500  0.87140700  0.39678300  1
  C  120  1  0.40490400  0.87962900  0.33761000  1
  C  121  1  0.39736600  0.88419700  0.30763000  1
  C  122  1  0.41925300  0.88299800  0.28541600  1
  C  123  1  0.44839300  0.87784200  0.29415400  1
  C  124  1  0.45675000  0.87469000  0.32357400  1
  C  125  1  0.43479700  0.87538100  0.34546600  1
  C  126  1  0.36798100  0.89106400  0.30121200  1
  C  128  1  0.44189400  0.87142700  0.37520000  1
  C  133  1  0.38270300  0.11224400  0.58695400  1
  C  134  1  0.35271900  0.10774200  0.59451100  1
  C  135  1  0.33048300  0.10908100  0.57265100  1
  C  136  1  0.33920100  0.11431200  0.54351600  1
  C  137  1  0.36863100  0.11730400  0.53512700  1
  C  138  1  0.39054600  0.11650700  0.55705900  1
  C  139  1  0.34631500  0.10081000  0.62388500  1
  C  140  1  0.42028300  0.12042100  0.54994900  1
  C  142  1  0.40488900  0.11218400  0.60911900  1
  C  143  1  0.39734800  0.10761400  0.63909800  1
  C  144  1  0.41923600  0.10880700  0.66131100  1
  C  145  1  0.44837600  0.11396800  0.65258000  1
  C  146  1  0.45673300  0.11713000  0.62316200  1
  C  147  1  0.43478400  0.11643900  0.60126500  1
  C  148  1  0.36796300  0.10074000  0.64550700  1
  C  150  1  0.44188000  0.12040700  0.57153400  1
  C  155  1  0.65419000  0.11226100  0.35977800  1
  C  156  1  0.68417400  0.10775700  0.35221800  1
  C  157  1  0.70641000  0.10909200  0.37407800  1
  C  158  1  0.69769700  0.11433100  0.40321400  1
  C  159  1  0.66826900  0.11733800  0.41160500  1
  C  160  1  0.64635200  0.11652700  0.38967300  1
  C  161  1  0.69057400  0.10082400  0.32284500  1
  C  162  1  0.61661400  0.12043800  0.39678700  1
  C  164  1  0.63200200  0.11220800  0.33761700  1
  C  165  1  0.63954100  0.10763600  0.30763600  1
  C  166  1  0.61765300  0.10884200  0.28542300  1
  C  167  1  0.58851300  0.11400500  0.29415900  1
  C  168  1  0.58015800  0.11716900  0.32357600  1
  C  169  1  0.60211000  0.11646300  0.34547100  1
  C  170  1  0.66892300  0.10076200  0.30122300  1
  C  172  1  0.59501600  0.12043400  0.37520400  1
  C  177  1  0.90208700  0.60949800  0.60909800  1
  C  178  1  0.90658500  0.61705500  0.63908200  1
  C  179  1  0.90524700  0.59519400  0.66131800  1
  C  180  1  0.90001000  0.56606100  0.65260200  1
  C  181  1  0.89702600  0.55767100  0.62317100  1
  C  182  1  0.89782700  0.57960100  0.60125700  1
  C  183  1  0.91351900  0.64642800  0.64548500  1
  C  184  1  0.89392600  0.57248800  0.57151600  1
  C  186  1  0.90214500  0.63166000  0.58691300  1
  C  187  1  0.90671400  0.66164000  0.59445200  1
  C  188  1  0.90551400  0.68385400  0.57256400  1
  C  189  1  0.90035600  0.67511900  0.54342400  1
  C  190  1  0.89721400  0.64570000  0.53506600  1
  C  191  1  0.89790100  0.62380500  0.55701700  1
  C  192  1  0.91358000  0.66805300  0.62383700  1
  C  194  1  0.89394200  0.59407300  0.54991800  1
  C  199  1  0.90213200  0.38230400  0.33763400  1
  C  200  1  0.90663200  0.37474100  0.30764900  1
  C  201  1  0.90531400  0.39660200  0.28541400  1
  C  202  1  0.90009200  0.42574000  0.29412600  1
  C  203  1  0.89708600  0.43413200  0.32355400  1
  C  204  1  0.89787500  0.41220200  0.34547100  1
  C  205  1  0.91355900  0.34536800  0.30125300  1
  C  206  1  0.89395800  0.41931700  0.37520700  1
  C  208  1  0.90218100  0.36014300  0.35982100  1
  C  209  1  0.90674800  0.33016200  0.35228600  1
  C  210  1  0.90554000  0.30795100  0.37417700  1
  C  211  1  0.90037300  0.31668800  0.40331400  1
  C  212  1  0.89722600  0.34610700  0.41166600  1
  C  213  1  0.89792400  0.36800000  0.38971400  1
  C  214  1  0.91362200  0.32374500  0.32290400  1
  C  216  1  0.89396900  0.39773600  0.39680700  1
  C  221  1  0.13480600  0.60951000  0.33762800  1
  C  222  1  0.13031200  0.61706800  0.30764100  1
  C  223  1  0.13164500  0.59520900  0.28540800  1
  C  224  1  0.13686900  0.56607000  0.29412800  1
  C  225  1  0.13986000  0.55768100  0.32355800  1
  C  226  1  0.13906200  0.57961200  0.34547300  1
  C  227  1  0.12338800  0.64644200  0.30123600  1
  C  228  1  0.14296700  0.57250200  0.37521100  1
  C  230  1  0.13474600  0.63167300  0.35981300  1
  C  231  1  0.13018200  0.66165300  0.35227100  1
  C  232  1  0.13137000  0.68386600  0.37415900  1
  C  233  1  0.13651900  0.67513200  0.40330100  1
  C  234  1  0.13967200  0.64571500  0.41166200  1
  C  235  1  0.13898900  0.62381800  0.38971000  1
  C  236  1  0.12331600  0.66806600  0.32288400  1
  C  238  1  0.14294700  0.59408600  0.39680900  1
  C  243  1  0.13478900  0.38232500  0.60911900  1
  C  244  1  0.13028300  0.37476700  0.63910400  1
  C  245  1  0.13161900  0.39662600  0.66133700  1
  C  246  1  0.13685600  0.42576200  0.65262100  1
  C  247  1  0.13986100  0.43415100  0.62319300  1
  C  248  1  0.13905300  0.41222000  0.60127600  1
  C  249  1  0.12334800  0.34539500  0.64550700  1
  C  250  1  0.14296500  0.41933300  0.57153800  1
  C  252  1  0.13473600  0.36016000  0.58693400  1
  C  253  1  0.13016200  0.33018100  0.59447600  1
  C  254  1  0.13136800  0.30796600  0.57259000  1
  C  255  1  0.13653900  0.31670000  0.54345200  1
  C  256  1  0.13970800  0.34611600  0.53509400  1
  C  257  1  0.13899700  0.36801200  0.55704100  1
  C  258  1  0.12328600  0.32376900  0.62385900  1
  C  260  1  0.14296600  0.39774600  0.54994500  1
  C  265  1  0.65418800  0.60950300  0.08971300  1
  C  266  1  0.68417000  0.61706700  0.08520900  1
  C  267  1  0.70640700  0.59520900  0.08653100  1
  C  268  1  0.69769800  0.56607100  0.09176000  1
  C  269  1  0.66826800  0.55767600  0.09475200  1
  C  270  1  0.64635100  0.57960600  0.09396900  1
  C  271  1  0.69056800  0.64644000  0.07828200  1
  C  272  1  0.61661400  0.57249000  0.09787900  1
  C  274  1  0.63200100  0.63166500  0.08966500  1
  C  275  1  0.63953400  0.66164500  0.08509800  1
  C  276  1  0.61764500  0.68385700  0.08630400  1
  C  277  1  0.58850600  0.67511900  0.09147000  1
  C  278  1  0.58015200  0.64569700  0.09461000  1
  C  279  1  0.60210800  0.62380400  0.09391600  1
  C  280  1  0.66891800  0.66806500  0.07823200  1
  C  282  1  0.59501300  0.59407100  0.09787500  1
  C  287  1  0.38271300  0.38231500  0.08971700  1
  C  288  1  0.35272600  0.37475600  0.08522200  1
  C  289  1  0.33049300  0.39661600  0.08654700  1
  C  290  1  0.33920900  0.42575400  0.09176700  1
  C  291  1  0.36863700  0.43414400  0.09476300  1
  C  292  1  0.39055400  0.41221200  0.09397300  1
  C  293  1  0.34632500  0.34538200  0.07829300  1
  C  294  1  0.42029200  0.41932300  0.09788800  1
  C  296  1  0.40489800  0.36015300  0.08966500  1
  C  297  1  0.39735800  0.33017300  0.08509800  1
  C  298  1  0.41924600  0.30795700  0.08630000  1
  C  299  1  0.44838600  0.31669400  0.09146100  1
  C  300  1  0.45674200  0.34611200  0.09460800  1
  C  301  1  0.43479100  0.36800700  0.09391600  1
  C  302  1  0.36797600  0.32376000  0.07822600  1
  C  304  1  0.44189000  0.39774000  0.09787000  1
  C  309  1  0.38271600  0.60949900  0.85704000  1
  C  310  1  0.35273200  0.61705800  0.86154100  1
  C  311  1  0.33049700  0.59520100  0.86021100  1
  C  312  1  0.33921000  0.56606300  0.85498200  1
  C  313  1  0.36863800  0.55767200  0.85198900  1
  C  314  1  0.39055500  0.57960100  0.85278100  1
  C  315  1  0.34633200  0.64643400  0.86846600  1
  C  316  1  0.42029300  0.57248700  0.84886800  1
  C  318  1  0.40490400  0.63166000  0.85709200  1
  C  319  1  0.39736600  0.66164000  0.86165500  1
  C  320  1  0.41925600  0.68385100  0.86046000  1
  C  321  1  0.44839400  0.67511500  0.85530200  1
  C  322  1  0.45675000  0.64569600  0.85214700  1
  C  323  1  0.43479600  0.62380300  0.85284100  1
  C  324  1  0.36798200  0.66805600  0.86852800  1
  C  326  1  0.44189300  0.59406900  0.84888000  1
  C  331  1  0.65418700  0.38232100  0.85702100  1
  C  332  1  0.68416900  0.37475900  0.86152300  1
  C  333  1  0.70640700  0.39661600  0.86018800  1
  C  334  1  0.69769500  0.42575200  0.85495000  1
  C  335  1  0.66826700  0.43414600  0.85194800  1
  C  336  1  0.64634800  0.41221900  0.85276000  1
  C  337  1  0.69057000  0.34538500  0.86845500  1
  C  338  1  0.61661000  0.41933800  0.84885800  1
  C  340  1  0.63199700  0.36016000  0.85707500  1
  C  341  1  0.63953500  0.33018200  0.86164400  1
  C  342  1  0.61764700  0.30796800  0.86043800  1
  C  343  1  0.58850900  0.31670700  0.85527100  1
  C  344  1  0.58015500  0.34612400  0.85210900  1
  C  345  1  0.60210700  0.36801900  0.85282000  1
  C  346  1  0.66891700  0.32376300  0.86851800  1
  C  348  1  0.59501200  0.39775300  0.84885800  1
  C  353  1  0.90211300  0.63163100  0.35977300  1
  C  354  1  0.90661100  0.66161600  0.35221400  1
  C  355  1  0.90527900  0.68385300  0.37407200  1
  C  356  1  0.90004700  0.67513800  0.40320800  1
  C  357  1  0.89706200  0.64570700  0.41160100  1
  C  358  1  0.89786000  0.62379100  0.38967100  1
  C  359  1  0.91353800  0.66801900  0.32284000  1
  C  360  1  0.89396100  0.59405100  0.39678900  1
  C  362  1  0.90216900  0.60944400  0.33761200  1
  C  363  1  0.90673300  0.61698400  0.30763400  1
  C  364  1  0.90553200  0.59509700  0.28542100  1
  C  365  1  0.90037400  0.56595600  0.29415900  1
  C  366  1  0.89723500  0.55759700  0.32357800  1
  C  367  1  0.89792600  0.57955100  0.34547100  1
  C  368  1  0.91359300  0.64637100  0.30121600  1
  C  370  1  0.89397300  0.57245100  0.37520400  1
  C  375  1  0.90209900  0.36017400  0.58696300  1
  C  376  1  0.90660000  0.33018900  0.59452700  1
  C  377  1  0.90528100  0.30795400  0.57266700  1
  C  378  1  0.90005600  0.31666700  0.54352900  1
  C  379  1  0.89704900  0.34609500  0.53513600  1
  C  380  1  0.89784000  0.36801200  0.55706500  1
  C  381  1  0.91353000  0.32379200  0.62390000  1
  C  382  1  0.89392200  0.39775000  0.54994900  1
  C  384  1  0.90214800  0.38236100  0.60912400  1
  C  385  1  0.90671500  0.37482700  0.63910400  1
  C  386  1  0.90550500  0.39671500  0.66131800  1
  C  387  1  0.90034100  0.42585300  0.65257800  1
  C  388  1  0.89719700  0.43420800  0.62315800  1
  C  389  1  0.89789200  0.41225400  0.60126500  1
  C  390  1  0.91359200  0.34544400  0.64552200  1
  C  392  1  0.89393600  0.41935000  0.57153200  1
  C  397  1  0.13480000  0.36017400  0.35978000  1
  C  398  1  0.13029800  0.33018700  0.35222500  1
  C  399  1  0.13163000  0.30795400  0.37408700  1
  C  400  1  0.13685700  0.31667300  0.40322300  1
  C  401  1  0.13985100  0.34610100  0.41161100  1
  C  402  1  0.13905800  0.36801600  0.38967700  1
  C  403  1  0.12337100  0.32378300  0.32285100  1
  C  404  1  0.14297400  0.39775400  0.39678700  1
  C  406  1  0.13474700  0.38235700  0.33761700  1
  C  407  1  0.13017900  0.37481600  0.30763600  1
  C  408  1  0.13137200  0.39670300  0.28542300  1
  C  409  1  0.13653100  0.42584300  0.29415400  1
  C  410  1  0.13968700  0.43420500  0.32357100  1
  C  411  1  0.13899800  0.41225200  0.34546900  1
  C  412  1  0.12330200  0.34543200  0.30122700  1
  C  414  1  0.14296000  0.41935300  0.37520000  1
  C  419  1  0.13478800  0.63165600  0.58696100  1
  C  420  1  0.13028800  0.66164100  0.59452200  1
  C  421  1  0.13162400  0.68387700  0.57266400  1
  C  422  1  0.13685600  0.67516600  0.54352900  1
  C  423  1  0.13984800  0.64573600  0.53513300  1
  C  424  1  0.13904500  0.62381800  0.55706300  1
  C  425  1  0.12336000  0.66804100  0.62389600  1
  C  426  1  0.14294700  0.59408000  0.54994700  1
  C  428  1  0.13473200  0.60946800  0.60912200  1
  C  429  1  0.13016500  0.61700500  0.63910200  1
  C  430  1  0.13137000  0.59511600  0.66131500  1
  C  431  1  0.13653100  0.56597600  0.65257800  1
  C  432  1  0.13969300  0.55762300  0.62316000  1
  C  433  1  0.13898500  0.57957600  0.60126500  1
  C  434  1  0.12329600  0.64639000  0.64551800  1
  C  436  1  0.14294700  0.57247900  0.57153200  1
  C  441  1  0.63204400  0.87957900  0.33764900  1
  C  442  1  0.63960700  0.88408400  0.30766500  1
  C  443  1  0.61774900  0.88276300  0.28542700  1
  C  444  1  0.58861100  0.87753500  0.29413900  1
  C  445  1  0.58021700  0.87454000  0.32356700  1
  C  446  1  0.60214700  0.87532700  0.34548400  1
  C  447  1  0.66898200  0.89100900  0.30126800  1
  C  448  1  0.59502700  0.87141800  0.37522200  1
  C  450  1  0.65420500  0.87962400  0.35983700  1
  C  451  1  0.68418500  0.88418600  0.35230100  1
  C  452  1  0.70639700  0.88297300  0.37419200  1
  C  453  1  0.69765800  0.87780600  0.40333000  1
  C  454  1  0.66823900  0.87466900  0.41168400  1
  C  455  1  0.64634500  0.87537100  0.38973000  1
  C  456  1  0.69060500  0.89105700  0.32291900  1
  C  458  1  0.61661000  0.87141800  0.39682200  1
  C  463  1  0.40485600  0.87956100  0.60909800  1
  C  464  1  0.39729700  0.88405900  0.63908200  1
  C  465  1  0.41915800  0.88273400  0.66131800  1
  C  466  1  0.44829300  0.87750700  0.65260200  1
  C  467  1  0.45668300  0.87450600  0.62317300  1
  C  468  1  0.43475100  0.87529900  0.60125700  1
  C  469  1  0.36792400  0.89099300  0.64548300  1
  C  470  1  0.44186200  0.87138300  0.57151900  1
  C  472  1  0.38269200  0.87961600  0.58691300  1
  C  473  1  0.35271500  0.88418800  0.59445000  1
  C  474  1  0.33050100  0.88298700  0.57256400  1
  C  475  1  0.33923300  0.87782400  0.54342400  1
  C  476  1  0.36865200  0.87466900  0.53506600  1
  C  477  1  0.39054600  0.87536200  0.55701700  1
  C  478  1  0.34630200  0.89106100  0.62383500  1
  C  480  1  0.42027900  0.87140200  0.54992100  1
  C  485  1  0.63204200  0.11224700  0.60910600  1
  C  486  1  0.63960000  0.10774600  0.63909100  1
  C  487  1  0.61773800  0.10907900  0.66132600  1
  C  488  1  0.58860200  0.11431100  0.65260800  1
  C  489  1  0.58021300  0.11730300  0.62318000  1
  C  490  1  0.60214400  0.11650900  0.60126300  1
  C  491  1  0.66897300  0.10081900  0.64549400  1
  C  492  1  0.59503400  0.12042500  0.57152500  1
  C  494  1  0.65420400  0.11219300  0.58692100  1
  C  495  1  0.68418200  0.10762400  0.59446100  1
  C  496  1  0.70639700  0.10881800  0.57257300  1
  C  497  1  0.69766100  0.11397800  0.54343300  1
  C  498  1  0.66824400  0.11713700  0.53507400  1
  C  499  1  0.64635000  0.11644400  0.55702600  1
  C  500  1  0.69059500  0.10074900  0.62384600  1
  C  502  1  0.61661800  0.12041000  0.54992700  1
  C  507  1  0.40485800  0.11225600  0.33761700  1
  C  508  1  0.39729600  0.10775100  0.30763200  1
  C  509  1  0.41915300  0.10908200  0.28539700  1
  C  510  1  0.44829100  0.11431900  0.29410800  1
  C  511  1  0.45668200  0.11732800  0.32353700  1
  C  512  1  0.43475500  0.11651800  0.34545300  1
  C  513  1  0.36792200  0.10081800  0.30123400  1
  C  514  1  0.44187000  0.12042800  0.37519100  1
  C  516  1  0.38269800  0.11220400  0.35980200  1
  C  517  1  0.35271700  0.10763200  0.35226600  1
  C  518  1  0.33050500  0.10883900  0.37415500  1
  C  519  1  0.33924300  0.11400800  0.40329300  1
  C  520  1  0.36866000  0.11717200  0.41164600  1
  C  521  1  0.39055500  0.11646000  0.38969500  1
  C  522  1  0.34630100  0.10075700  0.32288400  1
  C  524  1  0.42028800  0.12042700  0.39678900  1
  C  529  1  0.13203700  0.13164700  0.35662700  1
  C  530  1  0.13964000  0.16162000  0.36105000  1
  C  531  1  0.11781500  0.18383800  0.35958600  1
  C  532  1  0.08864700  0.17521000  0.35448400  1
  C  533  1  0.08021900  0.14577500  0.35155900  1
  C  534  1  0.10213600  0.12382800  0.35237100  1
  C  535  1  0.16901400  0.16810300  0.36788500  1
  C  536  1  0.09503700  0.09407900  0.34847800  1
  C  538  1  0.15419400  0.10947400  0.35668500  1
  C  539  1  0.18415700  0.11706800  0.36118300  1
  C  540  1  0.20636100  0.09522300  0.35986100  1
  C  541  1  0.19772400  0.06604600  0.35483500  1
  C  542  1  0.16830400  0.05764300  0.35174300  1
  C  543  1  0.14637000  0.07957000  0.35244100  1
  C  544  1  0.19064200  0.14645700  0.36795000  1
  C  546  1  0.11663200  0.07247800  0.34849100  1
  C  551  1  0.90486000  0.86016400  0.35663100  1
  C  552  1  0.89725600  0.83019200  0.36105400  1
  C  553  1  0.91908000  0.80797200  0.35959200  1
  C  554  1  0.94825000  0.81660100  0.35449700  1
  C  555  1  0.95667700  0.84603500  0.35156100  1
  C  556  1  0.93476100  0.86798300  0.35236700  1
  C  557  1  0.86788200  0.82371200  0.36789600  1
  C  558  1  0.94185900  0.89772800  0.34846000  1
  C  560  1  0.88270400  0.88233800  0.35669000  1
  C  561  1  0.85274200  0.87474700  0.36119400  1
  C  562  1  0.83053800  0.89659300  0.35987200  1
  C  563  1  0.83917500  0.92577000  0.35484600  1
  C  564  1  0.86859400  0.93417000  0.35174000  1
  C  565  1  0.89052800  0.91224000  0.35243700  1
  C  566  1  0.84625700  0.84535800  0.36796800  1
  C  568  1  0.92026600  0.91933200  0.34848200  1
  C  573  1  0.13203200  0.86018300  0.59011000  1
  C  574  1  0.13963500  0.83021000  0.58568600  1
  C  575  1  0.11781000  0.80799100  0.58715500  1
  C  576  1  0.08864200  0.81662200  0.59225700  1
  C  577  1  0.08021600  0.84605700  0.59517900  1
  C  578  1  0.10213100  0.86800400  0.59436700  1
  C  579  1  0.16900800  0.82372600  0.57884900  1
  C  580  1  0.09503200  0.89775200  0.59825800  1
  C  582  1  0.15418900  0.88235600  0.59004600  1
  C  583  1  0.18415100  0.87476000  0.58555100  1
  C  584  1  0.20635400  0.89660700  0.58686000  1
  C  585  1  0.19771600  0.92578500  0.59187700  1
  C  586  1  0.16829900  0.93418900  0.59498300  1
  C  587  1  0.14636500  0.91225900  0.59428900  1
  C  588  1  0.19063500  0.84537100  0.57877900  1
  C  590  1  0.11662500  0.91935400  0.59823900  1
  C  595  1  0.90485600  0.13164000  0.59011400  1
  C  596  1  0.89724500  0.16161000  0.58568400  1
  C  597  1  0.91906400  0.18383400  0.58714400  1
  C  598  1  0.94823400  0.17521300  0.59225700  1
  C  599  1  0.95666800  0.14578300  0.59519600  1
  C  600  1  0.93476000  0.12382900  0.59437400  1
  C  601  1  0.86786800  0.16808500  0.57884900  1
  C  602  1  0.94186700  0.09408200  0.59826700  1
  C  604  1  0.88270500  0.10946200  0.59005700  1
  C  605  1  0.85274000  0.11704800  0.58556200  1
  C  606  1  0.83054000  0.09519900  0.58689100  1
  C  607  1  0.83918600  0.06602400  0.59191900  1
  C  608  1  0.86860700  0.05763000  0.59502800  1
  C  609  1  0.89053700  0.07956200  0.59431000  1
  C  610  1  0.84624700  0.14643500  0.57878600  1
  C  612  1  0.92027700  0.07247800  0.59826500  1
  C  617  1  0.15418500  0.37916600  0.08696100  1
  C  618  1  0.18415400  0.38359600  0.09456700  1
  C  619  1  0.20637600  0.38213000  0.07274800  1
  C  620  1  0.19775100  0.37702800  0.04357700  1
  C  621  1  0.16831800  0.37410900  0.03514500  1
  C  622  1  0.14636700  0.37490900  0.05705700  1
  C  623  1  0.19063200  0.39043400  0.12394200  1
  C  624  1  0.11662300  0.37101000  0.04995400  1
  C  626  1  0.13200900  0.37922100  0.10911400  1
  C  627  1  0.13959800  0.38372000  0.13907600  1
  C  628  1  0.11774900  0.38238800  0.16127900  1
  C  629  1  0.08857400  0.37735400  0.15263700  1
  C  630  1  0.08017600  0.37426300  0.12321600  1
  C  631  1  0.10210800  0.37496600  0.10128600  1
  C  632  1  0.16898500  0.39049700  0.14556700  1
  C  634  1  0.09501900  0.37101400  0.07154600  1
  C  639  1  0.88271200  0.37916500  0.85978100  1
  C  640  1  0.85274000  0.38358400  0.85217400  1
  C  641  1  0.83052100  0.38212600  0.87399800  1
  C  642  1  0.83915100  0.37704300  0.90317000  1
  C  643  1  0.86858400  0.37410300  0.91159900  1
  C  644  1  0.89053100  0.37491300  0.88968400  1
  C  645  1  0.84626000  0.39042000  0.82279800  1
  C  646  1  0.92027800  0.37101700  0.89678700  1
  C  648  1  0.90488600  0.37922200  0.83762700  1
  C  649  1  0.89729500  0.38371600  0.80766300  1
  C  650  1  0.91914100  0.38239100  0.78545900  1
  C  651  1  0.94831800  0.37737400  0.79410100  1
  C  652  1  0.95671900  0.37427600  0.82352100  1
  C  653  1  0.93478900  0.37497700  0.84545400  1
  C  654  1  0.86790600  0.39048800  0.80117300  1
  C  656  1  0.94188200  0.37103700  0.87519400  1
  C  661  1  0.88271800  0.61264700  0.08695500  1
  C  662  1  0.85274700  0.60821500  0.09456000  1
  C  663  1  0.83052600  0.60968000  0.07273700  1
  C  664  1  0.83915200  0.61478800  0.04356900  1
  C  665  1  0.86858500  0.61772300  0.03513800  1
  C  666  1  0.89053400  0.61691200  0.05705300  1
  C  667  1  0.84626900  0.60137500  0.12393400  1
  C  668  1  0.92027900  0.62081600  0.04995400  1
  C  670  1  0.90489300  0.61259000  0.10911100  1
  C  671  1  0.89730200  0.60808900  0.13907400  1
  C  672  1  0.91915000  0.60940700  0.16127700  1
  C  673  1  0.94832500  0.61443700  0.15263700  1
  C  674  1  0.95672500  0.61754700  0.12322000  1
  C  675  1  0.93479400  0.61684500  0.10128600  1
  C  676  1  0.86791600  0.60130900  0.14556000  1
  C  678  1  0.94188300  0.62080200  0.07154800  1
  C  683  1  0.15418900  0.61265900  0.85977700  1
  C  684  1  0.18415800  0.60823100  0.85217000  1
  C  685  1  0.20638000  0.60969700  0.87399100  1
  C  686  1  0.19775900  0.61480700  0.90316000  1
  C  687  1  0.16832700  0.61774700  0.91159200  1
  C  688  1  0.14637500  0.61692100  0.88968000  1
  C  689  1  0.19063600  0.60139700  0.82279400  1
  C  690  1  0.11662800  0.62081400  0.89678300  1
  C  692  1  0.13201200  0.61259900  0.83762400  1
  C  693  1  0.13959900  0.60810000  0.80766100  1
  C  694  1  0.11775200  0.60942300  0.78545800  1
  C  695  1  0.08857500  0.61444900  0.79410000  1
  C  696  1  0.08017800  0.61756000  0.82351900  1
  C  697  1  0.10211100  0.61684800  0.84545200  1
  C  698  1  0.16898700  0.60132800  0.80117100  1
  C  700  1  0.09502300  0.62080800  0.87519000  1
  C  705  1  0.40170800  0.10949000  0.10909200  1
  C  706  1  0.40613000  0.11709300  0.13906300  1
  C  707  1  0.40466000  0.09526900  0.16128300  1
  C  708  1  0.39955500  0.06610100  0.15265500  1
  C  709  1  0.39663700  0.05767200  0.12322000  1
  C  710  1  0.39745000  0.07958900  0.10127300  1
  C  711  1  0.41296700  0.14646800  0.14554500  1
  C  712  1  0.39356300  0.07248800  0.07152400  1
  C  714  1  0.40176800  0.13164600  0.08691800  1
  C  715  1  0.40626400  0.16160800  0.09451200  1
  C  716  1  0.40493900  0.18381400  0.07266500  1
  C  717  1  0.39991700  0.17517500  0.04348800  1
  C  718  1  0.39682900  0.14575500  0.03508600  1
  C  719  1  0.39752500  0.12382100  0.05701600  1
  C  720  1  0.41303400  0.16809500  0.12390100  1
  C  722  1  0.39357700  0.09408300  0.04992100  1
  C  727  1  0.40172300  0.88231600  0.83763300  1
  C  728  1  0.40614800  0.87470600  0.80766300  1
  C  729  1  0.40469200  0.89652700  0.78544000  1
  C  730  1  0.39960100  0.92569900  0.79406300  1
  C  731  1  0.39666000  0.93413200  0.82349500  1
  C  732  1  0.39746800  0.91222000  0.84544600  1
  C  733  1  0.41298300  0.84532900  0.80118900  1
  C  734  1  0.39356500  0.91932600  0.87519000  1
  C  736  1  0.40177900  0.86016400  0.85981100  1
  C  737  1  0.40627400  0.83019900  0.85222600  1
  C  738  1  0.40494300  0.80799800  0.87407600  1
  C  739  1  0.39991800  0.81664300  0.90325000  1
  C  740  1  0.39682400  0.84606500  0.91164500  1
  C  741  1  0.39752600  0.86799500  0.88971100  1
  C  742  1  0.41304700  0.82370700  0.82283900  1
  C  744  1  0.39358100  0.89773600  0.89679800  1
  C  749  1  0.63518100  0.10950000  0.83763700  1
  C  750  1  0.63075900  0.11710600  0.80766400  1
  C  751  1  0.63222100  0.09528200  0.78544400  1
  C  752  1  0.63731600  0.06611300  0.79407300  1
  C  753  1  0.64024300  0.05768200  0.82350800  1
  C  754  1  0.63943400  0.07959600  0.84545600  1
  C  755  1  0.62393000  0.14648200  0.80118200  1
  C  756  1  0.64332600  0.07249600  0.87520300  1
  C  758  1  0.63512000  0.13165400  0.85981100  1
  C  759  1  0.63062900  0.16162000  0.85221800  1
  C  760  1  0.63194100  0.18382200  0.87406600  1
  C  761  1  0.63695900  0.17518100  0.90324400  1
  C  762  1  0.64005800  0.14575900  0.91164600  1
  C  763  1  0.63936100  0.12382800  0.88971500  1
  C  764  1  0.62386100  0.16810600  0.82282900  1
  C  766  1  0.64330900  0.09408700  0.89680700  1
  C  771  1  0.63518900  0.88232200  0.10912000  1
  C  772  1  0.63076000  0.87471700  0.13909000  1
  C  773  1  0.63222700  0.89654000  0.16131000  1
  C  774  1  0.63734000  0.92570800  0.15268300  1
  C  775  1  0.64027900  0.93413700  0.12325100  1
  C  776  1  0.63945500  0.91222300  0.10130100  1
  C  777  1  0.62391900  0.84534300  0.14557100  1
  C  778  1  0.64335200  0.91932400  0.07155400  1
  C  780  1  0.63513200  0.86016600  0.08694600  1
  C  781  1  0.63062800  0.83020400  0.09453800  1
  C  782  1  0.63195200  0.80799900  0.07269300  1
  C  783  1  0.63698400  0.81663700  0.04351800  1
  C  784  1  0.64010400  0.84605600  0.03511700  1
  C  785  1  0.63938900  0.86799000  0.05704400  1
  C  786  1  0.62385300  0.82371700  0.12392500  1
  C  788  1  0.64335000  0.89772800  0.04995400  1
  C  793  1  0.15417100  0.10950800  0.59011600  1
  C  794  1  0.18414000  0.11711700  0.58568800  1
  C  795  1  0.20636500  0.09529600  0.58713900  1
  C  796  1  0.19774300  0.06612500  0.59223700  1
  C  797  1  0.16831000  0.05768900  0.59516400  1
  C  798  1  0.14635900  0.07960200  0.59436700  1
  C  799  1  0.19061500  0.14649500  0.57885800  1
  C  800  1  0.11661400  0.07249600  0.59826500  1
  C  802  1  0.13199300  0.13165800  0.59006600  1
  C  803  1  0.13958000  0.16162600  0.58557300  1
  C  804  1  0.11772900  0.18382400  0.58690600  1
  C  805  1  0.08855500  0.17518000  0.59193400  1
  C  806  1  0.08015900  0.14575600  0.59502000  1
  C  807  1  0.10209400  0.12382900  0.59431500  1
  C  808  1  0.16896700  0.16811800  0.57880100  1
  C  810  1  0.09500800  0.09408600  0.59826000  1
  C  815  1  0.88271500  0.88231700  0.59011000  1
  C  816  1  0.85274400  0.87471000  0.58568600  1
  C  817  1  0.83052300  0.89653200  0.58714200  1
  C  818  1  0.83914900  0.92570400  0.59223300  1
  C  819  1  0.86858100  0.93413400  0.59516800  1
  C  820  1  0.89053100  0.91222000  0.59436500  1
  C  821  1  0.84626600  0.84533300  0.57885100  1
  C  822  1  0.92027600  0.91932300  0.59826700  1
  C  824  1  0.90489000  0.86016300  0.59005500  1
  C  825  1  0.89730100  0.83019900  0.58555900  1
  C  826  1  0.91914900  0.80799500  0.58689100  1
  C  827  1  0.94832400  0.81663900  0.59191000  1
  C  828  1  0.95672200  0.84605900  0.59500400  1
  C  829  1  0.93479100  0.86799100  0.59430400  1
  C  830  1  0.86791400  0.82370900  0.57878600  1
  C  832  1  0.94188200  0.89773100  0.59824900  1
  C  837  1  0.88271600  0.10948300  0.35664200  1
  C  838  1  0.85274500  0.11708800  0.36106800  1
  C  839  1  0.83052300  0.09526800  0.35960100  1
  C  840  1  0.83914900  0.06609700  0.35449700  1
  C  841  1  0.86858200  0.05766700  0.35156800  1
  C  842  1  0.89053200  0.07958100  0.35238000  1
  C  843  1  0.84626600  0.14646400  0.36790700  1
  C  844  1  0.92027800  0.07247700  0.34848000  1
  C  846  1  0.90489100  0.13163700  0.35670300  1
  C  847  1  0.89730100  0.16160000  0.36120100  1
  C  848  1  0.91915100  0.18380200  0.35988700  1
  C  849  1  0.94832600  0.17516000  0.35486300  1
  C  850  1  0.95672500  0.14574100  0.35175600  1
  C  851  1  0.93479300  0.12380900  0.35245400  1
  C  852  1  0.86791400  0.16808800  0.36797400  1
  C  854  1  0.94188200  0.09407100  0.34850000  1
  C  859  1  0.15418900  0.88233400  0.35661800  1
  C  860  1  0.18416100  0.87472700  0.36104400  1
  C  861  1  0.20638300  0.89654800  0.35957500  1
  C  862  1  0.19775600  0.92571800  0.35447000  1
  C  863  1  0.16832200  0.93414900  0.35153300  1
  C  864  1  0.14637200  0.91223600  0.35236000  1
  C  865  1  0.19064000  0.84535200  0.36788300  1
  C  866  1  0.11662600  0.91934100  0.34847100  1
  C  868  1  0.13201500  0.86018000  0.35667700  1
  C  869  1  0.13960500  0.83021600  0.36117700  1
  C  870  1  0.11775900  0.80801200  0.35985000  1
  C  871  1  0.08858400  0.81665300  0.35482000  1
  C  872  1  0.08018400  0.84607200  0.35170600  1
  C  873  1  0.10211400  0.86800600  0.35242600  1
  C  874  1  0.16899400  0.82372800  0.36795000  1
  C  876  1  0.09502300  0.89774600  0.34847100  1
  C  881  1  0.40172000  0.13163300  0.85977800  1
  C  882  1  0.40614300  0.16160300  0.85217100  1
  C  883  1  0.40468400  0.18382400  0.87399100  1
  C  884  1  0.39958000  0.17519900  0.90316100  1
  C  885  1  0.39665600  0.14576700  0.91159400  1
  C  886  1  0.39746700  0.12381600  0.88968100  1
  C  887  1  0.41297300  0.16808500  0.82279400  1
  C  888  1  0.39357800  0.09406900  0.89678500  1
  C  890  1  0.40177600  0.10945700  0.83762500  1
  C  891  1  0.40627100  0.11704800  0.80766100  1
  C  892  1  0.40494500  0.09520200  0.78545800  1
  C  893  1  0.39992000  0.06602600  0.79409900  1
  C  894  1  0.39682800  0.05762400  0.82352000  1
  C  895  1  0.39753200  0.07955500  0.84545300  1
  C  896  1  0.41303800  0.14643700  0.80117000  1
  C  898  1  0.39358900  0.07246400  0.87519300  1
  C  903  1  0.40171800  0.86017500  0.08695000  1
  C  904  1  0.40614200  0.83020400  0.09455800  1
  C  905  1  0.40468100  0.80798300  0.07273500  1
  C  906  1  0.39958300  0.81660900  0.04356400  1
  C  907  1  0.39664300  0.84604200  0.03513400  1
  C  908  1  0.39745600  0.86799100  0.05704600  1
  C  909  1  0.41298200  0.82372600  0.12393400  1
  C  910  1  0.39355100  0.89773700  0.04994300  1
  C  912  1  0.40177800  0.88235100  0.10910300  1
  C  913  1  0.40627800  0.87476300  0.13906600  1
  C  914  1  0.40495400  0.89661100  0.16126800  1
  C  915  1  0.39992600  0.92578600  0.15262600  1
  C  916  1  0.39682600  0.93418400  0.12320500  1
  C  917  1  0.39752400  0.91225200  0.10127500  1
  C  918  1  0.41305000  0.84537400  0.14555600  1
  C  920  1  0.39357400  0.91934200  0.07153500  1
  C  925  1  0.63518400  0.86017300  0.85979000  1
  C  926  1  0.63076000  0.83020100  0.85218700  1
  C  927  1  0.63222900  0.80798000  0.87401100  1
  C  928  1  0.63733200  0.81661000  0.90318000  1
  C  929  1  0.64025900  0.84604400  0.91160800  1
  C  930  1  0.63944400  0.86799200  0.88969200  1
  C  931  1  0.62392200  0.82371900  0.82281300  1
  C  932  1  0.64334200  0.89773900  0.89679000  1
  C  934  1  0.63512000  0.88234700  0.83763500  1
  C  935  1  0.63062100  0.87475400  0.80767200  1
  C  936  1  0.63193000  0.89660200  0.78546800  1
  C  937  1  0.63695000  0.92577900  0.79410500  1
  C  938  1  0.64005800  0.93418100  0.82352400  1
  C  939  1  0.63936500  0.91225000  0.84545800  1
  C  940  1  0.62384800  0.84536500  0.80118700  1
  C  942  1  0.64332200  0.91934200  0.87519600  1
  C  947  1  0.63519500  0.13164500  0.08696100  1
  C  948  1  0.63077200  0.16161600  0.09457100  1
  C  949  1  0.63223600  0.18383900  0.07275000  1
  C  950  1  0.63733300  0.17521300  0.04357700  1
  C  951  1  0.64026100  0.14578100  0.03514500  1
  C  952  1  0.63944800  0.12382900  0.05705700  1
  C  953  1  0.62393800  0.16809300  0.12394700  1
  C  954  1  0.64333600  0.09408400  0.04995400  1
  C  956  1  0.63513900  0.10946800  0.10911600  1
  C  957  1  0.63064400  0.11705500  0.13907900  1
  C  958  1  0.63197200  0.09520800  0.16128100  1
  C  959  1  0.63699700  0.06603300  0.15263900  1
  C  960  1  0.64010400  0.05763600  0.12321800  1
  C  961  1  0.63938800  0.07956600  0.10128600  1
  C  962  1  0.62387300  0.14644400  0.14556900  1
  C  964  1  0.64333700  0.07247900  0.07154600  1
  C  969  1  0.13202700  0.37917700  0.83764500  1
  C  970  1  0.13963400  0.38360300  0.80767400  1
  C  971  1  0.11781300  0.38214400  0.78545200  1
  C  972  1  0.08864200  0.37704400  0.79407700  1
  C  973  1  0.08021100  0.37411500  0.82351100  1
  C  974  1  0.10212600  0.37492100  0.84546100  1
  C  975  1  0.16901100  0.39043800  0.80119600  1
  C  976  1  0.09502100  0.37102700  0.87520700  1
  C  978  1  0.15418200  0.37923200  0.85982100  1
  C  979  1  0.18414500  0.38373000  0.85223200  1
  C  980  1  0.20634800  0.38240500  0.87408000  1
  C  981  1  0.19770900  0.37736900  0.90325400  1
  C  982  1  0.16828700  0.37427700  0.91165300  1
  C  983  1  0.14635500  0.37498100  0.88972200  1
  C  984  1  0.19063400  0.39050200  0.82284400  1
  C  986  1  0.11661500  0.37103300  0.89681100  1
  C  991  1  0.90486400  0.37916700  0.10910100  1
  C  992  1  0.89725900  0.38359300  0.13907200  1
  C  993  1  0.91908300  0.38213600  0.16129200  1
  C  994  1  0.94825300  0.37703800  0.15266300  1
  C  995  1  0.95668000  0.37410100  0.12323100  1
  C  996  1  0.93476500  0.37491000  0.10128100  1
  C  997  1  0.86788400  0.39043000  0.14555100  1
  C  998  1  0.94186500  0.37100600  0.07153700  1
  C  1000  1  0.88270800  0.37922500  0.08692600  1
  C  1001  1  0.85274600  0.38372100  0.09451600  1
  C  1002  1  0.83054100  0.38239500  0.07266900  1
  C  1003  1  0.83918000  0.37737200  0.04349400  1
  C  1004  1  0.86860000  0.37427000  0.03509300  1
  C  1005  1  0.89053300  0.37497200  0.05702500  1
  C  1006  1  0.84625800  0.39049600  0.12390500  1
  C  1008  1  0.92027200  0.37102700  0.04993200  1
  C  1013  1  0.13204600  0.61265400  0.10909800  1
  C  1014  1  0.13965200  0.60822900  0.13907200  1
  C  1015  1  0.11783000  0.60969800  0.16129200  1
  C  1016  1  0.08866200  0.61480700  0.15266300  1
  C  1017  1  0.08023100  0.61773700  0.12323100  1
  C  1018  1  0.10214500  0.61691800  0.10128100  1
  C  1019  1  0.16902600  0.60138700  0.14555100  1
  C  1020  1  0.09504500  0.62081900  0.07153500  1
  C  1022  1  0.15420000  0.61258900  0.08692400  1
  C  1023  1  0.18416300  0.60808800  0.09451600  1
  C  1024  1  0.20636500  0.60939800  0.07266700  1
  C  1025  1  0.19772500  0.61442000  0.04349000  1
  C  1026  1  0.16830700  0.61753000  0.03508800  1
  C  1027  1  0.14637400  0.61683600  0.05702000  1
  C  1028  1  0.19065000  0.60131600  0.12390300  1
  C  1030  1  0.11663600  0.62079500  0.04993000  1
  C  1035  1  0.90486200  0.61266400  0.83762200  1
  C  1036  1  0.89725200  0.60823700  0.80765200  1
  C  1037  1  0.91907200  0.60969900  0.78543000  1
  C  1038  1  0.94824300  0.61480100  0.79405300  1
  C  1039  1  0.95667600  0.61774200  0.82348500  1
  C  1040  1  0.93476500  0.61692300  0.84543700  1
  C  1041  1  0.86787600  0.60140000  0.80117700  1
  C  1042  1  0.94187100  0.62081500  0.87518200  1
  C  1044  1  0.88271000  0.61260900  0.85979900  1
  C  1045  1  0.85274500  0.60811200  0.85221200  1
  C  1046  1  0.83054400  0.60944300  0.87406000  1
  C  1047  1  0.83918800  0.61447200  0.90323500  1
  C  1048  1  0.86860800  0.61758300  0.91163100  1
  C  1049  1  0.89053900  0.61686300  0.88970000  1
  C  1050  1  0.84625400  0.60133600  0.82282500  1
  C  1052  1  0.92027900  0.62081700  0.89678600  1
  C  1057  1  0.62271200  0.71472800  0.86385000  1
  C  1058  1  0.60514100  0.73104900  0.88334300  1
  C  1059  1  0.60762900  0.76153800  0.88543600  1
  C  1060  1  0.62858500  0.77717000  0.86895700  1
  C  1061  1  0.64696800  0.76087500  0.85003100  1
  C  1064  1  0.64321000  0.73039000  0.84682200  1
  C  1068  1  0.41418100  0.27708700  0.86388800  1
  C  1069  1  0.43176100  0.26075200  0.88335900  1
  C  1070  1  0.42929500  0.23025700  0.88541600  1
  C  1071  1  0.40834300  0.21463200  0.86892700  1
  C  1072  1  0.38993900  0.23094100  0.85003400  1
  C  1075  1  0.39369100  0.26143000  0.84684300  1
  C  1079  1  0.62269100  0.27708600  0.08291100  1
  C  1080  1  0.60512300  0.26076100  0.06342300  1
  C  1081  1  0.60761300  0.23027200  0.06133200  1
  C  1082  1  0.62857800  0.21464900  0.07780700  1
  C  1083  1  0.64696500  0.23094700  0.09672500  1
  C  1086  1  0.64319600  0.26143200  0.09993900  1
  C  1090  1  0.41419600  0.71472800  0.08288000  1
  C  1091  1  0.43176100  0.73104900  0.06338400  1
  C  1092  1  0.42928200  0.76154000  0.06130400  1
  C  1093  1  0.40833900  0.77717400  0.07779600  1
  C  1094  1  0.38994500  0.76087400  0.09670500  1
  C  1097  1  0.39370100  0.73038800  0.09991100  1
  C  1101  1  0.73726100  0.88642300  0.57764900  1
  C  1102  1  0.75359100  0.90589900  0.56007000  1
  C  1103  1  0.78408500  0.90796100  0.56253600  1
  C  1104  1  0.79971700  0.89146700  0.58348200  1
  C  1105  1  0.78341100  0.87257400  0.60188700  1
  C  1108  1  0.75292200  0.86938200  0.59813800  1
  C  1112  1  0.29963800  0.88641200  0.36909600  1
  C  1113  1  0.28330700  0.90588700  0.38667700  1
  C  1114  1  0.25281600  0.90797200  0.38418900  1
  C  1115  1  0.23719200  0.89149300  0.36323000  1
  C  1116  1  0.25348900  0.87257200  0.34484900  1
  C  1119  1  0.28397600  0.86936800  0.34861100  1
  C  1123  1  0.29961900  0.10543000  0.57761600  1
  C  1124  1  0.28329100  0.08594500  0.56004400  1
  C  1125  1  0.25279800  0.08388100  0.56251500  1
  C  1126  1  0.23717200  0.10035900  0.58347300  1
  C  1127  1  0.25347800  0.11925700  0.60187400  1
  C  1130  1  0.28396400  0.12246200  0.59811400  1
  C  1134  1  0.73726900  0.10541900  0.36910700  1
  C  1135  1  0.75359300  0.08593500  0.38668500  1
  C  1136  1  0.78408500  0.08385000  0.38420900  1
  C  1137  1  0.79971300  0.10032500  0.36324800  1
  C  1138  1  0.78342000  0.11924800  0.34486200  1
  C  1141  1  0.75293300  0.12245800  0.34861800  1
  C  1145  1  0.90890800  0.60016000  0.69218000  1
  C  1146  1  0.92839500  0.58258800  0.70850500  1
  C  1147  1  0.93048800  0.58507900  0.73899400  1
  C  1148  1  0.91401300  0.60603800  0.75462100  1
  C  1149  1  0.89509300  0.62442400  0.73832200  1
  C  1152  1  0.89188400  0.62066500  0.70783700  1
  C  1156  1  0.90897900  0.39162700  0.25455400  1
  C  1157  1  0.92845600  0.40920300  0.23822000  1
  C  1158  1  0.93051400  0.40674000  0.20772700  1
  C  1159  1  0.91402100  0.38579300  0.19210000  1
  C  1160  1  0.89512300  0.36739200  0.20840600  1
  C  1163  1  0.89193100  0.37114500  0.23889400  1
  C  1167  1  0.12798900  0.60017000  0.25454300  1
  C  1168  1  0.10849200  0.58260700  0.23822000  1
  C  1169  1  0.10640300  0.58509600  0.20773100  1
  C  1170  1  0.12288500  0.60605000  0.19210400  1
  C  1171  1  0.14181000  0.62443100  0.20840100  1
  C  1174  1  0.14501900  0.62067000  0.23888600  1
  C  1178  1  0.12795600  0.39166100  0.69219900  1
  C  1179  1  0.10846400  0.40923000  0.70852100  1
  C  1180  1  0.10638500  0.40675000  0.73901100  1
  C  1181  1  0.12287300  0.38580400  0.75464500  1
  C  1182  1  0.14177900  0.36740500  0.73834400  1
  C  1185  1  0.14498500  0.37116200  0.70785900  1
  C  1189  1  0.73726700  0.60018200  0.08286100  1
  C  1190  1  0.75359600  0.58261000  0.06337700  1
  C  1191  1  0.78408900  0.58507800  0.06130800  1
  C  1192  1  0.79971600  0.60603200  0.07779600  1
  C  1193  1  0.78341700  0.62442000  0.09671000  1
  C  1196  1  0.75292900  0.62066600  0.09990700  1
  C  1200  1  0.29963400  0.39164500  0.08287800  1
  C  1201  1  0.28330100  0.40922900  0.06340600  1
  C  1202  1  0.25281000  0.40674300  0.06132200  1
  C  1203  1  0.23718300  0.38578900  0.07780200  1
  C  1204  1  0.25348500  0.36740200  0.09672000  1
  C  1207  1  0.28397200  0.37116000  0.09992400  1
  C  1211  1  0.29963300  0.60017000  0.86386300  1
  C  1212  1  0.28330300  0.58260500  0.88335300  1
  C  1213  1  0.25281100  0.58508000  0.88541600  1
  C  1214  1  0.23718700  0.60603200  0.86892500  1
  C  1215  1  0.25349500  0.62442900  0.85002600  1
  C  1218  1  0.28398100  0.62066900  0.84682700  1
  C  1222  1  0.73726600  0.39164200  0.86385600  1
  C  1223  1  0.75359200  0.40922200  0.88333600  1
  C  1224  1  0.78408400  0.40674300  0.88541500  1
  C  1225  1  0.79971200  0.38578200  0.86894300  1
  C  1226  1  0.78341300  0.36739300  0.85002700  1
  C  1229  1  0.75292800  0.37115100  0.84682000  1
  C  1233  1  0.90894000  0.71471500  0.36910500  1
  C  1234  1  0.92843100  0.73103700  0.38667400  1
  C  1235  1  0.93051500  0.76152900  0.38419100  1
  C  1236  1  0.91402200  0.77716300  0.36325000  1
  C  1237  1  0.89511200  0.76086200  0.34485500  1
  C  1240  1  0.89191000  0.73037500  0.34860700  1
  C  1244  1  0.90894700  0.27709500  0.57764000  1
  C  1245  1  0.92842400  0.26076200  0.56006400  1
  C  1246  1  0.93048500  0.23026700  0.56253200  1
  C  1247  1  0.91399500  0.21464200  0.58348200  1
  C  1248  1  0.89509700  0.23094700  0.60188100  1
  C  1251  1  0.89190200  0.26143400  0.59812500  1
  C  1255  1  0.12797200  0.27709200  0.36912500  1
  C  1256  1  0.10847800  0.26076600  0.38669000  1
  C  1257  1  0.10639000  0.23027500  0.38419800  1
  C  1258  1  0.12287000  0.21464800  0.36324100  1
  C  1259  1  0.14178500  0.23095000  0.34485500  1
  C  1262  1  0.14499800  0.26143400  0.34862000  1
  C  1266  1  0.12796200  0.71473900  0.57763300  1
  C  1267  1  0.10846300  0.73106300  0.56007000  1
  C  1268  1  0.10637900  0.76155200  0.56255400  1
  C  1269  1  0.12286200  0.77718100  0.58350800  1
  C  1270  1  0.14178500  0.76088200  0.60189200  1
  C  1273  1  0.14499500  0.73039800  0.59812900  1
  C  1277  1  0.62272300  0.88643000  0.25457000  1
  C  1278  1  0.60515100  0.90591200  0.23823500  1
  C  1279  1  0.60762100  0.90797400  0.20774200  1
  C  1280  1  0.62856600  0.89147700  0.19211700  1
  C  1281  1  0.64696300  0.87257500  0.20842300  1
  C  1284  1  0.64320800  0.86938300  0.23891200  1
  C  1288  1  0.41418900  0.88640300  0.69217700  1
  C  1289  1  0.43177500  0.90587400  0.70850700  1
  C  1290  1  0.42929600  0.90795200  0.73899800  1
  C  1291  1  0.40835100  0.89146400  0.75463200  1
  C  1292  1  0.38995200  0.87256100  0.73833100  1
  C  1295  1  0.39370300  0.86936100  0.70784200  1
  C  1299  1  0.62270600  0.10542300  0.69218800  1
  C  1300  1  0.60513700  0.08593500  0.70851600  1
  C  1301  1  0.60760800  0.08386500  0.73900900  1
  C  1302  1  0.62856900  0.10034100  0.75463400  1
  C  1303  1  0.64696300  0.11925100  0.73833300  1
  C  1306  1  0.64320200  0.12245700  0.70784600  1
  C  1310  1  0.41418100  0.10541400  0.25453700  1
  C  1311  1  0.43175400  0.08593100  0.23821100  1
  C  1312  1  0.42927500  0.08384800  0.20771800  1
  C  1313  1  0.40831100  0.10032300  0.19209300  1
  C  1314  1  0.38992800  0.11924500  0.20839000  1
  C  1317  1  0.39368900  0.12245200  0.23887500  1
  C  1321  1  0.41430100  0.27709100  0.08266000  1
  C  1322  1  0.43191800  0.26075900  0.06321800  1
  C  1323  1  0.42950700  0.23026100  0.06120800  1
  C  1324  1  0.40856800  0.21462500  0.07770200  1
  C  1325  1  0.39013100  0.23092700  0.09657000  1
  C  1328  1  0.39383600  0.26142400  0.09972300  1
  C  1332  1  0.62258600  0.71472300  0.08267300  1
  C  1333  1  0.60497700  0.73106000  0.06322900  1
  C  1334  1  0.60737500  0.76156200  0.06123900  1
  C  1335  1  0.62831900  0.77718900  0.07773500  1
  C  1336  1  0.64675900  0.76088200  0.09659600  1
  C  1339  1  0.64305000  0.73038700  0.09974500  1
  C  1343  1  0.41431400  0.71471700  0.86409900  1
  C  1344  1  0.43192300  0.73105500  0.88354200  1
  C  1345  1  0.42951200  0.76155500  0.88554600  1
  C  1346  1  0.40857200  0.77718500  0.86904600  1
  C  1347  1  0.39014000  0.76088000  0.85017900  1
  C  1350  1  0.39385400  0.73038500  0.84702500  1
  C  1354  1  0.62258600  0.27710000  0.86407300  1
  C  1355  1  0.60498200  0.26077200  0.88352900  1
  C  1356  1  0.60738400  0.23027200  0.88553000  1
  C  1357  1  0.62831200  0.21463400  0.86902500  1
  C  1358  1  0.64676000  0.23093800  0.85017100  1
  C  1361  1  0.64305500  0.26143500  0.84701400  1
  C  1365  1  0.29963800  0.10520800  0.36921400  1
  C  1366  1  0.28330900  0.08575300  0.38681900  1
  C  1367  1  0.25280700  0.08376300  0.38442200  1
  C  1368  1  0.23717100  0.10027000  0.36349200  1
  C  1369  1  0.25347800  0.11911700  0.34503900  1
  C  1372  1  0.28397600  0.12226500  0.34874200  1
  C  1376  1  0.73726100  0.10517800  0.57751800  1
  C  1377  1  0.75360200  0.08573800  0.55990700  1
  C  1378  1  0.78409900  0.08373200  0.56232000  1
  C  1379  1  0.79972600  0.10023000  0.58326200  1
  C  1380  1  0.78342100  0.11909800  0.60169500  1
  C  1383  1  0.75292600  0.12224900  0.59798100  1
  C  1387  1  0.73726500  0.88659900  0.36925800  1
  C  1388  1  0.75359800  0.90605800  0.38685300  1
  C  1389  1  0.78409700  0.90805100  0.38445100  1
  C  1390  1  0.79972900  0.89155100  0.36351400  1
  C  1391  1  0.78341900  0.87269600  0.34506900  1
  C  1394  1  0.75292400  0.86953800  0.34878600  1
  C  1398  1  0.29963500  0.88663000  0.57750900  1
  C  1399  1  0.28329800  0.90606700  0.55988900  1
  C  1400  1  0.25279800  0.90806300  0.56229000  1
  C  1401  1  0.23716300  0.89156400  0.58322400  1
  C  1402  1  0.25347100  0.87271100  0.60167400  1
  C  1405  1  0.28396900  0.86956000  0.59796800  1
  C  1409  1  0.12772900  0.39175400  0.25455900  1
  C  1410  1  0.10828900  0.40936800  0.23822000  1
  C  1411  1  0.10628100  0.40695500  0.20772000  1
  C  1412  1  0.12278300  0.38601900  0.19209100  1
  C  1413  1  0.14165300  0.36758600  0.20839700  1
  C  1416  1  0.14480100  0.37129500  0.23889200  1
  C  1420  1  0.12774000  0.60005600  0.69218400  1
  C  1421  1  0.10828300  0.58245400  0.70851600  1
  C  1422  1  0.10629100  0.58485400  0.73901600  1
  C  1423  1  0.12279000  0.60579400  0.75464500  1
  C  1424  1  0.14165100  0.62423500  0.73834100  1
  C  1427  1  0.14480300  0.62052600  0.70784400  1
  C  1431  1  0.90914000  0.39177800  0.69218400  1
  C  1432  1  0.92858900  0.40938400  0.70851800  1
  C  1433  1  0.93059900  0.40696700  0.73901600  1
  C  1434  1  0.91410500  0.38602400  0.75464800  1
  C  1435  1  0.89524100  0.36758800  0.73834100  1
  C  1438  1  0.89208300  0.37130300  0.70784600  1
  C  1442  1  0.90916200  0.60003600  0.25455200  1
  C  1443  1  0.92862300  0.58244000  0.23822400  1
  C  1444  1  0.93062300  0.58484600  0.20772500  1
  C  1445  1  0.91411000  0.60577000  0.19208600  1
  C  1446  1  0.89525000  0.62421300  0.20839500  1
  C  1449  1  0.89209600  0.62050200  0.23889000  1
  C  1453  1  0.29962900  0.39175500  0.86412100  1
  C  1454  1  0.28328800  0.40936600  0.88356100  1
  C  1455  1  0.25278700  0.40697000  0.88554700  1
  C  1456  1  0.23715700  0.38603800  0.86903700  1
  C  1457  1  0.25346900  0.36758900  0.85019100  1
  C  1460  1  0.28396600  0.37129400  0.84704900  1
  C  1464  1  0.73727100  0.60005100  0.86406800  1
  C  1465  1  0.75360800  0.58245100  0.88351900  1
  C  1466  1  0.78410600  0.58487000  0.88552800  1
  C  1467  1  0.79973100  0.60581200  0.86902800  1
  C  1468  1  0.78342400  0.62424000  0.85015800  1
  C  1471  1  0.75293000  0.62052100  0.84700200  1
  C  1475  1  0.73726000  0.39174700  0.08264200  1
  C  1476  1  0.75359400  0.40935400  0.06319400  1
  C  1477  1  0.78409500  0.40696200  0.06120600  1
  C  1478  1  0.79973100  0.38603100  0.07771100  1
  C  1479  1  0.78342500  0.36758800  0.09656800  1
  C  1482  1  0.75292900  0.37129400  0.09971900  1
  C  1486  1  0.29964700  0.60005200  0.08264700  1
  C  1487  1  0.28331400  0.58243700  0.06320300  1
  C  1488  1  0.25281400  0.58483600  0.06120600  1
  C  1489  1  0.23717700  0.60576600  0.07770800  1
  C  1490  1  0.25348300  0.62421400  0.09656100  1
  C  1493  1  0.28397800  0.62051300  0.09971500  1
  C  1497  1  0.12772800  0.27710000  0.57753300  1
  C  1498  1  0.10827500  0.26077000  0.55992900  1
  C  1499  1  0.10626300  0.23027300  0.56234400  1
  C  1500  1  0.12276200  0.21463800  0.58327900  1
  C  1501  1  0.14163000  0.23093900  0.60171500  1
  C  1504  1  0.14478500  0.26143700  0.59800700  1
  C  1508  1  0.12773000  0.71473300  0.36921000  1
  C  1509  1  0.10828600  0.73107100  0.38681600  1
  C  1510  1  0.10629800  0.76157300  0.38442000  1
  C  1511  1  0.12280000  0.77720100  0.36348100  1
  C  1512  1  0.14166100  0.76089300  0.34504500  1
  C  1515  1  0.14481000  0.73039800  0.34875500  1
  C  1519  1  0.90915100  0.71472000  0.57750500  1
  C  1520  1  0.92860600  0.73105500  0.55990500  1
  C  1521  1  0.93061500  0.76155300  0.56232000  1
  C  1522  1  0.91411600  0.77718400  0.58325900  1
  C  1523  1  0.89524600  0.76087800  0.60169100  1
  C  1526  1  0.89208900  0.73038200  0.59797500  1
  C  1530  1  0.90917500  0.27708400  0.36923400  1
  C  1531  1  0.92862100  0.26075100  0.38684700  1
  C  1532  1  0.93061700  0.23025200  0.38444600  1
  C  1533  1  0.91411100  0.21461200  0.36351800  1
  C  1534  1  0.89525800  0.23092100  0.34506900  1
  C  1537  1  0.89210800  0.26141600  0.34877300  1
  C  1541  1  0.41428800  0.10516400  0.69217700  1
  C  1542  1  0.43190100  0.08572300  0.70851400  1
  C  1543  1  0.42950800  0.08373700  0.73901600  1
  C  1544  1  0.40857600  0.10024600  0.75464800  1
  C  1545  1  0.39012400  0.11909000  0.73833700  1
  C  1548  1  0.39382700  0.12223600  0.70784000  1
  C  1552  1  0.62259000  0.10520500  0.25455700  1
  C  1553  1  0.60498500  0.08575400  0.23822200  1
  C  1554  1  0.60740300  0.08374300  0.20772300  1
  C  1555  1  0.62834300  0.10023900  0.19209500  1
  C  1556  1  0.64677700  0.11910900  0.20839900  1
  C  1559  1  0.64306200  0.12226600  0.23889400  1
  C  1563  1  0.41431200  0.88663800  0.25455000  1
  C  1564  1  0.43191600  0.90608800  0.23821600  1
  C  1565  1  0.42952100  0.90807500  0.20771400  1
  C  1566  1  0.40858800  0.89157200  0.19208000  1
  C  1567  1  0.39014600  0.87271500  0.20838800  1
  C  1570  1  0.39385700  0.86956200  0.23888300  1
  C  1574  1  0.62258300  0.88662700  0.69218600  1
  C  1575  1  0.60496200  0.90606200  0.70852100  1
  C  1576  1  0.60736100  0.90805700  0.73902200  1
  C  1577  1  0.62829600  0.89155900  0.75465800  1
  C  1578  1  0.64674700  0.87270900  0.73835200  1
  C  1581  1  0.64304300  0.86955800  0.70785500  1
  C  1585  1  0.66268000  0.46473500  0.84958900  1
  C  1586  1  0.65236700  0.48051500  0.87400400  1
  C  1587  1  0.65240900  0.51126300  0.87397400  1
  C  1588  1  0.66267600  0.52702200  0.84950100  1
  C  1589  1  0.67202000  0.51125600  0.82455100  1
  C  1592  1  0.67220900  0.48048500  0.82483700  1
  C  1596  1  0.37423400  0.52708700  0.84959700  1
  C  1597  1  0.38459800  0.51128900  0.87398100  1
  C  1598  1  0.38454500  0.48053600  0.87394400  1
  C  1599  1  0.37422300  0.46478500  0.84948800  1
  C  1600  1  0.36484700  0.48057000  0.82456300  1
  C  1603  1  0.36467900  0.51134000  0.82485300  1
  C  1607  1  0.66267500  0.52708600  0.09711300  1
  C  1608  1  0.65228000  0.51129400  0.07274400  1
  C  1609  1  0.65234100  0.48054500  0.07278300  1
  C  1610  1  0.66267700  0.46478900  0.09722900  1
  C  1611  1  0.67207200  0.48057200  0.12215300  1
  C  1614  1  0.67224500  0.51134500  0.12185800  1
  C  1618  1  0.37423100  0.46473100  0.09714600  1
  C  1619  1  0.38462000  0.48051400  0.07276500  1
  C  1620  1  0.38452800  0.51126400  0.07279400  1
  C  1621  1  0.37424400  0.52702900  0.09725700  1
  C  1622  1  0.36486900  0.51123900  0.12218600  1
  C  1625  1  0.36468800  0.48046900  0.12189700  1
  C  1629  1  0.48726500  0.87211200  0.61757800  1
  C  1630  1  0.50306500  0.89649600  0.60721700  1
  C  1631  1  0.53381500  0.89646200  0.60728600  1
  C  1632  1  0.54956700  0.87199400  0.61758200  1
  C  1633  1  0.53378300  0.84706500  0.62694000  1
  C  1636  1  0.50301100  0.84737100  0.62714100  1
  C  1640  1  0.54963000  0.87218100  0.32915800  1
  C  1641  1  0.53382600  0.89657200  0.33948500  1
  C  1642  1  0.50307800  0.89652400  0.33943700  1
  C  1643  1  0.48733900  0.87204500  0.32914900  1
  C  1644  1  0.50312300  0.84711200  0.31979600  1
  C  1647  1  0.53389600  0.84742100  0.31961500  1
  C  1651  1  0.54962800  0.11969400  0.61758000  1
  C  1652  1  0.53383700  0.09532200  0.60718200  1
  C  1653  1  0.50308700  0.09535500  0.60722500  1
  C  1654  1  0.48732000  0.11978600  0.61758500  1
  C  1655  1  0.50310500  0.14470300  0.62699000  1
  C  1658  1  0.53387500  0.14443200  0.62714100  1
  C  1662  1  0.48727400  0.11968400  0.32912500  1
  C  1663  1  0.50306000  0.09530300  0.33950200  1
  C  1664  1  0.53381100  0.09535500  0.33947800  1
  C  1665  1  0.54957100  0.11980500  0.32915400  1
  C  1666  1  0.53378200  0.14472800  0.31976800  1
  C  1669  1  0.50301000  0.14443600  0.31957600  1
  C  1673  1  0.89468700  0.64012000  0.44219000  1
  C  1674  1  0.91909800  0.62980800  0.45797600  1
  C  1675  1  0.91906100  0.62985300  0.48872500  1
  C  1676  1  0.89458500  0.64012700  0.50447400  1
  C  1677  1  0.86963900  0.64946800  0.48870100  1
  C  1680  1  0.86993200  0.64965200  0.45792800  1
  C  1684  1  0.89466200  0.35168900  0.50455300  1
  C  1685  1  0.91905000  0.36204700  0.48875800  1
  C  1686  1  0.91901300  0.36200200  0.45800500  1
  C  1687  1  0.89455300  0.35168900  0.44225100  1
  C  1688  1  0.86962500  0.34232000  0.45803300  1
  C  1691  1  0.86991500  0.34214900  0.48880300  1
  C  1695  1  0.14220400  0.64014700  0.50454200  1
  C  1696  1  0.11782300  0.62976500  0.48876200  1
  C  1697  1  0.11785500  0.62982700  0.45801100  1
  C  1698  1  0.14230700  0.64014000  0.44225100  1
  C  1699  1  0.16724200  0.64951500  0.45802700  1
  C  1702  1  0.16694800  0.64970800  0.48879900  1
  C  1706  1  0.14222800  0.35170000  0.44219400  1
  C  1707  1  0.11786600  0.36210500  0.45799400  1
  C  1708  1  0.11789500  0.36200600  0.48874400  1
  C  1709  1  0.14234600  0.35169200  0.50450700  1
  C  1710  1  0.16725800  0.34228900  0.48871400  1
  C  1713  1  0.16696500  0.34211700  0.45794100  1
  C  1717  1  0.48727900  0.64013600  0.09715900  1
  C  1718  1  0.50306000  0.62977900  0.07276300  1
  C  1719  1  0.53381300  0.62984400  0.07279800  1
  C  1720  1  0.54957000  0.64011500  0.09727500  1
  C  1721  1  0.53378800  0.64945300  0.12221600  1
  C  1724  1  0.50301800  0.64966300  0.12191500  1
  C  1728  1  0.54962600  0.35170400  0.09715900  1
  C  1729  1  0.53382800  0.36200000  0.07274800  1
  C  1730  1  0.50307800  0.36195500  0.07278300  1
  C  1731  1  0.48732900  0.35168900  0.09726200  1
  C  1732  1  0.50310300  0.34235500  0.12221000  1
  C  1735  1  0.53387500  0.34217300  0.12191100  1
  C  1739  1  0.54963000  0.64012700  0.84958800  1
  C  1740  1  0.53385400  0.62973100  0.87396900  1
  C  1741  1  0.50310400  0.62977500  0.87393400  1
  C  1742  1  0.48733400  0.64011500  0.84949300  1
  C  1743  1  0.50311600  0.64950200  0.82456500  1
  C  1746  1  0.53388600  0.64967400  0.82484200  1
  C  1750  1  0.48725800  0.35169000  0.84959900  1
  C  1751  1  0.50306300  0.36204200  0.87398300  1
  C  1752  1  0.53381300  0.36201800  0.87393100  1
  C  1753  1  0.54956800  0.35170300  0.84947600  1
  C  1754  1  0.53377500  0.34232400  0.82455600  1
  C  1757  1  0.50300200  0.34213400  0.82485600  1
  C  1761  1  0.89471100  0.46472100  0.32914100  1
  C  1762  1  0.91911900  0.48050500  0.33946300  1
  C  1763  1  0.91907900  0.51125600  0.33942400  1
  C  1764  1  0.89460400  0.52700800  0.32915200  1
  C  1765  1  0.86966100  0.51123300  0.31979800  1
  C  1768  1  0.86995700  0.48046000  0.31960600  1
  C  1772  1  0.89463500  0.52708600  0.61757800  1
  C  1773  1  0.91903300  0.51129700  0.60723400  1
  C  1774  1  0.91899500  0.48054700  0.60728000  1
  C  1775  1  0.89452700  0.46479000  0.61757400  1
  C  1776  1  0.86959000  0.48057300  0.62692300  1
  C  1779  1  0.86987700  0.51134300  0.62709700  1
  C  1783  1  0.14222100  0.52709100  0.32915400  1
  C  1784  1  0.11785000  0.51130000  0.33955000  1
  C  1785  1  0.11788300  0.48055000  0.33948300  1
  C  1786  1  0.14232400  0.46479400  0.32914500  1
  C  1787  1  0.16724900  0.48057200  0.31975200  1
  C  1790  1  0.16695300  0.51134400  0.31956500  1
  C  1794  1  0.14223000  0.46474100  0.61760000  1
  C  1795  1  0.11784100  0.48051700  0.60722100  1
  C  1796  1  0.11786500  0.51126800  0.60731000  1
  C  1797  1  0.14233100  0.52703600  0.61758200  1
  C  1798  1  0.16726600  0.51125400  0.62694900  1
  C  1801  1  0.16698400  0.48048100  0.62713000  1
  C  1805  1  0.66266900  0.87213000  0.50456200  1
  C  1806  1  0.65232100  0.89652300  0.48876800  1
  C  1807  1  0.65238300  0.89648500  0.45801800  1
  C  1808  1  0.66265500  0.87200600  0.44226600  1
  C  1809  1  0.67199500  0.84707000  0.45805100  1
  C  1812  1  0.67220300  0.84737600  0.48882100  1
  C  1816  1  0.37423500  0.87215700  0.44218500  1
  C  1817  1  0.38457000  0.89654600  0.45798700  1
  C  1818  1  0.38452100  0.89649800  0.48873800  1
  C  1819  1  0.37422500  0.87202300  0.50447700  1
  C  1820  1  0.36486500  0.84709200  0.48869400  1
  C  1823  1  0.36468500  0.84740100  0.45792000  1
  C  1827  1  0.66267900  0.11970500  0.44219400  1
  C  1828  1  0.65228300  0.09532200  0.45796500  1
  C  1829  1  0.65232300  0.09535400  0.48871800  1
  C  1830  1  0.66266500  0.11979100  0.50448700  1
  C  1831  1  0.67205300  0.14472200  0.48871000  1
  C  1834  1  0.67220900  0.14445600  0.45793700  1
  C  1838  1  0.37422700  0.11969600  0.50454400  1
  C  1839  1  0.38458200  0.09530900  0.48874400  1
  C  1840  1  0.38455700  0.09535800  0.45799400  1
  C  1841  1  0.37423900  0.11980900  0.44223300  1
  C  1842  1  0.36486000  0.14473300  0.45802200  1
  C  1845  1  0.36466900  0.14443700  0.48879200  1
  C  1849  1  0.16277200  0.96474600  0.34916800  1
  C  1850  1  0.15227800  0.98052500  0.37350400  1
  C  1851  1  0.15232200  0.01127700  0.37348000  1
  C  1852  1  0.16277700  0.02704500  0.34909100  1
  C  1853  1  0.17230800  0.01127400  0.32421100  1
  C  1856  1  0.17248900  0.98050500  0.32449500  1
  C  1860  1  0.87414100  0.02707800  0.34916500  1
  C  1861  1  0.88468300  0.01127300  0.37347200  1
  C  1862  1  0.88463300  0.98052000  0.37343500  1
  C  1863  1  0.87412900  0.96476300  0.34905600  1
  C  1864  1  0.86456900  0.98055400  0.32420400  1
  C  1867  1  0.86440700  0.01132200  0.32449500  1
  C  1871  1  0.16275400  0.02709300  0.59752900  1
  C  1872  1  0.15219100  0.01129900  0.57323200  1
  C  1873  1  0.15225700  0.98054900  0.57326200  1
  C  1874  1  0.16276700  0.96478600  0.59763200  1
  C  1875  1  0.17233700  0.98057000  0.62248800  1
  C  1878  1  0.17250100  0.01134100  0.62220000  1
  C  1882  1  0.87413500  0.96472900  0.59756200  1
  C  1883  1  0.88469900  0.98051600  0.57325800  1
  C  1884  1  0.88460600  0.01126800  0.57328800  1
  C  1885  1  0.87414600  0.02703700  0.59767600  1
  C  1886  1  0.86458900  0.01124100  0.62253200  1
  C  1889  1  0.86441600  0.98047100  0.62224200  1
  C  1893  1  0.98727000  0.37170100  0.11767000  1
  C  1894  1  0.00307400  0.39600800  0.10713600  1
  C  1895  1  0.03382700  0.39597500  0.10720600  1
  C  1896  1  0.04958500  0.37158300  0.11767700  1
  C  1897  1  0.03379400  0.34672500  0.12721400  1
  C  1900  1  0.00302400  0.34703100  0.12741000  1
  C  1904  1  0.04961800  0.37174700  0.82906700  1
  C  1905  1  0.03381200  0.39606200  0.83957000  1
  C  1906  1  0.00306100  0.39601700  0.83952100  1
  C  1907  1  0.98731500  0.37161800  0.82905400  1
  C  1908  1  0.00310500  0.34675400  0.81951900  1
  C  1911  1  0.03387500  0.34706100  0.81934500  1
  C  1915  1  0.04964000  0.62013300  0.11767000  1
  C  1916  1  0.03384400  0.59583800  0.10709700  1
  C  1917  1  0.00309100  0.59586500  0.10714500  1
  C  1918  1  0.98731800  0.62021800  0.11768300  1
  C  1919  1  0.00310500  0.64506600  0.12726800  1
  C  1922  1  0.03387500  0.64478900  0.12742700  1
  C  1926  1  0.98727400  0.62010200  0.82903800  1
  C  1927  1  0.00306400  0.59579500  0.83958400  1
  C  1928  1  0.03381600  0.59584000  0.83955600  1
  C  1929  1  0.04958500  0.62021200  0.82905500  1
  C  1930  1  0.03379200  0.64506600  0.81949300  1
  C  1933  1  0.00302200  0.64477900  0.81930800  1
  C  1937  1  0.39427400  0.14021400  0.94218900  1
  C  1938  1  0.41860800  0.12972100  0.95797600  1
  C  1939  1  0.41857700  0.12976800  0.98872900  1
  C  1940  1  0.39418300  0.14022400  0.00448800  1
  C  1941  1  0.36930700  0.14975400  0.98870900  1
  C  1944  1  0.36959700  0.14993200  0.95793800  1
  C  1948  1  0.39424200  0.85159900  0.00454300  1
  C  1949  1  0.41856100  0.86212800  0.98875100  1
  C  1950  1  0.41852600  0.86208400  0.95799800  1
  C  1951  1  0.39413800  0.85160500  0.94223600  1
  C  1952  1  0.36927400  0.84206500  0.95802000  1
  C  1955  1  0.36956000  0.84189400  0.98879000  1
  C  1959  1  0.64262200  0.14023000  0.00454700  1
  C  1960  1  0.61831100  0.12967600  0.98876400  1
  C  1961  1  0.61833700  0.12973800  0.95801200  1
  C  1962  1  0.64271000  0.14022600  0.94224200  1
  C  1963  1  0.66757800  0.14978000  0.95802000  1
  C  1966  1  0.66729000  0.14996700  0.98879100  1
  C  1970  1  0.64264500  0.85160500  0.94219900  1
  C  1971  1  0.61835600  0.86218200  0.95800100  1
  C  1972  1  0.61838100  0.86208200  0.98875400  1
  C  1973  1  0.64275500  0.85158900  0.00452300  1
  C  1974  1  0.66759800  0.84200600  0.98872500  1
  C  1977  1  0.66730500  0.84184300  0.95795500  1
  C  1981  1  0.98726500  0.14023300  0.59758000  1
  C  1982  1  0.00305300  0.12969600  0.57326400  1
  C  1983  1  0.03380700  0.12976100  0.57329900  1
  C  1984  1  0.04956600  0.14021800  0.59769500  1
  C  1985  1  0.03378000  0.14974300  0.62256200  1
  C  1988  1  0.00301000  0.14994700  0.62226100  1
  C  1992  1  0.04962500  0.85161800  0.59757300  1
  C  1993  1  0.03382300  0.86209500  0.57324000  1
  C  1994  1  0.00307000  0.86204400  0.57327100  1
  C  1995  1  0.98731600  0.85159500  0.59767100  1
  C  1996  1  0.00309800  0.84207600  0.62254700  1
  C  1999  1  0.03386800  0.84190400  0.62225000  1
  C  2003  1  0.04962300  0.14021500  0.34917400  1
  C  2004  1  0.03384600  0.12964400  0.37348000  1
  C  2005  1  0.00309400  0.12968600  0.37344800  1
  C  2006  1  0.98731700  0.14020400  0.34908700  1
  C  2007  1  0.00310100  0.14977300  0.32422800  1
  C  2010  1  0.03387100  0.14994100  0.32450300  1
  C  2014  1  0.98726700  0.85159600  0.34916100  1
  C  2015  1  0.00307000  0.86212600  0.37347200  1
  C  2016  1  0.03382400  0.86210100  0.37342800  1
  C  2017  1  0.04959100  0.85160600  0.34905600  1
  C  2018  1  0.03379700  0.84204300  0.32420400  1
  C  2021  1  0.00302700  0.84185800  0.32449700  1
  C  2025  1  0.39428000  0.96472800  0.82904300  1
  C  2026  1  0.41860800  0.98051400  0.83955000  1
  C  2027  1  0.41857300  0.01126500  0.83951100  1
  C  2028  1  0.39418100  0.02702600  0.82905000  1
  C  2029  1  0.36931000  0.01124800  0.81950700  1
  C  2032  1  0.36960200  0.98047900  0.81932200  1
  C  2036  1  0.39423800  0.02708000  0.11766200  1
  C  2037  1  0.41856200  0.01129100  0.10714100  1
  C  2038  1  0.41852900  0.98053800  0.10718900  1
  C  2039  1  0.39414200  0.96477600  0.11766600  1
  C  2040  1  0.36927500  0.98055900  0.12720000  1
  C  2043  1  0.36955900  0.01132900  0.12736600  1
  C  2047  1  0.64261100  0.02708600  0.82906800  1
  C  2048  1  0.61831200  0.01129300  0.83963200  1
  C  2049  1  0.61834300  0.98054200  0.83956800  1
  C  2050  1  0.64271000  0.96477800  0.82905600  1
  C  2051  1  0.66756500  0.98056100  0.81948400  1
  C  2054  1  0.66728000  0.01133200  0.81932100  1
  C  2058  1  0.64265700  0.96473300  0.11769700  1
  C  2059  1  0.61834900  0.98051300  0.10713600  1
  C  2060  1  0.61837000  0.01126500  0.10722800  1
  C  2061  1  0.64275500  0.02704000  0.11768300  1
  C  2062  1  0.66761800  0.01125100  0.12723500  1
  C  2065  1  0.66733700  0.98048200  0.12741000  1
  C  2069  1  0.16276200  0.37170700  0.00455100  1
  C  2070  1  0.15223000  0.39602400  0.98875900  1
  C  2071  1  0.15229500  0.39599200  0.95800500  1
  C  2072  1  0.16275000  0.37159700  0.94224400  1
  C  2073  1  0.17227800  0.34672900  0.95803100  1
  C  2076  1  0.17247900  0.34703200  0.98880000  1
  C  2080  1  0.87414200  0.37173600  0.94219400  1
  C  2081  1  0.88464900  0.39605100  0.95799700  1
  C  2082  1  0.88460100  0.39600700  0.98874900  1
  C  2083  1  0.87413100  0.37161100  0.00449700  1
  C  2084  1  0.86459200  0.34674800  0.98871000  1
  C  2087  1  0.86441700  0.34705400  0.95793800  1
  C  2091  1  0.16277400  0.62012000  0.94218900  1
  C  2092  1  0.15220300  0.59581400  0.95796500  1
  C  2093  1  0.15224700  0.59584100  0.98871900  1
  C  2094  1  0.16276800  0.62020000  0.00449700  1
  C  2095  1  0.17233700  0.64505800  0.98871300  1
  C  2098  1  0.17248700  0.64479700  0.95794200  1
  C  2102  1  0.87414400  0.62012400  0.00454900  1
  C  2103  1  0.88467300  0.59581300  0.98874400  1
  C  2104  1  0.88464300  0.59585900  0.95799100  1
  C  2105  1  0.87414600  0.62023200  0.94222500  1
  C  2106  1  0.86458500  0.64508300  0.95802000  1
  C  2109  1  0.86440400  0.64478800  0.98879000  1
  O  1066  1  0.66847100  0.77396400  0.83427100  1
  O  1077  1  0.36843100  0.21785900  0.83427300  1
  O  1088  1  0.66847800  0.21786400  0.11248100  1
  O  1099  1  0.36843700  0.77395900  0.11246300  1
  O  1110  1  0.79649600  0.85680900  0.62339200  1
  O  1121  1  0.24040600  0.85680700  0.32334200  1
  O  1132  1  0.24039800  0.13500800  0.62339200  1
  O  1143  1  0.79650800  0.13500900  0.32335800  1
  O  1154  1  0.87933900  0.64593700  0.75140700  1
  O  1165  1  0.87935800  0.34588800  0.19532300  1
  O  1176  1  0.15757200  0.64593600  0.19531400  1
  O  1187  1  0.15753400  0.34589400  0.75143100  1
  O  1198  1  0.79650400  0.64591900  0.11247900  1
  O  1209  1  0.24040100  0.34589800  0.11248500  1
  O  1220  1  0.24041400  0.64594100  0.83426700  1
  O  1231  1  0.79649700  0.34588200  0.83426900  1
  O  1242  1  0.87935000  0.77395000  0.32334900  1
  O  1253  1  0.87933500  0.21786400  0.62338700  1
  O  1264  1  0.15754500  0.21786700  0.32334400  1
  O  1275  1  0.15754800  0.77396900  0.62339800  1
  O  1286  1  0.66846200  0.85680400  0.19534000  1
  O  1297  1  0.36844800  0.85679900  0.75141600  1
  O  1308  1  0.66847600  0.13500400  0.75141800  1
  O  1319  1  0.36842200  0.13500800  0.19530500  1
  O  1330  1  0.36861400  0.21784600  0.11231900  1
  O  1341  1  0.66827700  0.77396000  0.11234600  1
  O  1352  1  0.36862500  0.77395700  0.83442200  1
  O  1363  1  0.66827900  0.21785700  0.83442500  1
  O  1374  1  0.24039500  0.13486900  0.32352300  1
  O  1385  1  0.79649900  0.13485300  0.62321100  1
  O  1396  1  0.79649500  0.85695200  0.32354500  1
  O  1407  1  0.24039100  0.85696100  0.62319100  1
  O  1418  1  0.15741100  0.34607300  0.19531800  1
  O  1429  1  0.15739800  0.64575600  0.75142000  1
  O  1440  1  0.87949200  0.34606600  0.75142000  1
  O  1451  1  0.87949700  0.64572800  0.19531200  1
  O  1462  1  0.24039000  0.34607400  0.83443400  1
  O  1473  1  0.79650000  0.64575700  0.83440200  1
  O  1484  1  0.79650600  0.34607200  0.11232400  1
  O  1495  1  0.24040100  0.64573200  0.11231300  1
  O  1506  1  0.15738200  0.21785800  0.62323200  1
  O  1517  1  0.15741800  0.77397200  0.32353000  1
  O  1528  1  0.87949200  0.77395600  0.62320600  1
  O  1539  1  0.87950700  0.21783900  0.32355200  1
  O  1550  1  0.36861000  0.13484600  0.75141800  1
  O  1561  1  0.66829700  0.13486100  0.19532100  1
  O  1572  1  0.36862900  0.85696300  0.19531000  1
  O  1583  1  0.66826600  0.85695900  0.75143500  1
  O  1594  1  0.68352800  0.52504600  0.80088700  1
  O  1605  1  0.35327800  0.46679200  0.80092200  1
  O  1616  1  0.68369300  0.46681000  0.14577800  1
  O  1627  1  0.35332100  0.52502000  0.14583500  1
  O  1638  1  0.54754700  0.82341900  0.63851700  1
  O  1649  1  0.48936600  0.82346500  0.30821700  1
  O  1660  1  0.48932400  0.16832800  0.63858900  1
  O  1671  1  0.54754500  0.16836800  0.30817800  1
  O  1682  1  0.84597300  0.66098200  0.50248200  1
  O  1693  1  0.84598000  0.33076300  0.44425200  1
  O  1704  1  0.19087600  0.66110900  0.44425900  1
  O  1715  1  0.19089900  0.33070900  0.50248600  1
  O  1726  1  0.54755900  0.66100300  0.14587000  1
  O  1737  1  0.48933600  0.33079000  0.14585900  1
  O  1748  1  0.48933000  0.66107300  0.80092900  1
  O  1759  1  0.54753300  0.33073400  0.80091300  1
  O  1770  1  0.84599700  0.52501700  0.30828500  1
  O  1781  1  0.84593700  0.46679000  0.63846300  1
  O  1792  1  0.19087500  0.46681000  0.30813400  1
  O  1803  1  0.19092000  0.52503600  0.63848400  1
  O  1814  1  0.68354800  0.82341400  0.44428700  1
  O  1825  1  0.35328000  0.82344900  0.50245100  1
  O  1836  1  0.68363200  0.16835300  0.50249700  1
  O  1847  1  0.35326700  0.16837200  0.44425900  1
  O  1858  1  0.18399400  0.02505800  0.30062900  1
  O  1869  1  0.85283000  0.96678600  0.30064000  1
  O  1880  1  0.18412600  0.96681600  0.64603700  1
  O  1891  1  0.85287300  0.02500800  0.64610900  1
  O  1902  1  0.04755000  0.32315300  0.13895900  1
  O  1913  1  0.98935400  0.32318400  0.80777000  1
  O  1924  1  0.98933300  0.66861600  0.13903300  1
  O  1935  1  0.04754800  0.66863100  0.80773600  1
  O  1946  1  0.34572100  0.16144300  0.00248500  1
  O  1957  1  0.34570300  0.83034900  0.94424600  1
  O  1968  1  0.69113500  0.16154000  0.94425900  1
  O  1979  1  0.69116000  0.83025700  0.00248900  1
  O  1990  1  0.04754000  0.16146800  0.64614000  1
  O  2001  1  0.98933900  0.83033800  0.64611800  1
  O  2012  1  0.98932200  0.16151300  0.30067100  1
  O  2023  1  0.04755100  0.83028300  0.30064000  1
  O  2034  1  0.34572800  0.02502600  0.80781300  1
  O  2045  1  0.34570300  0.96678400  0.13891300  1
  O  2056  1  0.69111200  0.96680600  0.80769500  1
  O  2067  1  0.69119400  0.02502500  0.13894800  1
  O  2078  1  0.18400500  0.32315600  0.94427100  1
  O  2089  1  0.85283900  0.32318000  0.00246100  1
  O  2100  1  0.18408700  0.66861400  0.00249100  1
  O  2111  1  0.85282300  0.66864800  0.94426700  1
