# generated using pymatgen
data_H8C18N3O2
_symmetry_space_group_name_H-M   'P 1'
_cell_length_a   41.66500000
_cell_length_b   52.51079366
_cell_length_c   52.51079366
_cell_angle_alpha   80.94438686
_cell_angle_beta   66.62621390
_cell_angle_gamma   66.62621390
_symmetry_Int_Tables_number   1
_chemical_formula_structural   H8C18N3O2
_chemical_formula_sum   'H256 C576 N96 O64'
_cell_volume   96804.06079288
_cell_formula_units_Z   32
loop_
 _symmetry_equiv_pos_site_id
 _symmetry_equiv_pos_as_xyz
  1  'x, y, z'
loop_
 _atom_site_type_symbol
 _atom_site_label
 _atom_site_symmetry_multiplicity
 _atom_site_fract_x
 _atom_site_fract_y
 _atom_site_fract_z
 _atom_site_occupancy
  C  1  1  0.97180250  0.57226300  0.20076200  1
  C  2  1  0.00670700  0.56692850  0.20272750  1
  C  3  1  0.02961800  0.54003000  0.20774900  1
  C  4  1  0.01649350  0.51823150  0.21133850  1
  C  5  1  0.98181550  0.52289650  0.20910550  1
  C  6  1  0.95887900  0.55016200  0.20376500  1
  C  9  1  0.95280400  0.59981050  0.19333050  1
  C  10  1  0.92817650  0.62159200  0.21305900  1
  C  11  1  0.91392550  0.64917100  0.20313600  1
  C  12  1  0.92351450  0.65420400  0.17424100  1
  C  13  1  0.94807950  0.63264050  0.15475550  1
  C  14  1  0.96242200  0.60559700  0.16469200  1
  C  23  1  0.74777250  0.31641000  0.90473900  1
  C  24  1  0.77929700  0.32175300  0.90278300  1
  C  25  1  0.78030350  0.34865900  0.89778500  1
  C  26  1  0.74895000  0.37045400  0.89422000  1
  C  27  1  0.71673850  0.36577000  0.89640200  1
  C  28  1  0.71574500  0.33849950  0.90173350  1
  C  31  1  0.74890400  0.28885550  0.91216250  1
  C  32  1  0.76578350  0.26708850  0.89242050  1
  C  33  1  0.76919000  0.23950450  0.90233150  1
  C  34  1  0.75492850  0.23445800  0.93122400  1
  C  35  1  0.73846300  0.25600900  0.95072000  1
  C  36  1  0.73568800  0.28305850  0.94079950  1
  C  45  1  0.59974550  0.09238150  0.42480850  1
  C  46  1  0.62931700  0.09433600  0.43015100  1
  C  47  1  0.62533250  0.09933150  0.45705550  1
  C  48  1  0.59041900  0.10288900  0.47885600  1
  C  49  1  0.56040600  0.10066900  0.47418100  1
  C  50  1  0.56473750  0.09534250  0.44691050  1
  C  53  1  0.60832800  0.08492800  0.39726000  1
  C  54  1  0.60542950  0.10466100  0.37548600  1
  C  55  1  0.61876900  0.09473200  0.34790500  1
  C  56  1  0.63335050  0.06583750  0.34288150  1
  C  57  1  0.63637750  0.04635450  0.36444150  1
  C  58  1  0.62370450  0.05629100  0.39148200  1
  C  67  1  0.11987100  0.79627800  0.68066600  1
  C  68  1  0.15673650  0.79434200  0.67530600  1
  C  69  1  0.18463750  0.78934800  0.64839500  1
  C  70  1  0.17508350  0.78574250  0.62661450  1
  C  71  1  0.13817500  0.78794950  0.63130550  1
  C  72  1  0.10991650  0.79329800  0.65857700  1
  C  75  1  0.09346450  0.80373000  0.70821700  1
  C  76  1  0.08851250  0.78399750  0.72998750  1
  C  77  1  0.06431150  0.79392100  0.75756400  1
  C  78  1  0.04497600  0.82281600  0.76259300  1
  C  79  1  0.05013550  0.84230150  0.74104050  1
  C  80  1  0.07443200  0.83236800  0.71400100  1
  C  89  1  0.07459850  0.79630100  0.42479900  1
  C  90  1  0.03969400  0.79433550  0.43013450  1
  C  91  1  0.01678200  0.78931450  0.45703150  1
  C  92  1  0.02990650  0.78572600  0.47883000  1
  C  93  1  0.06458550  0.78795850  0.47416550  1
  C  94  1  0.08752000  0.79329850  0.44689950  1
  C  97  1  0.09359600  0.80373350  0.39725250  1
  C  98  1  0.11822300  0.78400350  0.37547250  1
  C  99  1  0.13247400  0.79392750  0.34789050  1
  C  100  1  0.12288600  0.82282200  0.34285800  1
  C  101  1  0.09832100  0.84230900  0.36442000  1
  C  102  1  0.08397750  0.83237200  0.39146500  1
  C  111  1  0.29862800  0.09232250  0.68065350  1
  C  112  1  0.26710200  0.09428050  0.67531050  1
  C  113  1  0.26609650  0.09927850  0.64840450  1
  C  114  1  0.29744850  0.10284350  0.62660950  1
  C  115  1  0.32966100  0.10066050  0.63129350  1
  C  116  1  0.33065500  0.09532950  0.65856350  1
  C  119  1  0.29749700  0.08490000  0.70820700  1
  C  120  1  0.28061650  0.10464300  0.72997500  1
  C  121  1  0.27721050  0.09473150  0.75755850  1
  C  122  1  0.29147250  0.06583800  0.76260600  1
  C  123  1  0.30793750  0.04634250  0.74105450  1
  C  124  1  0.31071100  0.05626450  0.71400550  1
  C  133  1  0.44665550  0.57225550  0.90467950  1
  C  134  1  0.41708250  0.56691300  0.90272700  1
  C  135  1  0.42106600  0.54001050  0.89773050  1
  C  136  1  0.45598150  0.51820800  0.89417200  1
  C  137  1  0.48599400  0.52288200  0.89639200  1
  C  138  1  0.48166250  0.55015400  0.90171900  1
  C  141  1  0.43807150  0.59980400  0.91213300  1
  C  142  1  0.44096750  0.62157900  0.89240200  1
  C  143  1  0.42763050  0.64915850  0.90233050  1
  C  144  1  0.41304950  0.65418200  0.93122500  1
  C  145  1  0.41002150  0.63262000  0.95070900  1
  C  146  1  0.42269550  0.60558100  0.94077200  1
  C  155  1  0.92652900  0.31639600  0.20078600  1
  C  156  1  0.88966200  0.32175700  0.20272100  1
  C  157  1  0.86176200  0.34866700  0.20771600  1
  C  158  1  0.87131500  0.37044900  0.21132100  1
  C  159  1  0.90822500  0.36575600  0.20911400  1
  C  160  1  0.93648350  0.33848550  0.20376450  1
  C  163  1  0.95293500  0.28884450  0.19333350  1
  C  164  1  0.95788600  0.26707600  0.21306500  1
  C  165  1  0.98208800  0.23949900  0.20314200  1
  C  166  1  0.00142400  0.23446950  0.17424750  1
  C  167  1  0.99626500  0.25602250  0.15476050  1
  C  168  1  0.97196800  0.28306150  0.16469450  1
  C  177  1  0.07457600  0.31640050  0.90471750  1
  C  178  1  0.03966100  0.32174650  0.90276550  1
  C  179  1  0.01675050  0.34864850  0.89775750  1
  C  180  1  0.02989150  0.37043900  0.89415400  1
  C  181  1  0.06458100  0.36576400  0.89637400  1
  C  182  1  0.08751300  0.33849500  0.90170800  1
  C  185  1  0.09357400  0.28884900  0.91214200  1
  C  186  1  0.11820500  0.26707450  0.89240250  1
  C  187  1  0.13246350  0.23949150  0.90231950  1
  C  188  1  0.12287900  0.23444850  0.93121150  1
  C  189  1  0.09830950  0.25600400  0.95070400  1
  C  190  1  0.08396100  0.28305100  0.94077800  1
  C  199  1  0.29861750  0.57224400  0.20075500  1
  C  200  1  0.26709000  0.56690250  0.20271250  1
  C  201  1  0.26608450  0.53999650  0.20770850  1
  C  202  1  0.29743550  0.51820100  0.21127300  1
  C  203  1  0.32964900  0.52288250  0.20909150  1
  C  204  1  0.33064250  0.55015350  0.20376150  1
  C  207  1  0.29749100  0.59979650  0.19332950  1
  C  208  1  0.28061600  0.62156600  0.21306900  1
  C  209  1  0.27721950  0.64914750  0.20315550  1
  C  210  1  0.29147500  0.65419200  0.17426100  1
  C  211  1  0.30793600  0.63263850  0.15476850  1
  C  212  1  0.31070450  0.60559250  0.16469250  1
  C  221  1  0.44664500  0.79626950  0.68065650  1
  C  222  1  0.41707400  0.79432050  0.67530750  1
  C  223  1  0.42106600  0.78932500  0.64840200  1
  C  224  1  0.45598300  0.78576350  0.62660550  1
  C  225  1  0.48599550  0.78797750  0.63128650  1
  C  226  1  0.48165600  0.79330550  0.65855950  1
  C  229  1  0.43805750  0.80371800  0.70820800  1
  C  230  1  0.44096750  0.78398150  0.72997550  1
  C  231  1  0.42763150  0.79390400  0.75755900  1
  C  232  1  0.41304050  0.82279700  0.76259000  1
  C  233  1  0.40999400  0.84228550  0.74103450  1
  C  234  1  0.42266900  0.83235500  0.71399300  1
  C  243  1  0.92652150  0.09240650  0.42479950  1
  C  244  1  0.88965650  0.09434850  0.43015050  1
  C  245  1  0.86174550  0.09934550  0.45705850  1
  C  246  1  0.87129700  0.10294050  0.47884650  1
  C  247  1  0.90820500  0.10072950  0.47416350  1
  C  248  1  0.93646950  0.09538050  0.44689450  1
  C  251  1  0.95293750  0.08494850  0.39725150  1
  C  252  1  0.95789000  0.10467700  0.37547600  1
  C  253  1  0.98209400  0.09474650  0.34790250  1
  C  254  1  0.00142700  0.06585000  0.34287900  1
  C  255  1  0.99626600  0.04636900  0.36443600  1
  C  256  1  0.97196850  0.05630950  0.39147350  1
  C  265  1  0.97182200  0.09234550  0.68066350  1
  C  266  1  0.00673850  0.09429700  0.67531800  1
  C  267  1  0.02964750  0.09930700  0.64841500  1
  C  268  1  0.01650750  0.10290950  0.62662450  1
  C  269  1  0.98181800  0.10068900  0.63130000  1
  C  270  1  0.95888600  0.09535450  0.65856950  1
  C  273  1  0.95282450  0.08492150  0.70821450  1
  C  274  1  0.92819600  0.10465850  0.72998850  1
  C  275  1  0.91393550  0.09474350  0.75757150  1
  C  276  1  0.92351950  0.06585150  0.76261450  1
  C  277  1  0.94808950  0.04635850  0.74105850  1
  C  278  1  0.96243850  0.05628550  0.71401250  1
  C  287  1  0.74778300  0.79630700  0.42481900  1
  C  288  1  0.77931100  0.79435000  0.43016000  1
  C  289  1  0.78031600  0.78935450  0.45706750  1
  C  290  1  0.74896300  0.78579100  0.47886300  1
  C  291  1  0.71675150  0.78797200  0.47418000  1
  C  292  1  0.71575650  0.79330150  0.44690950  1
  C  295  1  0.74890950  0.80373350  0.39726650  1
  C  296  1  0.76578550  0.78399500  0.37549600  1
  C  297  1  0.76918150  0.79390750  0.34791450  1
  C  298  1  0.75492350  0.82280250  0.34287150  1
  C  299  1  0.73846250  0.84229600  0.36442500  1
  C  300  1  0.73569300  0.83237050  0.39147250  1
  C  309  1  0.59975550  0.31640550  0.20079350  1
  C  310  1  0.62932650  0.32175350  0.20274250  1
  C  311  1  0.62533350  0.34866100  0.20773800  1
  C  312  1  0.59041650  0.37045600  0.21130100  1
  C  313  1  0.56040300  0.36577550  0.20908650  1
  C  314  1  0.56474300  0.33850350  0.20375950  1
  C  317  1  0.60834300  0.28885450  0.19334550  1
  C  318  1  0.60543300  0.26708600  0.21308100  1
  C  319  1  0.61876800  0.23950350  0.20315950  1
  C  320  1  0.63335900  0.23447250  0.17426450  1
  C  321  1  0.63640600  0.25602800  0.15477800  1
  C  322  1  0.62373000  0.28307100  0.16470800  1
  C  331  1  0.11987600  0.57226400  0.90466000  1
  C  332  1  0.15674200  0.56691200  0.90271900  1
  C  333  1  0.18465250  0.54000450  0.89772050  1
  C  334  1  0.17510150  0.51821650  0.89412650  1
  C  335  1  0.13819300  0.52290000  0.89633700  1
  C  336  1  0.10992800  0.55016950  0.90168650  1
  C  339  1  0.09346100  0.59981300  0.91211800  1
  C  340  1  0.08850900  0.62158700  0.89238900  1
  C  341  1  0.06430650  0.64916150  0.90231650  1
  C  342  1  0.04497200  0.65418600  0.93121300  1
  C  343  1  0.05013250  0.63263050  0.95069550  1
  C  344  1  0.07443000  0.60559200  0.94075600  1
  C  705  1  0.78939250  0.77577800  0.32455100  1
  C  706  1  0.82830600  0.76035650  0.31724650  1
  C  708  1  0.83011700  0.73674400  0.28104100  1
  C  709  1  0.79121800  0.75213650  0.28673650  1
  C  710  1  0.77128100  0.77178050  0.30859750  1
  C  712  1  0.85084000  0.71603200  0.26030900  1
  C  713  1  0.90885400  0.67984650  0.23666750  1
  C  714  1  0.89265100  0.67253750  0.22126150  1
  C  715  1  0.85459750  0.68851100  0.22524100  1
  C  718  1  0.83302450  0.71034700  0.24491300  1
  C  719  1  0.79451600  0.72615500  0.25021900  1
  C  720  1  0.77381900  0.74684400  0.27092300  1
  C  725  1  0.89265600  0.11287650  0.78093350  1
  C  726  1  0.90885550  0.12828400  0.78824300  1
  C  728  1  0.85084100  0.15192550  0.82442750  1
  C  729  1  0.83302800  0.13652800  0.81874300  1
  C  730  1  0.85459850  0.11686500  0.79689800  1
  C  732  1  0.83012100  0.17264850  0.84514850  1
  C  733  1  0.82831400  0.20884200  0.86877600  1
  C  734  1  0.78940000  0.21614550  0.88419650  1
  C  735  1  0.77129200  0.20018250  0.88020950  1
  C  738  1  0.79122550  0.17833600  0.86054800  1
  C  739  1  0.77382650  0.16252550  0.85525250  1
  C  740  1  0.79452150  0.14182650  0.83455650  1
  C  745  1  0.62083850  0.21614500  0.22129500  1
  C  746  1  0.64428600  0.20887150  0.23674850  1
  C  748  1  0.62253550  0.17263400  0.26032700  1
  C  749  1  0.59908600  0.17829000  0.24489600  1
  C  750  1  0.59879250  0.20015050  0.22524950  1
  C  752  1  0.62254300  0.15190550  0.28104250  1
  C  753  1  0.64430700  0.12831050  0.31726950  1
  C  754  1  0.62085300  0.11286250  0.32454150  1
  C  755  1  0.59883250  0.11680150  0.30853050  1
  C  758  1  0.59910000  0.13647150  0.28669150  1
  C  759  1  0.57645450  0.14173850  0.27084650  1
  C  760  1  0.57645000  0.16244100  0.25015300  1
  C  765  1  0.06115250  0.67253400  0.88420000  1
  C  766  1  0.09276750  0.67983200  0.86877700  1
  C  768  1  0.05838100  0.71603750  0.84515950  1
  C  769  1  0.02516350  0.71036750  0.86057350  1
  C  770  1  0.02707350  0.68851900  0.88023100  1
  C  772  1  0.05838300  0.73676000  0.82443700  1
  C  773  1  0.09277750  0.76036450  0.78822350  1
  C  774  1  0.06115800  0.77579850  0.78093350  1
  C  775  1  0.02707900  0.77183100  0.79691700  1
  C  778  1  0.02516600  0.75217450  0.81876750  1
  C  779  1  0.99194900  0.74689400  0.83459400  1
  C  780  1  0.99194700  0.72619750  0.85529350  1
  C  785  1  0.25700850  0.67251100  0.22128500  1
  C  786  1  0.21809500  0.67981550  0.23670650  1
  C  788  1  0.21628450  0.71602150  0.26031850  1
  C  789  1  0.25518300  0.71032550  0.24492750  1
  C  790  1  0.27512000  0.68846550  0.22528150  1
  C  792  1  0.19556150  0.73675300  0.28103100  1
  C  793  1  0.13754850  0.76039600  0.31721400  1
  C  794  1  0.15374850  0.77580250  0.32452550  1
  C  795  1  0.19180200  0.77182200  0.30855400  1
  C  798  1  0.21337550  0.75215000  0.28671600  1
  C  799  1  0.25188400  0.74684400  0.27090800  1
  C  800  1  0.27258250  0.72613950  0.25021850  1
  C  805  1  0.15374400  0.21613050  0.88418750  1
  C  806  1  0.13754250  0.20882050  0.86877950  1
  C  808  1  0.19555950  0.17263600  0.84513800  1
  C  809  1  0.21337250  0.17832050  0.86053450  1
  C  810  1  0.19180300  0.20016500  0.88019700  1
  C  812  1  0.21627950  0.15191350  0.82441550  1
  C  813  1  0.21808600  0.12828700  0.78822200  1
  C  814  1  0.25700000  0.11286600  0.78091800  1
  C  815  1  0.27510750  0.11685350  0.79688250  1
  C  818  1  0.25517500  0.13651450  0.81872850  1
  C  819  1  0.27257350  0.14181050  0.83453850  1
  C  820  1  0.25187750  0.16250650  0.85523650  1
  C  825  1  0.42556200  0.77576750  0.78091650  1
  C  826  1  0.40211550  0.76031200  0.78819000  1
  C  828  1  0.42386350  0.73673700  0.82442900  1
  C  829  1  0.44731350  0.75216700  0.81877200  1
  C  830  1  0.44760650  0.77181300  0.79691300  1
  C  832  1  0.42385300  0.71602350  0.84515850  1
  C  833  1  0.40208500  0.67979900  0.86875700  1
  C  834  1  0.42554400  0.67252300  0.88420200  1
  C  835  1  0.44756400  0.68853550  0.88026350  1
  C  838  1  0.44729600  0.71037400  0.86059300  1
  C  839  1  0.46994100  0.72622000  0.85532700  1
  C  840  1  0.46994800  0.74691150  0.83462250  1
  C  845  1  0.98524750  0.11286400  0.32452800  1
  C  846  1  0.95363300  0.12828450  0.31723050  1
  C  848  1  0.98801900  0.15190200  0.28102500  1
  C  849  1  0.02123550  0.13649000  0.28669600  1
  C  850  1  0.01932550  0.11683200  0.30854500  1
  C  852  1  0.98801850  0.17262400  0.26030200  1
  C  853  1  0.95362250  0.20883900  0.23669700  1
  C  854  1  0.98524250  0.21612900  0.22126300  1
  C  855  1  0.01932050  0.20014650  0.22523150  1
  C  858  1  0.02123500  0.17829450  0.24488850  1
  C  859  1  0.05445100  0.16246800  0.25016900  1
  C  860  1  0.05445250  0.14177050  0.27086650  1
  C  1025  1  0.97226950  0.49944250  0.21042450  1
  C  1026  1  0.97839950  0.48740050  0.18590350  1
  C  1028  1  0.94947900  0.45531200  0.21166700  1
  C  1029  1  0.94257050  0.46646650  0.23714350  1
  C  1030  1  0.95429650  0.48864000  0.23608700  1
  C  1032  1  0.93801700  0.43333450  0.21166750  1
  C  1033  1  0.93483100  0.40125850  0.18590650  1
  C  1034  1  0.91647300  0.38920300  0.21042800  1
  C  1035  1  0.90878950  0.40000200  0.23609000  1
  C  1038  1  0.91946650  0.42217100  0.23714500  1
  C  1039  1  0.91267700  0.43334300  0.26242400  1
  C  1040  1  0.92409800  0.45528650  0.26242350  1
  C  1045  1  0.68505150  0.38921800  0.89508200  1
  C  1046  1  0.65461350  0.40125450  0.91960250  1
  C  1048  1  0.61936800  0.43334000  0.89383600  1
  C  1049  1  0.64909750  0.42219400  0.86836100  1
  C  1050  1  0.68194600  0.40002850  0.86941850  1
  C  1052  1  0.58592650  0.45531300  0.89383600  1
  C  1053  1  0.52489600  0.48738100  0.91959700  1
  C  1054  1  0.51899500  0.49943200  0.89507500  1
  C  1055  1  0.54779150  0.48864900  0.86941500  1
  C  1058  1  0.58169300  0.46648150  0.86835950  1
  C  1059  1  0.61136300  0.45531750  0.84308050  1
  C  1060  1  0.64472850  0.43337900  0.84308200  1
  C  1065  1  0.52740450  0.10198550  0.49763250  1
  C  1066  1  0.52150400  0.07746450  0.50968350  1
  C  1068  1  0.46047350  0.10322600  0.54175100  1
  C  1069  1  0.46470650  0.12870250  0.53058250  1
  C  1070  1  0.49860850  0.12764650  0.50841350  1
  C  1072  1  0.42703150  0.10322550  0.56372250  1
  C  1073  1  0.39178450  0.07746050  0.59580750  1
  C  1074  1  0.36134800  0.10198100  0.60784500  1
  C  1075  1  0.36445150  0.12764400  0.59703500  1
  C  1078  1  0.39730200  0.12870100  0.57486900  1
  C  1079  1  0.40167150  0.15398100  0.56368400  1
  C  1080  1  0.43503700  0.15398200  0.54174500  1
  C  1085  1  0.12992650  0.78663500  0.60786000  1
  C  1086  1  0.11156800  0.81115700  0.59580300  1
  C  1088  1  0.10838300  0.78539500  0.56372800  1
  C  1089  1  0.12693200  0.75991750  0.57489150  1
  C  1090  1  0.13760950  0.76097300  0.59706100  1
  C  1092  1  0.09692000  0.78539600  0.54175100  1
  C  1093  1  0.06800150  0.81115950  0.50966050  1
  C  1094  1  0.07413000  0.78663850  0.49762050  1
  C  1095  1  0.09210200  0.76097650  0.50842350  1
  C  1098  1  0.10382900  0.75992100  0.53059600  1
  C  1099  1  0.12230050  0.73464100  0.54177600  1
  C  1100  1  0.13372350  0.73463950  0.56371850  1
  C  1185  1  0.07413850  0.38921400  0.89505000  1
  C  1186  1  0.06801800  0.40125250  0.91956950  1
  C  1188  1  0.09694100  0.43333950  0.89380050  1
  C  1189  1  0.10384250  0.42218500  0.86832600  1
  C  1190  1  0.09211050  0.40001400  0.86938600  1
  C  1192  1  0.10840600  0.45531550  0.89379550  1
  C  1193  1  0.11159500  0.48739550  0.91955050  1
  C  1194  1  0.12995200  0.49945050  0.89502650  1
  C  1195  1  0.13762950  0.48865000  0.86936700  1
  C  1198  1  0.12695050  0.46647950  0.86831650  1
  C  1199  1  0.13373650  0.45530650  0.84303850  1
  C  1200  1  0.12231050  0.43336500  0.84304400  1
  C  1205  1  0.36133550  0.49943350  0.21041050  1
  C  1206  1  0.39176800  0.48739550  0.18588850  1
  C  1208  1  0.42702000  0.45531100  0.21165100  1
  C  1209  1  0.39729200  0.46645700  0.23712800  1
  C  1210  1  0.36444350  0.48862350  0.23607150  1
  C  1212  1  0.46046300  0.43333850  0.21164950  1
  C  1213  1  0.52149350  0.40127450  0.18588450  1
  C  1214  1  0.52739800  0.38922350  0.21040550  1
  C  1215  1  0.49860500  0.40000300  0.23606700  1
  C  1218  1  0.46470000  0.42217100  0.23712500  1
  C  1219  1  0.43503400  0.43333400  0.26240500  1
  C  1220  1  0.40166650  0.45527300  0.26240500  1
  C  1225  1  0.51900100  0.78665900  0.60783900  1
  C  1226  1  0.52490550  0.81117850  0.59578750  1
  C  1228  1  0.58593650  0.78541350  0.56372250  1
  C  1229  1  0.58170050  0.75993850  0.57489150  1
  C  1230  1  0.54779650  0.76099600  0.59705900  1
  C  1232  1  0.61937950  0.78541350  0.54175150  1
  C  1233  1  0.65463300  0.81117550  0.50966750  1
  C  1234  1  0.68506500  0.78665200  0.49762900  1
  C  1235  1  0.68195750  0.76099100  0.50843900  1
  C  1238  1  0.64910700  0.75993650  0.53060550  1
  C  1239  1  0.64473500  0.73465700  0.54179100  1
  C  1240  1  0.61136800  0.73465850  0.56372850  1
  C  1245  1  0.91644500  0.10203950  0.49761350  1
  C  1246  1  0.93480000  0.07751500  0.50966900  1
  C  1248  1  0.93799100  0.10326950  0.54174950  1
  C  1249  1  0.91944450  0.12874900  0.53058600  1
  C  1250  1  0.90876700  0.12769900  0.50841500  1
  C  1252  1  0.94945700  0.10326500  0.56372400  1
  C  1253  1  0.97838100  0.07749500  0.59581000  1
  C  1254  1  0.97226000  0.10201350  0.60784950  1
  C  1255  1  0.95428700  0.12767850  0.59705050  1
  C  1258  1  0.94255600  0.12873850  0.57487950  1
  C  1259  1  0.92408600  0.15402150  0.56370050  1
  C  1260  1  0.91266100  0.15402600  0.54175800  1
  C  1345  1  0.96043700  0.63771400  0.12565700  1
  C  1346  1  0.99928300  0.62885150  0.10938750  1
  C  1348  1  0.98753150  0.64146450  0.06735550  1
  C  1349  1  0.94804150  0.65134800  0.08232500  1
  C  1350  1  0.93496500  0.64952100  0.11167900  1
  C  1352  1  0.00216450  0.64146950  0.03809350  1
  C  1353  1  0.05595600  0.62885750  0.99606450  1
  C  1354  1  0.03338000  0.63770450  0.97979550  1
  C  1355  1  0.99393350  0.64955400  0.99376200  1
  C  1358  1  0.97765050  0.65135350  0.02311850  1
  C  1359  1  0.93831800  0.66167500  0.03807200  1
  C  1360  1  0.92366700  0.66167200  0.06736900  1
  C  1365  1  0.72679300  0.25092000  0.97981500  1
  C  1366  1  0.74053350  0.25975300  0.99608600  1
  C  1368  1  0.69930500  0.24719000  0.03811600  1
  C  1369  1  0.68465100  0.23732900  0.02314400  1
  C  1370  1  0.69913100  0.23912950  0.99378950  1
  C  1372  1  0.68466900  0.24719550  0.06737850  1
  C  1373  1  0.68383800  0.25978650  0.10940850  1
  C  1374  1  0.65383500  0.25094450  0.12568150  1
  C  1375  1  0.64015300  0.23915050  0.11170450  1
  C  1378  1  0.65503950  0.23733750  0.08235050  1
  C  1379  1  0.64095700  0.22704200  0.06739600  1
  C  1380  1  0.65561000  0.22703700  0.03809900  1
  C  1385  1  0.65380850  0.01725650  0.35936550  1
  C  1386  1  0.68380200  0.00098550  0.36821850  1
  C  1388  1  0.68465800  0.95895450  0.35561150  1
  C  1389  1  0.65503050  0.97392200  0.34575000  1
  C  1390  1  0.64012400  0.00327550  0.34758050  1
  C  1392  1  0.69930550  0.92969200  0.35560000  1
  C  1393  1  0.74051700  0.88766550  0.36818450  1
  C  1394  1  0.72678700  0.87139200  0.35934200  1
  C  1395  1  0.69916100  0.88535850  0.34751950  1
  C  1398  1  0.68466550  0.91471600  0.34572900  1
  C  1399  1  0.65562950  0.92966750  0.33543150  1
  C  1400  1  0.64096650  0.95896500  0.33544100  1
  C  1405  1  0.03337400  0.87140100  0.74612100  1
  C  1406  1  0.05595050  0.88767000  0.73728900  1
  C  1408  1  0.00215750  0.92969900  0.74988000  1
  C  1409  1  0.97764250  0.91472650  0.75974650  1
  C  1410  1  0.99392500  0.88537100  0.75793400  1
  C  1412  1  0.98752500  0.95896200  0.74988400  1
  C  1413  1  0.99928050  0.00099250  0.73729350  1
  C  1414  1  0.96043350  0.01726250  0.74614650  1
  C  1415  1  0.93496050  0.00328700  0.75794900  1
  C  1418  1  0.94803650  0.97393200  0.75975600  1
  C  1419  1  0.92366200  0.95897550  0.77005850  1
  C  1420  1  0.93831150  0.92967900  0.77005600  1
  C  1425  1  0.08596250  0.87140750  0.35934850  1
  C  1426  1  0.04711750  0.88767600  0.36821100  1
  C  1428  1  0.05886900  0.92970850  0.35559750  1
  C  1429  1  0.09835850  0.91474000  0.34571400  1
  C  1430  1  0.11143500  0.88538350  0.34753950  1
  C  1432  1  0.04423450  0.95897000  0.35559700  1
  C  1433  1  0.99044450  0.00099750  0.36821850  1
  C  1434  1  0.01301950  0.01726950  0.35936350  1
  C  1435  1  0.05246750  0.00330100  0.34751200  1
  C  1438  1  0.06875000  0.97394450  0.34571250  1
  C  1439  1  0.10808000  0.95899300  0.33538900  1
  C  1440  1  0.12273200  0.92969500  0.33539000  1
  C  1445  1  0.31960650  0.01724750  0.74614450  1
  C  1446  1  0.30586750  0.00097650  0.73730950  1
  C  1448  1  0.34709350  0.95894750  0.74987350  1
  C  1449  1  0.36174950  0.97391750  0.75973450  1
  C  1450  1  0.34726950  0.00327300  0.75793300  1
  C  1452  1  0.36173050  0.92968400  0.74986800  1
  C  1453  1  0.36256300  0.88765500  0.73727600  1
  C  1454  1  0.39256600  0.87138100  0.74611800  1
  C  1455  1  0.40624850  0.88535650  0.75791150  1
  C  1458  1  0.39136100  0.91471200  0.75972700  1
  C  1459  1  0.40544350  0.92966650  0.77002150  1
  C  1460  1  0.39079000  0.95896450  0.77002650  1
  C  1465  1  0.39259200  0.63769550  0.97980650  1
  C  1466  1  0.36259900  0.62884350  0.99607550  1
  C  1468  1  0.36174100  0.64144950  0.03810950  1
  C  1469  1  0.39136850  0.65131250  0.02314050  1
  C  1470  1  0.40627550  0.64948150  0.99378650  1
  C  1472  1  0.34709100  0.64146300  0.06737200  1
  C  1473  1  0.30587500  0.62888250  0.10939850  1
  C  1474  1  0.31960600  0.63772200  0.12567100  1
  C  1475  1  0.34723500  0.64954450  0.11170450  1
  C  1478  1  0.36173150  0.65133450  0.08234650  1
  C  1479  1  0.39076400  0.66163300  0.06739700  1
  C  1480  1  0.40543000  0.66162300  0.03809900  1
  C  1485  1  0.01302450  0.25094350  0.12566250  1
  C  1486  1  0.99044950  0.25977450  0.10939250  1
  C  1488  1  0.04424100  0.24718350  0.06736450  1
  C  1489  1  0.06875650  0.23731650  0.08233650  1
  C  1490  1  0.05247450  0.23912850  0.11169150  1
  C  1492  1  0.05887450  0.24717950  0.03810150  1
  C  1493  1  0.04711850  0.25977100  0.99607100  1
  C  1494  1  0.08596550  0.25091650  0.97980050  1
  C  1495  1  0.11143950  0.23911350  0.99377650  1
  C  1498  1  0.09836200  0.23730750  0.02313150  1
  C  1499  1  0.12273900  0.22700400  0.03808700  1
  C  1500  1  0.10808700  0.22700750  0.06738450  1
  C  1665  1  0.06582350  0.53536300  0.20756300  1
  C  1666  1  0.09107350  0.54498700  0.18517700  1
  C  1668  1  0.13503450  0.53181050  0.20770750  1
  C  1669  1  0.11152100  0.52114350  0.23074650  1
  C  1670  1  0.07697100  0.52289050  0.23015550  1
  C  1672  1  0.16890200  0.53179800  0.20769800  1
  C  1673  1  0.22223150  0.54495550  0.18515050  1
  C  1674  1  0.23473750  0.53531650  0.20752650  1
  C  1675  1  0.21348900  0.52282800  0.23011400  1
  C  1678  1  0.18005800  0.52112300  0.23072900  1
  C  1679  1  0.15692150  0.51005800  0.25345300  1
  C  1680  1  0.12301400  0.51006650  0.25346150  1
  C  1685  1  0.81164900  0.35334150  0.89796450  1
  C  1686  1  0.82414050  0.34371850  0.92034950  1
  C  1688  1  0.87748150  0.35686100  0.89779400  1
  C  1689  1  0.86633600  0.36752700  0.87475800  1
  C  1690  1  0.83291700  0.36580600  0.87536700  1
  C  1692  1  0.91134150  0.35686050  0.89779050  1
  C  1693  1  0.95529050  0.34370050  0.92033150  1
  C  1694  1  0.98054000  0.35332550  0.89794550  1
  C  1695  1  0.96939500  0.36579700  0.87535200  1
  C  1698  1  0.93485700  0.36752400  0.87475100  1
  C  1699  1  0.92337550  0.37858550  0.85202850  1
  C  1700  1  0.88947500  0.37858750  0.85203250  1
  C  1705  1  0.65687000  0.09914800  0.46172300  1
  C  1706  1  0.69174650  0.07676500  0.45209500  1
  C  1708  1  0.72251950  0.09929700  0.46528400  1
  C  1709  1  0.68833400  0.12233000  0.47595900  1
  C  1710  1  0.65553250  0.12173550  0.47421050  1
  C  1712  1  0.75637400  0.09929550  0.46529150  1
  C  1713  1  0.82286550  0.07676650  0.45211350  1
  C  1714  1  0.82572550  0.09915300  0.46173800  1
  C  1715  1  0.79198000  0.12172500  0.47425600  1
  C  1718  1  0.75684400  0.12232800  0.47597300  1
  C  1719  1  0.72263600  0.14504350  0.48704950  1
  C  1720  1  0.68874250  0.14504350  0.48704350  1
  C  1725  1  0.22066550  0.78953500  0.64370300  1
  C  1726  1  0.22353450  0.81192400  0.65331700  1
  C  1728  1  0.29002000  0.78937150  0.64016750  1
  C  1729  1  0.28953900  0.76633450  0.62950450  1
  C  1730  1  0.25440100  0.76694050  0.63122850  1
  C  1732  1  0.32387850  0.78936800  0.64017100  1
  C  1733  1  0.35466450  0.81190350  0.65333950  1
  C  1734  1  0.38953200  0.78951250  0.64372450  1
  C  1735  1  0.39086500  0.76692500  0.63124000  1
  C  1738  1  0.35805650  0.76632850  0.62950750  1
  C  1739  1  0.35763700  0.74360700  0.61844400  1
  C  1740  1  0.32374000  0.74361000  0.61844100  1
  C  1745  1  0.98057650  0.78950000  0.46169900  1
  C  1746  1  0.95532700  0.81188700  0.45207400  1
  C  1748  1  0.91136700  0.78935600  0.46525200  1
  C  1749  1  0.93487750  0.76631700  0.47591900  1
  C  1750  1  0.96942950  0.76690800  0.47417200  1
  C  1752  1  0.87749750  0.78936550  0.46526450  1
  C  1753  1  0.82416600  0.81191550  0.45210950  1
  C  1754  1  0.81166100  0.78953800  0.46174800  1
  C  1755  1  0.83291150  0.76695000  0.47423500  1
  C  1758  1  0.86634200  0.76633400  0.47594200  1
  C  1759  1  0.88947950  0.74360950  0.48700450  1
  C  1760  1  0.92338450  0.74360250  0.48699650  1
  C  1765  1  0.23475100  0.09909700  0.64372400  1
  C  1766  1  0.22225850  0.07671350  0.65334550  1
  C  1768  1  0.16891750  0.09926900  0.64020200  1
  C  1769  1  0.18006300  0.12230600  0.62953800  1
  C  1770  1  0.21348200  0.12169700  0.63125900  1
  C  1772  1  0.13505700  0.09927150  0.64020450  1
  C  1773  1  0.09110900  0.07673200  0.65336300  1
  C  1774  1  0.06585900  0.09911850  0.64373750  1
  C  1775  1  0.07700550  0.12171150  0.63126650  1
  C  1778  1  0.11154250  0.12231200  0.62953900  1
  C  1779  1  0.12302350  0.14503500  0.61847800  1
  C  1780  1  0.15692450  0.14503000  0.61847700  1
  C  1785  1  0.38952950  0.53534000  0.89791400  1
  C  1786  1  0.35465450  0.54496800  0.92029700  1
  C  1788  1  0.32388100  0.53177950  0.89776650  1
  C  1789  1  0.35806450  0.52110450  0.87473350  1
  C  1790  1  0.39086750  0.52285350  0.87532650  1
  C  1792  1  0.29002600  0.53177100  0.89776900  1
  C  1793  1  0.22353400  0.54495000  0.92029900  1
  C  1794  1  0.22067300  0.53532450  0.89791350  1
  C  1795  1  0.25441850  0.52280700  0.87534100  1
  C  1798  1  0.28955300  0.52109100  0.87473700  1
  C  1799  1  0.32375950  0.51001400  0.85202200  1
  C  1800  1  0.35765550  0.51001950  0.85202050  1
  C  1805  1  0.82573450  0.35335900  0.20752800  1
  C  1806  1  0.82286500  0.34374550  0.18513950  1
  C  1808  1  0.75637850  0.35689500  0.20769200  1
  C  1809  1  0.75686050  0.36755800  0.23072900  1
  C  1810  1  0.79199900  0.36583350  0.23012350  1
  C  1812  1  0.72252150  0.35689150  0.20769550  1
  C  1813  1  0.69173550  0.34372250  0.18515950  1
  C  1814  1  0.65686650  0.35333800  0.20755200  1
  C  1815  1  0.65553400  0.36582250  0.23013850  1
  C  1818  1  0.68834250  0.36755550  0.23073550  1
  C  1819  1  0.68876150  0.37861850  0.25345650  1
  C  1820  1  0.72265950  0.37862150  0.25345350  1
  H  7  1  0.01591600  0.58297900  0.20007300  1
  H  8  1  0.03335450  0.49844550  0.21422950  1
  H  15  1  0.91415200  0.67411050  0.16716950  1
  H  16  1  0.98063200  0.58978050  0.15071350  1
  H  19  1  0.90907300  0.57371000  0.19858400  1
  H  20  1  0.91527250  0.54067650  0.20439150  1
  H  21  1  0.89950400  0.62985200  0.25470600  1
  H  22  1  0.92676150  0.59708100  0.24776000  1
  H  29  1  0.80190700  0.30570650  0.90543750  1
  H  30  1  0.74892800  0.39023850  0.89128650  1
  H  37  1  0.75839950  0.21454850  0.93828650  1
  H  38  1  0.72410000  0.29887050  0.95478450  1
  H  41  1  0.68433600  0.31493500  0.90688900  1
  H  42  1  0.66329550  0.34796750  0.90108450  1
  H  43  1  0.78699500  0.25884850  0.85076950  1
  H  44  1  0.77453800  0.29161650  0.85773150  1
  H  51  1  0.65458100  0.09168150  0.41410250  1
  H  52  1  0.58749000  0.10579100  0.49864000  1
  H  59  1  0.64391200  0.05877000  0.32297300  1
  H  60  1  0.62610650  0.04231450  0.40729950  1
  H  63  1  0.53850750  0.09010367  0.42338233  1
  H  64  1  0.51168100  0.09588850  0.45639850  1
  H  65  1  0.58480850  0.14628150  0.36724450  1
  H  66  1  0.57932900  0.13934500  0.40001600  1
  H  73  1  0.16330700  0.79701100  0.69134400  1
  H  74  1  0.19481900  0.78285700  0.60682200  1
  H  81  1  0.02858700  0.82988700  0.78250400  1
  H  82  1  0.07868950  0.84634550  0.69818650  1
  H  85  1  0.05490450  0.79855600  0.68213800  1
  H  86  1  0.06687600  0.79276100  0.64910500  1
  H  87  1  0.10134450  0.74237100  0.73823700  1
  H  88  1  0.12174550  0.74929600  0.70547300  1
  H  95  1  0.03048400  0.79699050  0.41408350  1
  H  96  1  0.01304550  0.78283350  0.49861750  1
  H  103  1  0.13224850  0.82989350  0.32295150  1
  H  104  1  0.06576800  0.84635000  0.40728200  1
  H  107  1  0.13732650  0.79847950  0.42335150  1
  H  108  1  0.13112650  0.79267150  0.45638750  1
  H  109  1  0.14689800  0.74235700  0.36721000  1
  H  110  1  0.11963950  0.74930400  0.39998100  1
  H  117  1  0.24449150  0.09162700  0.69135800  1
  H  118  1  0.29747100  0.10577600  0.60682600  1
  H  125  1  0.28800200  0.05877600  0.78251500  1
  H  126  1  0.32230050  0.04227850  0.69819250  1
  H  129  1  0.36206600  0.09017100  0.68212900  1
  H  130  1  0.38310450  0.09597750  0.64909450  1
  H  131  1  0.25940600  0.14629300  0.73821500  1
  H  132  1  0.27186150  0.13933150  0.70544750  1
  H  139  1  0.39182100  0.58296100  0.90537900  1
  H  140  1  0.45891000  0.49842450  0.89127050  1
  H  147  1  0.40248550  0.67409200  0.93829500  1
  H  148  1  0.42029650  0.58976250  0.95474550  1
  H  151  1  0.50789250  0.57367917  0.90695983  1
  H  152  1  0.53472050  0.54066550  0.90117150  1
  H  153  1  0.46158500  0.62982200  0.85078100  1
  H  154  1  0.46706800  0.59704950  0.85771650  1
  H  161  1  0.88309350  0.30571800  0.20005100  1
  H  162  1  0.85158100  0.39024050  0.21420650  1
  H  169  1  0.01781400  0.21455850  0.16717450  1
  H  170  1  0.96770850  0.29887650  0.15071850  1
  H  173  1  0.99149500  0.31492400  0.19850800  1
  H  174  1  0.97952450  0.34795700  0.20430200  1
  H  175  1  0.94505450  0.25882500  0.25469300  1
  H  176  1  0.92465250  0.29158950  0.24776750  1
  H  183  1  0.03044200  0.30569750  0.90542450  1
  H  184  1  0.01303500  0.39022750  0.89126650  1
  H  191  1  0.13225100  0.21454000  0.93827600  1
  H  192  1  0.06574900  0.29886400  0.95476300  1
  H  195  1  0.13732550  0.31493450  0.90687650  1
  H  196  1  0.13113600  0.34796750  0.90106750  1
  H  197  1  0.14687000  0.25882700  0.85075500  1
  H  198  1  0.11960450  0.29159550  0.85771150  1
  H  205  1  0.24448200  0.58295050  0.20005850  1
  H  206  1  0.29745850  0.49841600  0.21420400  1
  H  213  1  0.28800800  0.67410000  0.16719700  1
  H  214  1  0.32229000  0.58977850  0.15070850  1
  H  217  1  0.36205600  0.57371600  0.19860400  1
  H  218  1  0.38309500  0.54068150  0.20440950  1
  H  219  1  0.25940800  0.62981050  0.25471750  1
  H  220  1  0.27185100  0.59704450  0.24776050  1
  H  227  1  0.39180700  0.79697650  0.69135350  1
  H  228  1  0.45891750  0.78286050  0.60681950  1
  H  235  1  0.40248250  0.82986100  0.78250100  1
  H  236  1  0.42026150  0.84633400  0.69817900  1
  H  239  1  0.50787950  0.79851550  0.68211850  1
  H  240  1  0.53471600  0.79275100  0.64907900  1
  H  241  1  0.46160350  0.74236000  0.73820700  1
  H  242  1  0.46707250  0.74930200  0.70543900  1
  H  249  1  0.88309450  0.09168050  0.41411050  1
  H  250  1  0.85155700  0.10582300  0.49863800  1
  H  257  1  0.01781400  0.05877500  0.32297000  1
  H  258  1  0.96770750  0.04233600  0.40729200  1
  H  261  1  0.99148500  0.09009267  0.42337133  1
  H  262  1  0.97950700  0.09591050  0.45637550  1
  H  263  1  0.94505600  0.14630150  0.36721550  1
  H  264  1  0.92465500  0.13938350  0.39998350  1
  H  271  1  0.01595700  0.09163850  0.69136550  1
  H  272  1  0.03336450  0.10579700  0.60683600  1
  H  279  1  0.91414900  0.05878750  0.78252350  1
  H  280  1  0.98064950  0.04230050  0.69820050  1
  H  283  1  0.90907450  0.09018650  0.68212850  1
  H  284  1  0.91526400  0.09599500  0.64909500  1
  H  285  1  0.89952800  0.14630800  0.73823600  1
  H  286  1  0.92679350  0.13935150  0.70546850  1
  H  293  1  0.80191900  0.79700500  0.41411200  1
  H  294  1  0.74894050  0.78286050  0.49864650  1
  H  301  1  0.75839000  0.82986700  0.32296400  1
  H  302  1  0.72410750  0.84635300  0.40728500  1
  H  305  1  0.68434600  0.79845750  0.42334550  1
  H  306  1  0.66330650  0.79265250  0.45638050  1
  H  307  1  0.78699650  0.74234600  0.36725200  1
  H  308  1  0.77455350  0.74930200  0.40001800  1
  H  315  1  0.65459400  0.30570900  0.20008600  1
  H  316  1  0.58748000  0.39024200  0.21420400  1
  H  323  1  0.64391750  0.21456150  0.16720150  1
  H  324  1  0.62613750  0.29888400  0.15072900  1
  H  327  1  0.53851950  0.31494400  0.19854800  1
  H  328  1  0.51168300  0.34798300  0.20431400  1
  H  329  1  0.58479650  0.25885450  0.25470350  1
  H  330  1  0.57932750  0.29162300  0.24776100  1
  H  337  1  0.16330500  0.58295350  0.90538550  1
  H  338  1  0.19484100  0.49842450  0.89124250  1
  H  345  1  0.02858450  0.67409650  0.93828750  1
  H  346  1  0.07868950  0.58977550  0.95473050  1
  H  349  1  0.05491200  0.57369567  0.90697333  1
  H  350  1  0.06689200  0.54068800  0.90115500  1
  H  351  1  0.10134400  0.62984600  0.85076300  1
  H  352  1  0.12174350  0.59707900  0.85768200  1
  H  711  1  0.74301850  0.78263550  0.31365450  1
  H  716  1  0.84283600  0.76250550  0.32802950  1
  H  721  1  0.84222700  0.68342900  0.21442100  1
  H  722  1  0.93630400  0.66904000  0.23454000  1
  H  731  1  0.84223850  0.10602850  0.79182650  1
  H  736  1  0.93630400  0.12616100  0.77743200  1
  H  741  1  0.74302650  0.20525200  0.89105000  1
  H  742  1  0.84283500  0.21963850  0.87091450  1
  H  751  1  0.58142350  0.20518000  0.21436800  1
  H  756  1  0.66092400  0.21968050  0.23462750  1
  H  761  1  0.58142000  0.10595250  0.31358450  1
  H  762  1  0.66092000  0.12620450  0.32809450  1
  H  771  1  0.00387200  0.68345650  0.89107650  1
  H  776  1  0.11810150  0.66900700  0.87088300  1
  H  781  1  0.00387600  0.78268100  0.79185700  1
  H  782  1  0.11810200  0.76248850  0.77741250  1
  H  791  1  0.30338250  0.68340850  0.21442750  1
  H  796  1  0.20356500  0.66903200  0.23455700  1
  H  801  1  0.20417250  0.78264250  0.31363350  1
  H  802  1  0.11009750  0.76252300  0.32802300  1
  H  811  1  0.20416200  0.20523550  0.89103450  1
  H  816  1  0.11009700  0.21963050  0.87090150  1
  H  821  1  0.30337450  0.10601300  0.79181100  1
  H  822  1  0.20356500  0.12614800  0.77742500  1
  H  831  1  0.46497600  0.78269550  0.79188250  1
  H  836  1  0.38547750  0.76243500  0.77738000  1
  H  841  1  0.46497750  0.68348050  0.89111150  1
  H  842  1  0.38548300  0.66896700  0.87085600  1
  H  851  1  0.04252800  0.10598600  0.31360700  1
  H  856  1  0.92830000  0.12617800  0.32805500  1
  H  861  1  0.04252300  0.20520750  0.21438350  1
  H  862  1  0.92829800  0.21964800  0.23457300  1
  H  1031  1  0.94915900  0.49740850  0.25408350  1
  H  1036  1  0.99094100  0.49468450  0.16681850  1
  H  1041  1  0.89595500  0.39122100  0.25408700  1
  H  1042  1  0.94137050  0.39397550  0.16682150  1
  H  1051  1  0.70357400  0.39125850  0.85142250  1
  H  1056  1  0.65534850  0.39396400  0.93868800  1
  H  1061  1  0.54416950  0.49742800  0.85141800  1
  H  1062  1  0.50505650  0.49465200  0.93868200  1
  H  1071  1  0.50222950  0.14564450  0.49963550  1
  H  1076  1  0.54134300  0.05838050  0.50241350  1
  H  1081  1  0.34282600  0.14564000  0.60580400  1
  H  1082  1  0.39105250  0.05837550  0.60310050  1
  H  1091  1  0.15044550  0.74297500  0.60584100  1
  H  1096  1  0.10502950  0.83024200  0.60308700  1
  H  1101  1  0.09723950  0.74298050  0.49965450  1
  H  1102  1  0.05545800  0.83024500  0.50237700  1
  H  1191  1  0.09724000  0.39124750  0.85139050  1
  H  1196  1  0.05547600  0.39397150  0.93865550  1
  H  1201  1  0.15046100  0.49743000  0.85136800  1
  H  1202  1  0.10506300  0.49467750  0.93863450  1
  H  1211  1  0.34281800  0.49739400  0.25406900  1
  H  1216  1  0.39103400  0.49469000  0.16680400  1
  H  1221  1  0.50222900  0.39122700  0.25406300  1
  H  1222  1  0.54133050  0.39400600  0.16679900  1
  H  1231  1  0.54417050  0.74300000  0.60583700  1
  H  1236  1  0.50506750  0.83026500  0.60305700  1
  H  1241  1  0.70358350  0.74299300  0.49966900  1
  H  1242  1  0.65536350  0.83025900  0.50237100  1
  H  1251  1  0.89593650  0.14569800  0.49963400  1
  H  1256  1  0.94133750  0.05843150  0.50238350  1
  H  1261  1  0.94915800  0.14567300  0.60581800  1
  H  1262  1  0.99092350  0.05840900  0.60309100  1
  H  1351  1  0.90668400  0.65556900  0.12296400  1
  H  1356  1  0.01904450  0.62020500  0.11831100  1
  H  1361  1  0.97693900  0.65554800  0.98248100  1
  H  1362  1  0.08463950  0.62018150  0.98714650  1
  H  1371  1  0.68814100  0.23313400  0.98250100  1
  H  1376  1  0.76055950  0.26841300  0.98716600  1
  H  1381  1  0.61787600  0.23315250  0.12299250  1
  H  1382  1  0.69495800  0.26843000  0.11833100  1
  H  1391  1  0.61787800  0.01456050  0.34154550  1
  H  1396  1  0.69492850  0.00991100  0.37685300  1
  H  1401  1  0.68815400  0.87407450  0.34153550  1
  H  1402  1  0.76054500  0.87874700  0.37684100  1
  H  1411  1  0.97693750  0.87408250  0.76393850  1
  H  1416  1  0.08463600  0.87875050  0.72862050  1
  H  1421  1  0.90668400  0.01457300  0.76395600  1
  H  1422  1  0.01904150  0.00991750  0.72864250  1
  H  1431  1  0.13971450  0.87409950  0.34149150  1
  H  1436  1  0.02735600  0.87875300  0.37685900  1
  H  1441  1  0.06946100  0.01458350  0.34151450  1
  H  1442  1  0.96176000  0.00991750  0.37688150  1
  H  1451  1  0.35825950  0.01456050  0.76393050  1
  H  1456  1  0.28584150  0.00989700  0.72865000  1
  H  1461  1  0.42852450  0.87407050  0.76391050  1
  H  1462  1  0.35144250  0.87873150  0.72863250  1
  H  1471  1  0.42851950  0.65551800  0.98250400  1
  H  1476  1  0.35147300  0.62020750  0.98715050  1
  H  1481  1  0.35824200  0.65552700  0.12298800  1
  H  1482  1  0.28585400  0.62021800  0.11831600  1
  H  1491  1  0.06946200  0.23312400  0.12298000  1
  H  1496  1  0.96176350  0.26844250  0.11831250  1
  H  1501  1  0.13971500  0.23310750  0.98248950  1
  H  1502  1  0.02735750  0.26842150  0.98714650  1
  H  1671  1  0.05890000  0.51620800  0.24686900  1
  H  1676  1  0.08473400  0.55404850  0.16818250  1
  H  1681  1  0.22149750  0.51619100  0.24684400  1
  H  1682  1  0.23648800  0.55403050  0.16816050  1
  H  1691  1  0.82489400  0.37245350  0.85864350  1
  H  1696  1  0.80988700  0.33463850  0.93733750  1
  H  1701  1  0.98748950  0.37244450  0.85862750  1
  H  1702  1  0.96163250  0.33463450  0.93732250  1
  H  1711  1  0.63077550  0.13844500  0.48089700  1
  H  1716  1  0.69447300  0.05977400  0.44302700  1
  H  1721  1  0.79334550  0.13845600  0.48089400  1
  H  1722  1  0.84620350  0.05978200  0.44303100  1
  H  1731  1  0.25302400  0.75021600  0.62458600  1
  H  1736  1  0.20020000  0.82890950  0.66240150  1
  H  1741  1  0.41561150  0.75019950  0.62459050  1
  H  1742  1  0.35194050  0.82889450  0.66240850  1
  H  1751  1  0.98750000  0.75019700  0.48085400  1
  H  1756  1  0.96166600  0.82888100  0.44301400  1
  H  1761  1  0.82490400  0.75021850  0.48087150  1
  H  1762  1  0.80991150  0.82890150  0.44303150  1
  H  1771  1  0.22150650  0.13841900  0.62461000  1
  H  1776  1  0.23651050  0.05972650  0.66242650  1
  H  1781  1  0.05891100  0.13843550  0.62461850  1
  H  1782  1  0.08476650  0.05974050  0.66242850  1
  H  1791  1  0.41562350  0.51616700  0.85861800  1
  H  1796  1  0.35192850  0.55403600  0.93728900  1
  H  1801  1  0.25305200  0.51617000  0.85860900  1
  H  1802  1  0.20019650  0.55403150  0.93728450  1
  H  1811  1  0.79337600  0.37247700  0.24684700  1
  H  1816  1  0.84620000  0.33466150  0.16815350  1
  H  1821  1  0.63078950  0.37247050  0.24686250  1
  H  1822  1  0.69445900  0.33465350  0.16816950  1
  N  17  1  0.92523350  0.55518300  0.20168400  1
  N  18  1  0.91807950  0.61584550  0.24080650  1
  N  39  1  0.68505450  0.33346600  0.90379700  1
  N  40  1  0.77767150  0.27284800  0.86467600  1
  N  61  1  0.53612200  0.09325250  0.44188450  1
  N  62  1  0.58958650  0.13241050  0.38122650  1
  N  83  1  0.07418450  0.79537900  0.66361800  1
  N  84  1  0.10616000  0.75625000  0.72424100  1
  N  105  1  0.12116700  0.79538050  0.44188050  1
  N  106  1  0.12832150  0.75625750  0.38121750  1
  N  127  1  0.36134550  0.09326600  0.66359700  1
  N  128  1  0.26872900  0.13238750  0.72421550  1
  N  149  1  0.51027850  0.55517950  0.90380750  1
  N  150  1  0.45681100  0.61583950  0.86465150  1
  N  171  1  0.97221500  0.33344500  0.20168400  1
  N  172  1  0.94023950  0.27282100  0.24081300  1
  N  193  1  0.12116750  0.33346550  0.90378050  1
  N  194  1  0.12829550  0.27282950  0.86465950  1
  N  215  1  0.36133600  0.55518450  0.20169750  1
  N  216  1  0.26872750  0.61580900  0.24081300  1
  N  237  1  0.51027050  0.79539100  0.66359100  1
  N  238  1  0.45681850  0.75623300  0.72422800  1
  N  259  1  0.97220200  0.09329700  0.44186100  1
  N  260  1  0.94024150  0.13242500  0.38121500  1
  N  281  1  0.92523100  0.09328400  0.66359900  1
  N  282  1  0.91810400  0.13240350  0.72423550  1
  N  303  1  0.68506450  0.79536550  0.44187850  1
  N  304  1  0.77767750  0.75624950  0.38125250  1
  N  325  1  0.53612950  0.33347100  0.20167200  1
  N  326  1  0.58958250  0.27283250  0.24082950  1
  N  347  1  0.07419550  0.55520400  0.90377100  1
  N  348  1  0.10615750  0.61584650  0.86464050  1
  N  707  1  0.84686050  0.74159900  0.29634600  1
  N  717  1  0.88774450  0.70073000  0.25544500  1
  N  727  1  0.88774450  0.14706450  0.80912450  1
  N  737  1  0.84686300  0.18795250  0.85000650  1
  N  747  1  0.64408250  0.18797200  0.25550800  1
  N  757  1  0.64409150  0.14708050  0.29637950  1
  N  767  1  0.09043350  0.70071750  0.85000150  1
  N  777  1  0.09043750  0.74159900  0.80911600  1
  N  787  1  0.19954250  0.70071550  0.25546450  1
  N  797  1  0.15865550  0.74161800  0.29633400  1
  N  807  1  0.15865500  0.18793900  0.84999900  1
  N  817  1  0.19953700  0.14705650  0.80911050  1
  N  827  1  0.40231900  0.74155450  0.80908950  1
  N  837  1  0.40230550  0.70068550  0.84998250  1
  N  847  1  0.95596650  0.14705950  0.29634450  1
  N  857  1  0.95596250  0.18794600  0.25546400  1
  N  1027  1  0.96700600  0.46617600  0.18735500  1
  N  1037  1  0.94478100  0.42248000  0.18735600  1
  N  1047  1  0.62344250  0.42247350  0.91815050  1
  N  1057  1  0.55752000  0.46616050  0.91814750  1
  N  1067  1  0.48888200  0.07891300  0.53090300  1
  N  1077  1  0.42295650  0.07891200  0.57459000  1
  N  1087  1  0.10161800  0.80970750  0.57458250  1
  N  1097  1  0.07939350  0.80971000  0.53088600  1
  N  1187  1  0.07941700  0.42247600  0.91811500  1
  N  1197  1  0.10164550  0.46617200  0.91810600  1
  N  1207  1  0.42294200  0.46617900  0.18733800  1
  N  1217  1  0.48886850  0.42249250  0.18733650  1
  N  1227  1  0.55752950  0.80972850  0.57456950  1
  N  1237  1  0.62345750  0.80972600  0.53088400  1
  N  1247  1  0.94475150  0.07896050  0.53089150  1
  N  1257  1  0.96698150  0.07895000  0.57458700  1
  N  1347  1  0.01123650  0.63086550  0.08141650  1
  N  1357  1  0.03993150  0.63086750  0.02403550  1
  N  1367  1  0.72650400  0.25776000  0.02405700  1
  N  1377  1  0.69779900  0.25777550  0.08143750  1
  N  1387  1  0.69777350  0.97301750  0.36620050  1
  N  1397  1  0.72649250  0.91563550  0.36618250  1
  N  1407  1  0.03992700  0.91564100  0.73929300  1
  N  1417  1  0.01123250  0.97302300  0.73929700  1
  N  1427  1  0.03516250  0.91564650  0.36619950  1
  N  1437  1  0.00646800  0.97302650  0.36620150  1
  N  1447  1  0.31989650  0.97300600  0.73930300  1
  N  1457  1  0.34860250  0.91562450  0.73928650  1
  N  1467  1  0.34862700  0.63086000  0.02404600  1
  N  1477  1  0.31990350  0.63088200  0.08142700  1
  N  1487  1  0.00647150  0.25777050  0.08142250  1
  N  1497  1  0.03516500  0.25776700  0.02404100  1
  N  1667  1  0.12397600  0.54304250  0.18604350  1
  N  1677  1  0.19039000  0.54302850  0.18603050  1
  N  1687  1  0.85598750  0.34564150  0.91946650  1
  N  1697  1  0.92239400  0.34563550  0.91945850  1
  N  1707  1  0.72270050  0.07763600  0.45404300  1
  N  1717  1  0.78909450  0.07763550  0.45405450  1
  N  1727  1  0.25730450  0.81104400  0.65139000  1
  N  1737  1  0.32370350  0.81103500  0.65139900  1
  N  1747  1  0.92242400  0.81101950  0.45401950  1
  N  1757  1  0.85601000  0.81103250  0.45403550  1
  N  1767  1  0.19041200  0.07759750  0.65142250  1
  N  1777  1  0.12400550  0.07760450  0.65142850  1
  N  1787  1  0.32370000  0.54301950  0.91942850  1
  N  1797  1  0.25730450  0.54300900  0.91942900  1
  N  1807  1  0.78909550  0.34567200  0.18601900  1
  N  1817  1  0.72269600  0.34566350  0.18602750  1
  O  723  1  0.77660800  0.72141800  0.23589600  1
  O  724  1  0.73684400  0.76115900  0.27567500  1
  O  743  1  0.73685700  0.16726750  0.86957450  1
  O  744  1  0.77661100  0.12750700  0.82981700  1
  O  763  1  0.55386300  0.12737850  0.27554750  1
  O  764  1  0.55384600  0.16715400  0.23580200  1
  O  783  1  0.95971350  0.76123000  0.82986800  1
  O  784  1  0.95971100  0.72147050  0.86962750  1
  O  803  1  0.26979300  0.76116800  0.27564300  1
  O  804  1  0.30955550  0.72138900  0.23590400  1
  O  823  1  0.30954300  0.12748850  0.82979650  1
  O  824  1  0.26978700  0.16724800  0.86955700  1
  O  843  1  0.49253350  0.72151800  0.86968600  1
  O  844  1  0.49255250  0.76126250  0.82990950  1
  O  863  1  0.08668600  0.16719600  0.23583300  1
  O  864  1  0.08668950  0.12743550  0.27559150  1
  O  1043  1  0.89511950  0.42321950  0.28709450  1
  O  1044  1  0.91699650  0.46540550  0.28709350  1
  O  1063  1  0.60835650  0.46544850  0.81841050  1
  O  1064  1  0.67242500  0.42326750  0.81841250  1
  O  1083  1  0.37397450  0.17865000  0.57379500  1
  O  1084  1  0.43804250  0.17865300  0.53161400  1
  O  1103  1  0.12940300  0.70997050  0.53165650  1
  O  1104  1  0.15127850  0.70996900  0.57384400  1
  O  1203  1  0.15128800  0.46543150  0.81836650  1
  O  1204  1  0.12940500  0.42324500  0.81837600  1
  O  1223  1  0.43804250  0.42320350  0.28707450  1
  O  1224  1  0.37397250  0.46538250  0.28707650  1
  O  1243  1  0.67243000  0.70998650  0.53168150  1
  O  1244  1  0.60835750  0.70998950  0.57386050  1
  O  1263  1  0.91699250  0.17868800  0.57382000  1
  O  1264  1  0.89510850  0.17869800  0.53163500  1
  O  1363  1  0.91399800  0.67111650  0.02457550  1
  O  1364  1  0.88584850  0.67110400  0.08086100  1
  O  1383  1  0.61254800  0.21763400  0.08089000  1
  O  1384  1  0.64069900  0.21762500  0.02460500  1
  O  1403  1  0.64074000  0.91616900  0.32600200  1
  O  1404  1  0.61256000  0.97245500  0.32602900  1
  O  1423  1  0.88584300  0.97246950  0.77948150  1
  O  1424  1  0.91399000  0.91618300  0.77947400  1
  O  1443  1  0.13240100  0.97248900  0.32594700  1
  O  1444  1  0.16055100  0.91620250  0.32595750  1
  O  1463  1  0.43385250  0.91617200  0.77942900  1
  O  1464  1  0.40570000  0.97245800  0.77943900  1
  O  1483  1  0.40565500  0.67106150  0.08089450  1
  O  1484  1  0.43383800  0.67103350  0.02460850  1
  O  1503  1  0.16055550  0.21758150  0.02459350  1
  O  1504  1  0.13241000  0.21758850  0.08087950  1
  O  1683  1  0.16644950  0.49980850  0.27587650  1
  O  1684  1  0.10130550  0.49983450  0.27589550  1
  O  1703  1  0.94508650  0.38881550  0.82959450  1
  O  1704  1  0.87996100  0.38881850  0.82960150  1
  O  1723  1  0.72190900  0.16746500  0.49730300  1
  O  1724  1  0.65679600  0.16747100  0.49728400  1
  O  1743  1  0.38957950  0.72117300  0.60821300  1
  O  1744  1  0.32445750  0.72117900  0.60820900  1
  O  1763  1  0.87995150  0.72118650  0.49725450  1
  O  1764  1  0.94509450  0.72116850  0.49722750  1
  O  1783  1  0.10131250  0.16746900  0.60824800  1
  O  1784  1  0.16643850  0.16746150  0.60824550  1
  O  1803  1  0.32448850  0.49976000  0.82959800  1
  O  1804  1  0.38960250  0.49978050  0.82959150  1
  O  1823  1  0.65682000  0.38884900  0.27589000  1
  O  1824  1  0.72194300  0.38885200  0.27588400  1
