# generated using pymatgen
data_H17C20(N3O)2
_symmetry_space_group_name_H-M   'P 1'
_cell_length_a   55.46240000
_cell_length_b   55.46240000
_cell_length_c   55.46240000
_cell_angle_alpha   90.00000000
_cell_angle_beta   90.00000000
_cell_angle_gamma   90.00000000
_symmetry_Int_Tables_number   1
_chemical_formula_structural   H17C20(N3O)2
_chemical_formula_sum   'H408 C480 N144 O48'
_cell_volume   170606.65813788
_cell_formula_units_Z   24
loop_
 _symmetry_equiv_pos_site_id
 _symmetry_equiv_pos_as_xyz
  1  'x, y, z'
loop_
 _atom_site_type_symbol
 _atom_site_label
 _atom_site_symmetry_multiplicity
 _atom_site_fract_x
 _atom_site_fract_y
 _atom_site_fract_z
 _atom_site_occupancy
  H  7  1  0.23013100  0.03682700  0.49581300  1
  H  16  1  0.26509800  0.99760800  0.53710200  1
  H  19  1  0.25364200  0.95611200  0.50612400  1
  H  20  1  0.22881300  0.94077900  0.51080700  1
  H  21  1  0.26651000  0.00739300  0.44037000  1
  H  22  1  0.24164600  0.00356700  0.45590000  1
  H  23  1  0.34553500  0.00736300  0.48343300  1
  H  24  1  0.34585900  0.00505900  0.51290900  1
  H  25  1  0.14965900  0.98363100  0.50761700  1
  H  26  1  0.14934700  0.01298700  0.50428400  1
  H  41  1  0.76552700  0.96087500  0.49506100  1
  H  50  1  0.73086200  0.00013000  0.53699800  1
  H  53  1  0.74264000  0.04165700  0.50649100  1
  H  54  1  0.76760400  0.05672600  0.51129400  1
  H  55  1  0.72916900  0.99116800  0.44019300  1
  H  56  1  0.75411000  0.99450500  0.45570500  1
  H  57  1  0.65026200  0.99165300  0.48337900  1
  H  58  1  0.64998900  0.99403800  0.51286600  1
  H  59  1  0.84641100  0.01335300  0.50723200  1
  H  60  1  0.84650300  0.98406200  0.50332300  1
  H  75  1  0.49538600  0.22995700  0.03334300  1
  H  84  1  0.53675200  0.26490900  0.99421500  1
  H  87  1  0.50521600  0.25383100  0.95270600  1
  H  88  1  0.50986200  0.22907400  0.93722900  1
  H  89  1  0.44011200  0.26678800  0.00480300  1
  H  90  1  0.45544200  0.24190800  0.00033000  1
  H  91  1  0.48370800  0.34553800  0.00562400  1
  H  92  1  0.51316300  0.34570600  0.00304800  1
  H  93  1  0.50818900  0.14981800  0.97986300  1
  H  94  1  0.50493800  0.14934600  0.00922500  1
  H  109  1  0.49468800  0.76650600  0.96419300  1
  H  118  1  0.53654100  0.73198400  0.00349900  1
  H  121  1  0.50485700  0.74280700  0.04487100  1
  H  122  1  0.50949300  0.76761500  0.06026700  1
  H  123  1  0.43994500  0.72897100  0.99278700  1
  H  124  1  0.45500000  0.75406000  0.99701300  1
  H  125  1  0.48439800  0.65070000  0.99274800  1
  H  126  1  0.51384100  0.65087300  0.99566700  1
  H  127  1  0.50739200  0.84676200  0.01752500  1
  H  128  1  0.50386200  0.84719700  0.98819300  1
  H  143  1  0.03312300  0.49475100  0.23213900  1
  H  152  1  0.99385300  0.53658800  0.26661100  1
  H  155  1  0.95243600  0.50493800  0.25573500  1
  H  156  1  0.93706100  0.50956500  0.23090600  1
  H  157  1  0.00466900  0.44000400  0.26960000  1
  H  158  1  0.00019000  0.45503900  0.24454200  1
  H  159  1  0.00537700  0.48451300  0.34783400  1
  H  160  1  0.00244700  0.51395700  0.34766800  1
  H  161  1  0.97993300  0.50761900  0.15181700  1
  H  162  1  0.00926800  0.50412300  0.15143400  1
  H  177  1  0.96406100  0.49508300  0.76898200  1
  H  186  1  0.00329800  0.53645900  0.73404600  1
  H  189  1  0.04466400  0.50472700  0.74486600  1
  H  190  1  0.06020700  0.50941900  0.76956600  1
  H  191  1  0.99241200  0.43985800  0.73183000  1
  H  192  1  0.99672700  0.45510600  0.75678800  1
  H  193  1  0.99233600  0.48368400  0.65318400  1
  H  194  1  0.99501000  0.51313300  0.65313200  1
  H  195  1  0.01782200  0.50781600  0.84894700  1
  H  196  1  0.98845600  0.50459400  0.84952100  1
  H  211  1  0.03756300  0.23164100  0.50089400  1
  H  220  1  0.99583200  0.26634600  0.46186800  1
  H  223  1  0.95611000  0.25412500  0.49475500  1
  H  224  1  0.94087300  0.22908300  0.49094700  1
  H  225  1  0.01083800  0.26721000  0.55792400  1
  H  226  1  0.00616900  0.24244900  0.54247500  1
  H  227  1  0.00790400  0.34653500  0.51545300  1
  H  228  1  0.00452600  0.34701700  0.48610900  1
  H  229  1  0.98485200  0.15050900  0.49189300  1
  H  230  1  0.01433500  0.15057000  0.49427500  1
  H  245  1  0.96018700  0.76382300  0.50187300  1
  H  254  1  0.00219000  0.72972600  0.46213600  1
  H  257  1  0.04186200  0.74249900  0.49443900  1
  H  258  1  0.05664500  0.76773600  0.49017000  1
  H  259  1  0.98777500  0.72842300  0.55827700  1
  H  260  1  0.99206600  0.75327900  0.54287900  1
  H  261  1  0.99114500  0.64928800  0.51555800  1
  H  262  1  0.99457400  0.64890600  0.48620500  1
  H  263  1  0.01158100  0.84568600  0.49201800  1
  H  264  1  0.98217600  0.84521300  0.49522300  1
  H  279  1  0.23054300  0.49778700  0.96501300  1
  H  288  1  0.26590200  0.53646900  0.00637700  1
  H  291  1  0.25479600  0.50242600  0.04602200  1
  H  292  1  0.23008200  0.50592400  0.06187600  1
  H  293  1  0.26709400  0.44064600  0.98993100  1
  H  294  1  0.24234200  0.45584400  0.99541100  1
  H  295  1  0.34620700  0.48365000  0.99199900  1
  H  296  1  0.34653400  0.51294700  0.99578600  1
  H  297  1  0.15072100  0.50759900  0.01957800  1
  H  298  1  0.15007000  0.50573300  0.99007900  1
  H  313  1  0.76542600  0.49704800  0.03498000  1
  H  322  1  0.73019300  0.53627100  0.99368300  1
  H  325  1  0.74138600  0.50269000  0.95392800  1
  H  326  1  0.76616900  0.50621500  0.93819200  1
  H  327  1  0.72871500  0.44032000  0.00929400  1
  H  328  1  0.75354400  0.45553000  0.00423600  1
  H  329  1  0.64972400  0.48345100  0.00709900  1
  H  330  1  0.64944700  0.51277000  0.00337900  1
  H  331  1  0.84542400  0.50692300  0.98069100  1
  H  332  1  0.84599800  0.50451400  0.01015700  1
  H  347  1  0.49708800  0.03362100  0.76556000  1
  H  356  1  0.53627600  0.99226800  0.73046000  1
  H  359  1  0.50271700  0.95248800  0.74185900  1
  H  360  1  0.50624300  0.93684500  0.76670600  1
  H  361  1  0.44034500  0.00801600  0.72904300  1
  H  362  1  0.45553400  0.00271800  0.75383800  1
  H  363  1  0.48350000  0.00624500  0.65005600  1
  H  364  1  0.51281200  0.00245100  0.64975900  1
  H  365  1  0.50715800  0.97969700  0.84577800  1
  H  366  1  0.50480500  0.00916900  0.84621800  1
  H  381  1  0.49749500  0.96358400  0.23079200  1
  H  390  1  0.53630300  0.00489000  0.26617500  1
  H  393  1  0.50233100  0.04456900  0.25514900  1
  H  394  1  0.50585400  0.06043800  0.23045300  1
  H  395  1  0.44042600  0.98879700  0.26747300  1
  H  396  1  0.45564900  0.99400100  0.24267600  1
  H  397  1  0.48342800  0.99117500  0.34656200  1
  H  398  1  0.51274000  0.99483500  0.34687100  1
  H  399  1  0.50717600  0.01826100  0.15102800  1
  H  400  1  0.50518900  0.98876600  0.15033000  1
  H  415  1  0.35092900  0.96108500  0.43133500  1
  H  422  1  0.42666200  0.03750000  0.34774900  1
  H  423  1  0.40542200  0.97043200  0.31951200  1
  H  424  1  0.31620900  0.02251200  0.40364400  1
  H  426  1  0.39590000  0.03328000  0.40168400  1
  H  427  1  0.37657900  0.04928400  0.38173900  1
  H  428  1  0.40784000  0.05489900  0.38164600  1
  H  430  1  0.40436700  0.96778300  0.40009800  1
  H  431  1  0.38636600  0.94786700  0.38259200  1
  H  432  1  0.38663100  0.94551200  0.41426800  1
  H  434  1  0.44326600  0.02179900  0.31004200  1
  H  436  1  0.31111000  0.97458900  0.44603000  1
  H  443  1  0.64332700  0.03592000  0.43089500  1
  H  450  1  0.57617400  0.95699700  0.34092100  1
  H  451  1  0.59063800  0.02802300  0.31889900  1
  H  452  1  0.68189800  0.97696600  0.40301300  1
  H  454  1  0.60516600  0.96004200  0.39594500  1
  H  455  1  0.62625600  0.94734900  0.37540500  1
  H  456  1  0.59564800  0.93902600  0.37406900  1
  H  458  1  0.59131000  0.02744200  0.39750300  1
  H  459  1  0.60901900  0.04892700  0.38161000  1
  H  460  1  0.60731900  0.04991300  0.41330000  1
  H  462  1  0.55895700  0.97491000  0.30337100  1
  H  464  1  0.68372800  0.02409000  0.44623400  1
  H  471  1  0.64838800  0.95519800  0.57140800  1
  H  478  1  0.57618800  0.03914600  0.65408200  1
  H  479  1  0.59120500  0.96957900  0.67997500  1
  H  480  1  0.68253000  0.01893400  0.59393000  1
  H  482  1  0.60660000  0.03379700  0.59987300  1
  H  483  1  0.62670300  0.04806700  0.62037700  1
  H  484  1  0.59587500  0.05562100  0.62034200  1
  H  486  1  0.59504800  0.96385400  0.60273200  1
  H  487  1  0.61348900  0.94474200  0.62070300  1
  H  488  1  0.61258900  0.94107300  0.58919000  1
  H  490  1  0.55870600  0.02274200  0.69257900  1
  H  492  1  0.68932800  0.96856200  0.55616400  1
  H  499  1  0.34539800  0.04414700  0.57166800  1
  H  506  1  0.42576600  0.96226400  0.64689200  1
  H  507  1  0.40535000  0.02761500  0.67937700  1
  H  508  1  0.31493000  0.97835000  0.59361100  1
  H  510  1  0.39317800  0.96936800  0.59419900  1
  H  511  1  0.37493300  0.95193400  0.61396900  1
  H  512  1  0.40624200  0.94688600  0.61249600  1
  H  514  1  0.40010000  0.03709400  0.60064400  1
  H  515  1  0.38176100  0.05452100  0.62033200  1
  H  516  1  0.38095500  0.05965400  0.58900800  1
  H  518  1  0.44309300  0.97588900  0.68536800  1
  H  520  1  0.30493600  0.02914900  0.55706200  1
  H  527  1  0.43083800  0.35172500  0.95981200  1
  H  534  1  0.34796500  0.42683700  0.03774000  1
  H  535  1  0.31902100  0.40578800  0.97091300  1
  H  536  1  0.40407300  0.31663800  0.02144400  1
  H  538  1  0.40199800  0.39635500  0.03271900  1
  H  539  1  0.38233600  0.37685300  0.04885400  1
  H  540  1  0.38216100  0.40808500  0.05463800  1
  H  542  1  0.39961600  0.40509400  0.96725300  1
  H  543  1  0.38188400  0.38715600  0.94748100  1
  H  544  1  0.41352300  0.38750400  0.94469900  1
  H  546  1  0.30998800  0.44336500  0.02255600  1
  H  548  1  0.44566900  0.31182200  0.97280400  1
  H  555  1  0.43083400  0.64330000  0.03705000  1
  H  562  1  0.34129900  0.57574300  0.95776000  1
  H  563  1  0.31896000  0.59083200  0.02856000  1
  H  564  1  0.40365200  0.68150400  0.97753400  1
  H  566  1  0.39639100  0.60459700  0.96083600  1
  H  567  1  0.37597700  0.62568600  0.94794200  1
  H  568  1  0.37456300  0.59503500  0.93978600  1
  H  570  1  0.39755000  0.59118700  0.02843500  1
  H  571  1  0.38150000  0.60903200  0.04968900  1
  H  572  1  0.41317500  0.60729600  0.05095200  1
  H  574  1  0.30366900  0.55869900  0.97560600  1
  H  576  1  0.44607100  0.68374000  0.02534300  1
  H  583  1  0.57036600  0.64799700  0.95690900  1
  H  590  1  0.65401000  0.57639700  0.04019900  1
  H  591  1  0.67932300  0.59096900  0.97032300  1
  H  592  1  0.59409000  0.68281200  0.01984900  1
  H  594  1  0.59976100  0.60678400  0.03510100  1
  H  595  1  0.62038600  0.62696800  0.04907800  1
  H  596  1  0.62040400  0.59618900  0.05682400  1
  H  598  1  0.60182300  0.59475600  0.96547100  1
  H  599  1  0.61955400  0.61302600  0.94597900  1
  H  600  1  0.58799300  0.61213300  0.94273500  1
  H  602  1  0.69230100  0.55879800  0.02367400  1
  H  604  1  0.55513200  0.68867500  0.96998100  1
  H  611  1  0.57094500  0.34496300  0.04256900  1
  H  618  1  0.64719800  0.42602500  0.96238600  1
  H  619  1  0.67891500  0.40504000  0.02793100  1
  H  620  1  0.59378700  0.31504700  0.97682300  1
  H  622  1  0.59442000  0.39338500  0.96859200  1
  H  623  1  0.61439200  0.37529900  0.95122400  1
  H  624  1  0.61297500  0.40665400  0.94644400  1
  H  626  1  0.60004200  0.39970100  0.03641100  1
  H  627  1  0.61950000  0.38119300  0.05391800  1
  H  628  1  0.58811200  0.38035300  0.05864300  1
  H  630  1  0.68549600  0.44322600  0.97658700  1
  H  632  1  0.55640000  0.30474300  0.02705700  1
  H  639  1  0.96149400  0.43049900  0.35572500  1
  H  646  1  0.04226600  0.34147100  0.42215600  1
  H  647  1  0.97148800  0.31856500  0.40784700  1
  H  648  1  0.02081700  0.40390400  0.31680700  1
  H  650  1  0.03837700  0.39660700  0.39345700  1
  H  651  1  0.05122800  0.37634300  0.37220000  1
  H  652  1  0.05972000  0.37495500  0.40276100  1
  H  654  1  0.97090200  0.39710800  0.40762900  1
  H  655  1  0.94959900  0.38094400  0.38994500  1
  H  656  1  0.94809600  0.41260400  0.39180200  1
  H  658  1  0.02483000  0.30355900  0.43933300  1
  H  660  1  0.97270200  0.44599900  0.31520100  1
  H  667  1  0.03851400  0.43087500  0.64762400  1
  H  674  1  0.96194500  0.34770900  0.57150900  1
  H  675  1  0.02868500  0.31911300  0.59329500  1
  H  676  1  0.97670600  0.40368900  0.68206900  1
  H  678  1  0.96626500  0.40167400  0.60217000  1
  H  679  1  0.95003400  0.38189800  0.62147600  1
  H  680  1  0.94458700  0.38172100  0.59018500  1
  H  682  1  0.03174100  0.39972800  0.59411700  1
  H  683  1  0.05146400  0.38208000  0.61219300  1
  H  684  1  0.05404800  0.41373900  0.61193700  1
  H  686  1  0.97761500  0.30986400  0.55505100  1
  H  688  1  0.02507200  0.44552000  0.68746500  1
  H  695  1  0.95530600  0.57081000  0.65346000  1
  H  702  1  0.03546900  0.64719300  0.57264000  1
  H  703  1  0.96998100  0.67885900  0.59388500  1
  H  704  1  0.02106900  0.59335500  0.68357300  1
  H  706  1  0.02942400  0.59440400  0.60523700  1
  H  707  1  0.04680100  0.61434200  0.62335300  1
  H  708  1  0.05154300  0.61300900  0.59198800  1
  H  710  1  0.96159800  0.60017900  0.59887000  1
  H  711  1  0.94408400  0.61952400  0.61748600  1
  H  712  1  0.93934400  0.58813300  0.61811700  1
  H  714  1  0.02102400  0.68550500  0.55542100  1
  H  716  1  0.97063500  0.55599100  0.69354000  1
  H  723  1  0.04078600  0.57047800  0.35009800  1
  H  730  1  0.95715200  0.65362300  0.42176300  1
  H  731  1  0.02707700  0.67914600  0.40781100  1
  H  732  1  0.97798600  0.59441700  0.31518600  1
  H  734  1  0.96253400  0.59960900  0.39102500  1
  H  735  1  0.94860100  0.62034800  0.37092500  1
  H  736  1  0.94071400  0.62012600  0.40166500  1
  H  738  1  0.03209500  0.60170800  0.40342600  1
  H  739  1  0.05164800  0.61955400  0.38533500  1
  H  740  1  0.05490400  0.58798900  0.38605200  1
  H  742  1  0.97349100  0.69184700  0.43961600  1
  H  744  1  0.02766900  0.55541200  0.30921800  1
  H  751  1  0.85428600  0.46265900  0.93058800  1
  H  758  1  0.92275400  0.54201900  0.84204700  1
  H  759  1  0.91020700  0.47057300  0.82020600  1
  H  760  1  0.81538400  0.52050000  0.90087100  1
  H  762  1  0.89215000  0.53887100  0.89621900  1
  H  763  1  0.87148000  0.55103200  0.87494700  1
  H  764  1  0.90196500  0.55989100  0.87447600  1
  H  766  1  0.90714700  0.47188900  0.89878500  1
  H  767  1  0.89038500  0.44990600  0.88255000  1
  H  768  1  0.89109700  0.44924100  0.91428400  1
  H  770  1  0.94125900  0.52397300  0.80492300  1
  H  772  1  0.81347300  0.47375100  0.94472600  1
  H  779  1  0.15356200  0.54417000  0.92834900  1
  H  786  1  0.07363300  0.46291700  0.85211400  1
  H  787  1  0.09614300  0.52752100  0.81952000  1
  H  788  1  0.18310200  0.47726900  0.90861700  1
  H  790  1  0.10524200  0.46972300  0.90538900  1
  H  791  1  0.12355600  0.45174900  0.88616900  1
  H  792  1  0.09212400  0.44736800  0.88697900  1
  H  794  1  0.09964600  0.53779600  0.89773900  1
  H  795  1  0.11898400  0.55456800  0.87844100  1
  H  796  1  0.11887500  0.56010700  0.90970400  1
  H  798  1  0.05716200  0.47676900  0.81332500  1
  H  800  1  0.19375800  0.52819700  0.94406800  1
  H  807  1  0.14251200  0.46250400  0.06993100  1
  H  814  1  0.07435600  0.54157600  0.15880900  1
  H  815  1  0.08732000  0.47024300  0.18078500  1
  H  816  1  0.18150700  0.52035400  0.09951000  1
  H  818  1  0.10467400  0.53840000  0.10448600  1
  H  819  1  0.12541700  0.55070600  0.12560400  1
  H  820  1  0.09489900  0.55944500  0.12622200  1
  H  822  1  0.08986400  0.47155300  0.10210500  1
  H  823  1  0.10676200  0.44959400  0.11823000  1
  H  824  1  0.10586500  0.44894200  0.08650000  1
  H  826  1  0.05608200  0.52359600  0.19601900  1
  H  828  1  0.18320700  0.47379300  0.05547400  1
  H  835  1  0.84483500  0.54374100  0.07029500  1
  H  842  1  0.92458600  0.46301800  0.14765700  1
  H  843  1  0.90167900  0.52775500  0.17970300  1
  H  844  1  0.81502400  0.47724900  0.09100100  1
  H  846  1  0.89370200  0.46966700  0.09390900  1
  H  847  1  0.87510800  0.45181200  0.11296600  1
  H  848  1  0.90654100  0.44736400  0.11258100  1
  H  850  1  0.89895100  0.53740000  0.10061300  1
  H  851  1  0.87978600  0.55440400  0.11987700  1
  H  852  1  0.87973900  0.55968700  0.08856500  1
  H  854  1  0.94051600  0.47680900  0.18653900  1
  H  856  1  0.80483500  0.52828500  0.05481600  1
  H  863  1  0.92731000  0.85105700  0.45654700  1
  H  870  1  0.84367700  0.92121100  0.54048800  1
  H  871  1  0.81738200  0.90652900  0.47098200  1
  H  872  1  0.90279700  0.81437500  0.51813300  1
  H  874  1  0.89809800  0.89136500  0.53447500  1
  H  875  1  0.87793500  0.87079800  0.54855500  1
  H  876  1  0.87764300  0.90150700  0.55659800  1
  H  878  1  0.89593400  0.90409300  0.46636100  1
  H  879  1  0.87816700  0.88644900  0.44633800  1
  H  880  1  0.90974500  0.88729400  0.44317000  1
  H  882  1  0.80526200  0.93868000  0.52481500  1
  H  884  1  0.94264900  0.81049100  0.46826300  1
  H  891  1  0.93156200  0.14590200  0.53804500  1
  H  898  1  0.84751400  0.07012100  0.46169800  1
  H  899  1  0.81988500  0.09141400  0.52899200  1
  H  900  1  0.90457100  0.17987800  0.47590600  1
  H  902  1  0.90161700  0.10068400  0.46553100  1
  H  903  1  0.88159300  0.12000200  0.44961800  1
  H  904  1  0.88139600  0.08872900  0.44409500  1
  H  906  1  0.89996900  0.09256900  0.53191000  1
  H  907  1  0.88255600  0.11101500  0.55149900  1
  H  908  1  0.91421500  0.11051000  0.55396600  1
  H  910  1  0.80977900  0.05372000  0.47768200  1
  H  912  1  0.94648000  0.18555600  0.52406300  1
  H  919  1  0.07220000  0.14874800  0.45585600  1
  H  926  1  0.15423400  0.07752500  0.54084000  1
  H  927  1  0.18074900  0.09147800  0.47127900  1
  H  928  1  0.09508400  0.18401600  0.51885600  1
  H  930  1  0.10026300  0.10818200  0.53465200  1
  H  931  1  0.12074200  0.12836000  0.54885300  1
  H  932  1  0.12048200  0.09763100  0.55679500  1
  H  934  1  0.10338900  0.09552400  0.46535500  1
  H  935  1  0.12145800  0.11351000  0.44590700  1
  H  936  1  0.08993900  0.11271000  0.44224500  1
  H  938  1  0.19285500  0.05966100  0.52484000  1
  H  940  1  0.05703900  0.18992700  0.46867600  1
  H  947  1  0.06559200  0.85064600  0.53770100  1
  H  954  1  0.14904000  0.92721700  0.46139700  1
  H  955  1  0.17700700  0.90542400  0.52839000  1
  H  956  1  0.09210800  0.81727400  0.47503500  1
  H  958  1  0.09502900  0.89650900  0.46518700  1
  H  959  1  0.11502200  0.87734900  0.44904600  1
  H  960  1  0.11514700  0.90866200  0.44376500  1
  H  962  1  0.09703800  0.90411500  0.53173800  1
  H  963  1  0.11459600  0.88551600  0.55105800  1
  H  964  1  0.08295300  0.88597600  0.55373500  1
  H  966  1  0.18675200  0.94366200  0.47741900  1
  H  968  1  0.05078000  0.81098800  0.52359600  1
  H  975  1  0.46271100  0.92942200  0.85488300  1
  H  982  1  0.54170000  0.84063700  0.92352900  1
  H  983  1  0.47045900  0.81859700  0.91017500  1
  H  984  1  0.52066900  0.89974000  0.81612900  1
  H  986  1  0.53858400  0.89505800  0.89336000  1
  H  987  1  0.55097500  0.87400800  0.87260100  1
  H  988  1  0.55961300  0.87331200  0.90314800  1
  H  990  1  0.47178600  0.89757900  0.90774900  1
  H  991  1  0.44988800  0.88132100  0.89090000  1
  H  992  1  0.44916700  0.91305600  0.89163200  1
  H  994  1  0.52383200  0.80340000  0.94155100  1
  H  996  1  0.47385000  0.94361000  0.81416400  1
  H  1003  1  0.54408000  0.92751200  0.15283100  1
  H  1010  1  0.46296700  0.85061300  0.07311100  1
  H  1011  1  0.52767200  0.81834500  0.09579400  1
  H  1012  1  0.47729100  0.90746800  0.18242100  1
  H  1014  1  0.46974900  0.90420100  0.10423900  1
  H  1015  1  0.45183700  0.88509400  0.12272800  1
  H  1016  1  0.44741300  0.88564300  0.09129500  1
  H  1018  1  0.53776800  0.89695300  0.09886100  1
  H  1019  1  0.55459300  0.87768400  0.11818000  1
  H  1020  1  0.56005100  0.90896500  0.11809700  1
  H  1022  1  0.47673900  0.81172800  0.05700800  1
  H  1024  1  0.52828900  0.94315900  0.19292200  1
  H  1031  1  0.46241400  0.06882200  0.14308800  1
  H  1038  1  0.54212500  0.15721800  0.07517100  1
  H  1039  1  0.47066100  0.17922300  0.08732200  1
  H  1040  1  0.52026200  0.09818300  0.18224600  1
  H  1042  1  0.53875900  0.10318400  0.10595300  1
  H  1043  1  0.55089500  0.12449800  0.12659800  1
  H  1044  1  0.55985800  0.12485000  0.09614300  1
  H  1046  1  0.47168500  0.10100900  0.09049700  1
  H  1047  1  0.44970100  0.11715700  0.10734200  1
  H  1048  1  0.44900500  0.08543000  0.10642100  1
  H  1050  1  0.52412200  0.19432400  0.05648300  1
  H  1052  1  0.47364300  0.05431100  0.18386300  1
  H  1059  1  0.54379300  0.06945300  0.84420900  1
  H  1066  1  0.46312600  0.14639900  0.92419800  1
  H  1067  1  0.52789400  0.17853400  0.90149800  1
  H  1068  1  0.47721700  0.09002300  0.81449500  1
  H  1070  1  0.46963100  0.09293100  0.89284000  1
  H  1071  1  0.45178700  0.11216300  0.87441700  1
  H  1072  1  0.44736900  0.11153500  0.90585100  1
  H  1074  1  0.53750400  0.09982400  0.89828900  1
  H  1075  1  0.55449100  0.11907200  0.87909000  1
  H  1076  1  0.55977000  0.08776100  0.87906700  1
  H  1078  1  0.47711600  0.18514300  0.94047400  1
  H  1080  1  0.52816500  0.05397800  0.80417100  1
  C  1  1  0.23486500  0.99955500  0.50174300  1
  C  2  1  0.22133200  0.02088500  0.49920800  1
  C  3  1  0.19598500  0.02054300  0.49980300  1
  C  4  1  0.18351300  0.99851200  0.50412100  1
  C  5  1  0.19732800  0.97696200  0.50736300  1
  C  6  1  0.22304300  0.97711500  0.50574800  1
  C  9  1  0.26036000  0.00165400  0.49956500  1
  C  10  1  0.27219100  0.00452800  0.47695700  1
  C  11  1  0.29789200  0.00625900  0.47675300  1
  C  12  1  0.31171000  0.00416700  0.49842900  1
  C  13  1  0.29922200  0.00086100  0.52061400  1
  C  14  1  0.27388300  0.00023600  0.52100700  1
  C  27  1  0.31114800  0.99642900  0.54274600  1
  C  28  1  0.30993900  0.00978100  0.45448100  1
  C  29  1  0.18405100  0.04245400  0.49423400  1
  C  30  1  0.18526200  0.95483900  0.51181100  1
  C  35  1  0.76105000  0.99809700  0.50156800  1
  C  36  1  0.77443400  0.97670800  0.49867300  1
  C  37  1  0.79978400  0.97689500  0.49911600  1
  C  38  1  0.81243300  0.99876200  0.50372600  1
  C  39  1  0.79878000  0.02035000  0.50735800  1
  C  40  1  0.77306000  0.02039900  0.50581800  1
  C  43  1  0.73551800  0.99625100  0.49943200  1
  C  44  1  0.72360300  0.99369200  0.47682200  1
  C  45  1  0.69787800  0.99229900  0.47664100  1
  C  46  1  0.68412200  0.99444200  0.49834800  1
  C  47  1  0.69668000  0.99745900  0.52053400  1
  C  48  1  0.72202900  0.99772000  0.52089800  1
  C  61  1  0.68484500  0.00190800  0.54271900  1
  C  62  1  0.68578100  0.98885300  0.45438100  1
  C  63  1  0.81155600  0.95501200  0.49313000  1
  C  64  1  0.81101900  0.04233800  0.51202400  1
  C  69  1  0.50122700  0.23486900  0.99609000  1
  C  70  1  0.49879300  0.22123400  0.01736300  1
  C  71  1  0.49953600  0.19588900  0.01693500  1
  C  72  1  0.50398300  0.18354000  0.99485500  1
  C  73  1  0.50698800  0.19746000  0.97334000  1
  C  74  1  0.50519200  0.22315600  0.97358900  1
  C  77  1  0.49919900  0.26036000  0.99837300  1
  C  78  1  0.47670500  0.27229100  0.00169300  1
  C  79  1  0.47669700  0.29795700  0.00390000  1
  C  80  1  0.49845300  0.31166300  0.00187200  1
  C  81  1  0.52051800  0.29907600  0.99819300  1
  C  82  1  0.52072400  0.27375600  0.99702400  1
  C  95  1  0.54274600  0.31092900  0.99408900  1
  C  96  1  0.45453500  0.31006200  0.00788700  1
  C  97  1  0.49422800  0.18384900  0.03886300  1
  C  98  1  0.51168900  0.18554000  0.95120000  1
  C  103  1  0.50070300  0.76164700  0.00143700  1
  C  104  1  0.49807000  0.77525800  0.98016200  1
  C  105  1  0.49867800  0.80061000  0.98056800  1
  C  106  1  0.50322000  0.81300600  0.00260000  1
  C  107  1  0.50641700  0.79912800  0.02411000  1
  C  108  1  0.50472000  0.77342400  0.02390300  1
  C  111  1  0.49895000  0.73611600  0.99921500  1
  C  112  1  0.47659100  0.72389700  0.99598800  1
  C  113  1  0.47685200  0.69820200  0.99405100  1
  C  114  1  0.49875600  0.68476100  0.99619500  1
  C  115  1  0.52068000  0.69762000  0.99976400  1
  C  116  1  0.52061000  0.72294500  0.00074200  1
  C  129  1  0.54303400  0.68609300  0.00407200  1
  C  130  1  0.45482000  0.68579900  0.99024500  1
  C  131  1  0.49328200  0.81264700  0.95866100  1
  C  132  1  0.51128700  0.81110200  0.04619000  1
  C  137  1  0.99587400  0.50075000  0.23694600  1
  C  138  1  0.01716400  0.49812400  0.22336600  1
  C  139  1  0.01680800  0.49878400  0.19801500  1
  C  140  1  0.99479400  0.50333200  0.18558900  1
  C  141  1  0.97325700  0.50649800  0.19943600  1
  C  142  1  0.97342800  0.50478700  0.22514200  1
  C  145  1  0.99809900  0.49899400  0.26247500  1
  C  146  1  0.00146900  0.47664900  0.27468100  1
  C  147  1  0.00363700  0.47693200  0.30035500  1
  C  148  1  0.00158800  0.49884400  0.31379800  1
  C  149  1  0.99788300  0.52075400  0.30095500  1
  C  150  1  0.99668000  0.52066400  0.27563700  1
  C  163  1  0.99370900  0.54312100  0.31250200  1
  C  164  1  0.00771900  0.45492800  0.31272000  1
  C  165  1  0.03875300  0.49344600  0.18601400  1
  C  166  1  0.95119500  0.51138000  0.18742600  1
  C  171  1  0.00131300  0.50085100  0.76395700  1
  C  172  1  0.98007600  0.49845300  0.77765600  1
  C  173  1  0.98058800  0.49918800  0.80300100  1
  C  174  1  0.00271000  0.50362400  0.81528000  1
  C  175  1  0.02418200  0.50660600  0.80129000  1
  C  176  1  0.02385600  0.50478700  0.77559900  1
  C  179  1  0.99897900  0.49890700  0.73846600  1
  C  180  1  0.99571200  0.47645000  0.72644700  1
  C  181  1  0.99372100  0.47651900  0.70076300  1
  C  182  1  0.99589200  0.49830800  0.68713500  1
  C  183  1  0.99953500  0.52032700  0.69981200  1
  C  184  1  0.00046700  0.52046600  0.72513900  1
  C  197  1  0.00383900  0.54257800  0.68807600  1
  C  198  1  0.98997800  0.45438700  0.68852500  1
  C  199  1  0.95869000  0.49394300  0.81513000  1
  C  200  1  0.04636600  0.51134100  0.81311600  1
  C  205  1  0.99996500  0.23592000  0.49686800  1
  C  206  1  0.02157100  0.22266100  0.49829400  1
  C  207  1  0.02148100  0.19732300  0.49770300  1
  C  208  1  0.99944400  0.18455000  0.49454700  1
  C  209  1  0.97760400  0.19809600  0.49237300  1
  C  210  1  0.97750500  0.22380900  0.49399600  1
  C  213  1  0.00184900  0.26142600  0.49910200  1
  C  214  1  0.00586000  0.27313600  0.52160000  1
  C  215  1  0.00748700  0.29884400  0.52187400  1
  C  216  1  0.00421200  0.31277200  0.50040500  1
  C  217  1  0.99978000  0.30041400  0.47833100  1
  C  218  1  0.99922900  0.27506500  0.47785000  1
  C  231  1  0.99425100  0.31248900  0.45648500  1
  C  232  1  0.01209100  0.31077400  0.54403500  1
  C  233  1  0.04377000  0.18573500  0.50218500  1
  C  234  1  0.95547000  0.18576000  0.48897100  1
  C  239  1  0.99777800  0.76004800  0.49722500  1
  C  240  1  0.97601900  0.77301500  0.49904900  1
  C  241  1  0.97573100  0.79833800  0.49825100  1
  C  242  1  0.99751300  0.81143000  0.49468400  1
  C  243  1  0.01950800  0.79819400  0.49218700  1
  C  244  1  0.02000100  0.77248500  0.49388400  1
  C  247  1  0.99629000  0.73449700  0.49941200  1
  C  248  1  0.99255100  0.72266600  0.52189700  1
  C  249  1  0.99122000  0.69694000  0.52210800  1
  C  250  1  0.99455600  0.68310900  0.50058900  1
  C  251  1  0.99877500  0.69556800  0.47852900  1
  C  252  1  0.99899000  0.72092800  0.47811600  1
  C  265  1  0.00440700  0.68362100  0.45663500  1
  C  266  1  0.98660300  0.68490700  0.54420600  1
  C  267  1  0.95333700  0.80964200  0.50286300  1
  C  268  1  0.04143600  0.81085300  0.48859000  1
  C  273  1  0.23565100  0.50130100  0.00253700  1
  C  274  1  0.22190900  0.50018500  0.98122300  1
  C  275  1  0.19656700  0.50089200  0.98184100  1
  C  276  1  0.18432500  0.50396400  0.00420300  1
  C  277  1  0.19835900  0.50563900  0.02577600  1
  C  278  1  0.22404900  0.50385300  0.02529900  1
  C  281  1  0.26111900  0.49926000  0.00003700  1
  C  282  1  0.27289800  0.47691400  0.99543000  1
  C  283  1  0.29856800  0.47685200  0.99324200  1
  C  284  1  0.31240600  0.49838600  0.99647300  1
  C  285  1  0.29997600  0.52030700  0.00141900  1
  C  286  1  0.27465300  0.52058700  0.00260000  1
  C  299  1  0.31196800  0.54221900  0.00679600  1
  C  300  1  0.31057200  0.45481400  0.98823600  1
  C  301  1  0.18440000  0.49687100  0.95973600  1
  C  302  1  0.18659300  0.50911400  0.04820500  1
  C  307  1  0.76039000  0.50102600  0.99747700  1
  C  308  1  0.77409100  0.49959800  0.01881100  1
  C  309  1  0.79943700  0.50012000  0.01822500  1
  C  310  1  0.81175300  0.50337700  0.99593700  1
  C  311  1  0.79777400  0.50541200  0.97436000  1
  C  312  1  0.77207200  0.50376100  0.97476800  1
  C  315  1  0.73489400  0.49902800  0.99985400  1
  C  316  1  0.72303000  0.47665800  0.00414600  1
  C  317  1  0.69733500  0.47660400  0.00608300  1
  C  318  1  0.68355800  0.49817700  0.00287200  1
  C  319  1  0.69604900  0.52012300  0.99818400  1
  C  320  1  0.72139100  0.52038300  0.99730900  1
  C  333  1  0.68410400  0.54204200  0.99265400  1
  C  334  1  0.68526600  0.45457100  0.01096300  1
  C  335  1  0.81155500  0.49579900  0.04029200  1
  C  336  1  0.80961800  0.50903500  0.95199400  1
  C  341  1  0.50105100  0.99609800  0.76068200  1
  C  342  1  0.49964400  0.01748900  0.77429300  1
  C  343  1  0.50022100  0.01702400  0.79963800  1
  C  344  1  0.50348800  0.99478700  0.81204700  1
  C  345  1  0.50547000  0.97314300  0.79816400  1
  C  346  1  0.50380000  0.97344300  0.77246000  1
  C  349  1  0.49903000  0.99841100  0.73518000  1
  C  350  1  0.47667900  0.00286000  0.72333800  1
  C  351  1  0.47664500  0.00500500  0.69766100  1
  C  352  1  0.49821800  0.00184000  0.68387000  1
  C  353  1  0.52014800  0.99703700  0.69634000  1
  C  354  1  0.52038600  0.99591900  0.72167200  1
  C  367  1  0.54207900  0.99165100  0.68436800  1
  C  368  1  0.45465700  0.01020100  0.68564400  1
  C  369  1  0.49593000  0.03916200  0.81163800  1
  C  370  1  0.50909200  0.95083800  0.81012300  1
  C  375  1  0.50111200  0.00109500  0.23595200  1
  C  376  1  0.49993300  0.97979800  0.22218100  1
  C  377  1  0.50057500  0.98046700  0.19684000  1
  C  378  1  0.50368000  0.00283500  0.18462200  1
  C  379  1  0.50545000  0.02437900  0.19868900  1
  C  380  1  0.50369400  0.02387000  0.22438100  1
  C  383  1  0.49908700  0.99859800  0.26142400  1
  C  384  1  0.47671700  0.99418100  0.27323200  1
  C  385  1  0.47664000  0.99218900  0.29891800  1
  C  386  1  0.49818600  0.99543200  0.31273800  1
  C  387  1  0.52013000  0.00021900  0.30028400  1
  C  388  1  0.52041500  0.00120100  0.27495000  1
  C  401  1  0.54203200  0.00568500  0.31227100  1
  C  402  1  0.45458000  0.98744100  0.31097400  1
  C  403  1  0.49645700  0.95840200  0.18463800  1
  C  404  1  0.50895500  0.04681500  0.18695400  1
  C  409  1  0.33101100  0.99168600  0.42098000  1
  C  410  1  0.32954600  0.00982300  0.40320600  1
  C  412  1  0.36494400  0.99527500  0.38335900  1
  C  413  1  0.36694000  0.97585900  0.40000800  1
  C  414  1  0.34953000  0.97437100  0.41859300  1
  C  416  1  0.38235800  0.00022300  0.36541700  1
  C  417  1  0.39691400  0.02134100  0.36531600  1
  C  418  1  0.41535900  0.02290200  0.34776500  1
  C  419  1  0.41961400  0.00413100  0.33107600  1
  C  420  1  0.40373800  0.98425500  0.33155200  1
  C  425  1  0.39422700  0.04080800  0.38357700  1
  C  429  1  0.38716800  0.95825400  0.39927000  1
  C  437  1  0.66502300  0.00658800  0.42053100  1
  C  438  1  0.66796600  0.98899400  0.40241100  1
  C  440  1  0.63256000  0.00230800  0.38161300  1
  C  441  1  0.62907300  0.02116400  0.39869100  1
  C  442  1  0.64577400  0.02303800  0.41789900  1
  C  444  1  0.61612500  0.99699900  0.36278200  1
  C  445  1  0.60383700  0.97456200  0.36052900  1
  C  446  1  0.58606700  0.97252100  0.34232500  1
  C  447  1  0.58025600  0.99208000  0.32711000  1
  C  448  1  0.59387900  0.01339200  0.32960900  1
  C  453  1  0.60789100  0.95408500  0.37738700  1
  C  457  1  0.60804000  0.03780100  0.39779400  1
  C  465  1  0.66809700  0.98656000  0.57943900  1
  C  466  1  0.66948200  0.00605000  0.59568100  1
  C  468  1  0.63435700  0.99267500  0.61702300  1
  C  469  1  0.63244800  0.97207900  0.60176600  1
  C  470  1  0.64975700  0.96933900  0.58320000  1
  C  472  1  0.61723900  0.99872300  0.63508000  1
  C  473  1  0.60451900  0.02103500  0.63592900  1
  C  474  1  0.58629000  0.02370100  0.65360800  1
  C  475  1  0.58045400  0.00487000  0.66969800  1
  C  476  1  0.59443500  0.98368200  0.66857500  1
  C  481  1  0.60858800  0.04074200  0.61817900  1
  C  485  1  0.61230800  0.95444200  0.60364100  1
  C  493  1  0.32736200  0.01174400  0.57957600  1
  C  494  1  0.32738700  0.99181200  0.59534000  1
  C  496  1  0.36264400  0.00618100  0.61567800  1
  C  497  1  0.36309100  0.02726200  0.60102100  1
  C  498  1  0.34501400  0.02971400  0.58317300  1
  C  500  1  0.38084900  0.00033700  0.63261000  1
  C  501  1  0.39547500  0.97929300  0.63111900  1
  C  502  1  0.41444600  0.97680700  0.64800200  1
  C  503  1  0.41920400  0.99464400  0.66554800  1
  C  504  1  0.40331100  0.01447300  0.66666667  1
  C  509  1  0.39235000  0.96082300  0.61190800  1
  C  513  1  0.38252000  0.04567900  0.60278600  1
  C  521  1  0.42095500  0.33162800  0.99045400  1
  C  522  1  0.40345500  0.33005600  0.00884800  1
  C  524  1  0.38335100  0.36549800  0.99477400  1
  C  525  1  0.39971900  0.36762500  0.97513400  1
  C  526  1  0.41830100  0.35024600  0.97328200  1
  C  528  1  0.36540400  0.38281200  0.00002500  1
  C  529  1  0.36548700  0.39726000  0.02121800  1
  C  530  1  0.34786800  0.41560900  0.02308400  1
  C  531  1  0.33093600  0.41987300  0.00453500  1
  C  532  1  0.33124000  0.40409300  0.98458000  1
  C  537  1  0.38399100  0.39455500  0.04045200  1
  C  541  1  0.39869700  0.38794200  0.95764600  1
  C  549  1  0.42081600  0.66481700  0.00746700  1
  C  550  1  0.40293200  0.66761800  0.98960800  1
  C  552  1  0.38197400  0.63229600  0.00290000  1
  C  553  1  0.39884600  0.62891200  0.02196200  1
  C  554  1  0.41801100  0.64564200  0.02397500  1
  C  556  1  0.36311100  0.61590100  0.99758000  1
  C  557  1  0.36091300  0.60347300  0.97521900  1
  C  558  1  0.34266300  0.58574100  0.97322100  1
  C  559  1  0.32734200  0.58011000  0.99275300  1
  C  560  1  0.32976400  0.59390800  0.01396200  1
  C  565  1  0.37786700  0.60735200  0.95478800  1
  C  569  1  0.39777400  0.60797400  0.03870600  1
  C  577  1  0.57890700  0.66800700  0.98795100  1
  C  578  1  0.59554400  0.66959700  0.00709900  1
  C  580  1  0.61659900  0.63430900  0.99372800  1
  C  581  1  0.60100500  0.63221900  0.97341000  1
  C  582  1  0.58238900  0.64950300  0.97083900  1
  C  584  1  0.63468700  0.61720000  0.99968200  1
  C  585  1  0.63571100  0.60461100  0.02206100  1
  C  586  1  0.65340600  0.58639500  0.02469100  1
  C  587  1  0.66934300  0.58043800  0.00576700  1
  C  588  1  0.66803200  0.59428000  0.98449500  1
  C  593  1  0.61812300  0.60881000  0.04188600  1
  C  597  1  0.60262200  0.61194000  0.95591200  1
  C  605  1  0.57927100  0.32721400  0.01011000  1
  C  606  1  0.59532200  0.32739500  0.99040900  1
  C  608  1  0.61547400  0.36251600  0.00536100  1
  C  609  1  0.60053400  0.36278400  0.02624400  1
  C  610  1  0.58264100  0.34469800  0.02828800  1
  C  612  1  0.63247100  0.38077800  0.99989300  1
  C  613  1  0.63122200  0.39559200  0.97896500  1
  C  614  1  0.64813400  0.41458100  0.97684500  1
  C  615  1  0.66547200  0.41917900  0.99492400  1
  C  616  1  0.66633400  0.40311600  0.01462700  1
  C  621  1  0.61222700  0.39263500  0.96024800  1
  C  625  1  0.60206900  0.38204200  0.04486000  1
  C  633  1  0.99093500  0.42079300  0.33387100  1
  C  634  1  0.00889300  0.40304900  0.33081700  1
  C  636  1  0.99614400  0.38188000  0.36621000  1
  C  637  1  0.97698000  0.39858300  0.36984300  1
  C  638  1  0.97465400  0.41779800  0.35320800  1
  C  640  1  0.00180800  0.36301700  0.38249100  1
  C  641  1  0.02432300  0.36100100  0.39467400  1
  C  642  1  0.02667200  0.34275100  0.41235800  1
  C  643  1  0.00735100  0.32722500  0.41814100  1
  C  644  1  0.98595600  0.32949700  0.40460900  1
  C  649  1  0.04456000  0.37814200  0.39060800  1
  C  653  1  0.96046100  0.39730500  0.39094700  1
  C  661  1  0.00774600  0.42076200  0.66740800  1
  C  662  1  0.98943400  0.40316100  0.66877200  1
  C  664  1  0.00397200  0.38320300  0.63343400  1
  C  665  1  0.02352500  0.39969900  0.63151400  1
  C  666  1  0.02511400  0.41824500  0.64895600  1
  C  668  1  0.99901100  0.36524900  0.61604200  1
  C  669  1  0.97798400  0.36522900  0.60135300  1
  C  670  1  0.97643600  0.34763500  0.58294800  1
  C  671  1  0.99515600  0.33085100  0.57884600  1
  C  672  1  0.01490800  0.33122400  0.59487600  1
  C  677  1  0.95861600  0.38362000  0.60386800  1
  C  681  1  0.04120000  0.39883200  0.61135200  1
  C  689  1  0.98777100  0.57895000  0.67129000  1
  C  690  1  0.00751900  0.59495000  0.67119700  1
  C  692  1  0.99265200  0.61531700  0.63616700  1
  C  693  1  0.97173500  0.60042600  0.63580000  1
  C  694  1  0.96963800  0.58244100  0.65378300  1
  C  696  1  0.99814000  0.63242400  0.61801800  1
  C  697  1  0.01902400  0.63120400  0.60314200  1
  C  698  1  0.02105600  0.64811400  0.58413900  1
  C  699  1  0.00294700  0.66544000  0.57962800  1
  C  700  1  0.98331600  0.66630500  0.59577600  1
  C  705  1  0.03775800  0.61221400  0.60602300  1
  C  709  1  0.95313500  0.60209400  0.61653400  1
  C  717  1  0.00983200  0.57917000  0.33002500  1
  C  718  1  0.99072500  0.59584500  0.32841500  1
  C  720  1  0.00400400  0.61673100  0.36383700  1
  C  721  1  0.02429900  0.60110600  0.36593100  1
  C  722  1  0.02691300  0.58256200  0.34857500  1
  C  724  1  0.99794000  0.63467600  0.38105800  1
  C  725  1  0.97548200  0.63557400  0.39351700  1
  C  726  1  0.97270200  0.65315000  0.41182300  1
  C  727  1  0.99157400  0.66905500  0.41802500  1
  C  728  1  0.01293500  0.66787500  0.40431100  1
  C  733  1  0.95571700  0.61797100  0.38909900  1
  C  737  1  0.04171900  0.60261000  0.38628300  1
  C  745  1  0.83229800  0.49141500  0.91924700  1
  C  746  1  0.82958500  0.50877500  0.90086000  1
  C  748  1  0.86592800  0.49604200  0.88136800  1
  C  749  1  0.86924800  0.47741100  0.89872000  1
  C  750  1  0.85198600  0.47537800  0.91740500  1
  C  752  1  0.88284100  0.50149800  0.86301500  1
  C  753  1  0.89482500  0.52411700  0.86097900  1
  C  754  1  0.91312600  0.52632000  0.84332900  1
  C  755  1  0.91970900  0.50675000  0.82844900  1
  C  756  1  0.90639500  0.48521800  0.83070800  1
  C  761  1  0.88989400  0.54464200  0.87754000  1
  C  765  1  0.89062600  0.46119700  0.89864800  1
  C  773  1  0.17107200  0.51124700  0.92152800  1
  C  774  1  0.17107900  0.49101200  0.90617000  1
  C  776  1  0.13688000  0.50585200  0.88440600  1
  C  777  1  0.13643200  0.52718600  0.89870400  1
  C  778  1  0.15397700  0.52954900  0.91708400  1
  C  780  1  0.11907200  0.50012200  0.86701600  1
  C  781  1  0.10399000  0.47938700  0.86834800  1
  C  782  1  0.08532400  0.47716800  0.85109100  1
  C  783  1  0.08131300  0.49497300  0.83333200  1
  C  784  1  0.09768100  0.51441500  0.83236300  1
  C  789  1  0.10628900  0.46101800  0.88777000  1
  C  793  1  0.11746500  0.54598000  0.89606400  1
  C  801  1  0.16451600  0.49128000  0.08119400  1
  C  802  1  0.16734000  0.50858900  0.09960900  1
  C  804  1  0.13115600  0.49574300  0.11931600  1
  C  805  1  0.12775300  0.47714100  0.10194900  1
  C  806  1  0.14488400  0.47518600  0.08313600  1
  C  808  1  0.11432900  0.50116600  0.13775200  1
  C  809  1  0.10226000  0.52374000  0.13978500  1
  C  810  1  0.08404500  0.52591300  0.15752600  1
  C  811  1  0.07762600  0.50636100  0.17250000  1
  C  812  1  0.09101600  0.48487600  0.17022500  1
  C  817  1  0.10701400  0.54423500  0.12313500  1
  C  821  1  0.10640500  0.46088800  0.10213900  1
  C  829  1  0.82721000  0.51094800  0.07748800  1
  C  830  1  0.82723500  0.49088200  0.09308600  1
  C  832  1  0.86166600  0.50575800  0.11445700  1
  C  833  1  0.86212400  0.52692800  0.09992900  1
  C  834  1  0.84445600  0.52918900  0.08164800  1
  C  836  1  0.87941900  0.50022100  0.13197000  1
  C  837  1  0.89451000  0.47948500  0.13091900  1
  C  838  1  0.91293300  0.47731600  0.14844200  1
  C  839  1  0.91670700  0.49515300  0.16622900  1
  C  840  1  0.90036400  0.51463700  0.16685000  1
  C  845  1  0.89241500  0.46103800  0.11155000  1
  C  849  1  0.88117300  0.54566800  0.10231600  1
  C  857  1  0.91848300  0.83014000  0.48692200  1
  C  858  1  0.90162300  0.82804100  0.50584300  1
  C  860  1  0.88083000  0.86377200  0.49334800  1
  C  861  1  0.89659800  0.86642400  0.47324800  1
  C  862  1  0.91519400  0.84917600  0.47034700  1
  C  864  1  0.86271700  0.88071700  0.49957100  1
  C  865  1  0.86193800  0.89322600  0.52198900  1
  C  866  1  0.84413000  0.91128000  0.52493400  1
  C  867  1  0.82784100  0.91714700  0.50627400  1
  C  868  1  0.82895700  0.90334600  0.48495200  1
  C  873  1  0.87986400  0.88905400  0.54151200  1
  C  877  1  0.89509200  0.88718600  0.45632000  1
  C  885  1  0.92156600  0.16541600  0.50707600  1
  C  886  1  0.90393600  0.16673900  0.48879400  1
  C  888  1  0.88372100  0.13168800  0.50371700  1
  C  889  1  0.90022500  0.12987500  0.52328000  1
  C  890  1  0.91891400  0.14718900  0.52465800  1
  C  892  1  0.86567800  0.11432300  0.49888000  1
  C  893  1  0.86533300  0.09978500  0.47774500  1
  C  894  1  0.84767600  0.08143100  0.47628800  1
  C  895  1  0.83113200  0.07720900  0.49519300  1
  C  896  1  0.83181900  0.09307200  0.51507100  1
  C  901  1  0.88345900  0.10237600  0.45813500  1
  C  905  1  0.89925700  0.10991500  0.54117900  1
  C  913  1  0.08044500  0.16902400  0.48680300  1
  C  914  1  0.09678300  0.17075600  0.50618200  1
  C  916  1  0.11793800  0.13532500  0.49338800  1
  C  917  1  0.10261800  0.13307400  0.47287700  1
  C  918  1  0.08408200  0.15037100  0.46989300  1
  C  920  1  0.13585000  0.11820300  0.49977100  1
  C  921  1  0.13642100  0.10575600  0.52224400  1
  C  922  1  0.15395800  0.08745600  0.52528000  1
  C  923  1  0.17015400  0.08130500  0.50664700  1
  C  924  1  0.16928600  0.09500100  0.48526400  1
  C  929  1  0.11851700  0.11016600  0.54173800  1
  C  933  1  0.10438700  0.11260100  0.45562200  1
  C  941  1  0.07534900  0.83142800  0.50647400  1
  C  942  1  0.09281200  0.83031700  0.48801700  1
  C  944  1  0.11310700  0.86526100  0.50308600  1
  C  945  1  0.09675200  0.86688200  0.52279500  1
  C  946  1  0.07811300  0.84951500  0.52418200  1
  C  948  1  0.13112300  0.88266900  0.49828900  1
  C  949  1  0.13135900  0.89737100  0.47726500  1
  C  950  1  0.14897100  0.91577600  0.47588600  1
  C  951  1  0.16557600  0.91988000  0.49476200  1
  C  952  1  0.16502500  0.90384000  0.51450000  1
  C  957  1  0.11316100  0.89490300  0.45770800  1
  C  961  1  0.09782700  0.88669000  0.54085600  1
  C  969  1  0.49154300  0.91811900  0.83296900  1
  C  970  1  0.50892300  0.89974200  0.83031000  1
  C  972  1  0.49607400  0.88020800  0.86659500  1
  C  973  1  0.47743500  0.89755500  0.86987000  1
  C  974  1  0.47545300  0.91625600  0.85261700  1
  C  976  1  0.50142600  0.86178900  0.88347200  1
  C  977  1  0.52394600  0.85974400  0.89563300  1
  C  978  1  0.52606200  0.84194500  0.91380200  1
  C  979  1  0.50651200  0.82690900  0.92009500  1
  C  980  1  0.48508100  0.82921900  0.90661700  1
  C  985  1  0.54444200  0.87642000  0.89099000  1
  C  989  1  0.46114800  0.89743800  0.89119000  1
  C  997  1  0.51117700  0.92059100  0.17035000  1
  C  998  1  0.49100100  0.90514800  0.17033700  1
  C  1000  1  0.50588500  0.88348800  0.13608600  1
  C  1001  1  0.52716200  0.89786300  0.13564600  1
  C  1002  1  0.52947500  0.91622500  0.15322300  1
  C  1004  1  0.50024100  0.86601300  0.11832700  1
  C  1005  1  0.47948500  0.86717200  0.10326400  1
  C  1006  1  0.47726200  0.84973700  0.08476200  1
  C  1007  1  0.49507200  0.83194900  0.08088500  1
  C  1008  1  0.51456400  0.83119900  0.09720800  1
  C  1013  1  0.46108000  0.88657300  0.10543600  1
  C  1017  1  0.54596000  0.89528500  0.11667700  1
  C  1025  1  0.49115800  0.07999600  0.16517100  1
  C  1026  1  0.50850600  0.09836000  0.16807200  1
  C  1028  1  0.49581500  0.11813200  0.13186600  1
  C  1029  1  0.47716400  0.10082500  0.12840400  1
  C  1030  1  0.47510900  0.08200500  0.14551400  1
  C  1032  1  0.50140800  0.13649700  0.11501400  1
  C  1033  1  0.52408600  0.13845000  0.10312200  1
  C  1034  1  0.52639600  0.15602300  0.08476200  1
  C  1035  1  0.50687600  0.17090000  0.07804000  1
  C  1036  1  0.48528300  0.16874000  0.09126900  1
  C  1041  1  0.54456000  0.12185900  0.10817200  1
  C  1045  1  0.46097500  0.10105100  0.10700800  1
  C  1053  1  0.51097600  0.07662000  0.82662200  1
  C  1054  1  0.49089300  0.09218600  0.82664800  1
  C  1056  1  0.50580400  0.11361800  0.86102400  1
  C  1057  1  0.52699300  0.09911400  0.86147100  1
  C  1058  1  0.52924800  0.08081400  0.84382500  1
  C  1060  1  0.50023600  0.13106500  0.87882900  1
  C  1061  1  0.47950800  0.12992000  0.89392700  1
  C  1062  1  0.47739200  0.14727800  0.91251300  1
  C  1063  1  0.49528300  0.16497600  0.91642700  1
  C  1064  1  0.51473200  0.16573800  0.90005400  1
  C  1069  1  0.46102900  0.11059500  0.89170300  1
  C  1073  1  0.54575300  0.10151300  0.88050000  1
  N  8  1  0.15884300  0.99831900  0.50522100  1
  N  15  1  0.33637000  0.00542000  0.49820700  1
  N  17  1  0.23623600  0.95635000  0.50788800  1
  N  18  1  0.25904400  0.00543300  0.45607300  1
  N  42  1  0.83711200  0.99877000  0.50465100  1
  N  49  1  0.65945300  0.99351600  0.49815000  1
  N  51  1  0.76004600  0.04125000  0.50822100  1
  N  52  1  0.73669700  0.99280900  0.45590300  1
  N  76  1  0.50556200  0.15889800  0.99457900  1
  N  83  1  0.49841100  0.33630000  0.00350400  1
  N  85  1  0.50711600  0.23643600  0.95286100  1
  N  86  1  0.45574800  0.25925800  0.00258300  1
  N  110  1  0.50468200  0.83765900  0.00283900  1
  N  117  1  0.49899000  0.66011200  0.99488000  1
  N  119  1  0.50677500  0.76019900  0.04465600  1
  N  120  1  0.45549400  0.73668800  0.99498000  1
  N  144  1  0.99459900  0.50485900  0.16094000  1
  N  151  1  0.00314500  0.49910000  0.33843400  1
  N  153  1  0.95266500  0.50684800  0.23834100  1
  N  154  1  0.00240500  0.45554600  0.26189300  1
  N  178  1  0.00307300  0.50518900  0.83992200  1
  N  185  1  0.99447300  0.49834600  0.66248300  1
  N  187  1  0.04455200  0.50666500  0.76225600  1
  N  188  1  0.99467900  0.45546100  0.73941400  1
  N  212  1  0.99952300  0.15987800  0.49362200  1
  N  219  1  0.00543300  0.33743700  0.50072400  1
  N  221  1  0.95648000  0.23672100  0.49298200  1
  N  222  1  0.00799700  0.25985000  0.54230800  1
  N  246  1  0.99707300  0.83610500  0.49393200  1
  N  253  1  0.99356600  0.65843700  0.50084700  1
  N  255  1  0.04119400  0.75988000  0.49254100  1
  N  256  1  0.99040500  0.73586200  0.54266300  1
  N  280  1  0.15969100  0.50557600  0.00469600  1
  N  287  1  0.33704400  0.49828000  0.99479800  1
  N  289  1  0.23740600  0.50437400  0.04606100  1
  N  290  1  0.25970500  0.45615000  0.99326500  1
  N  314  1  0.83640200  0.50476300  0.99552200  1
  N  321  1  0.65890900  0.49808100  0.00434800  1
  N  323  1  0.75878700  0.50453400  0.95396800  1
  N  324  1  0.73616500  0.45584900  0.00623700  1
  N  348  1  0.50498900  0.99448900  0.83669100  1
  N  355  1  0.49813200  0.00348000  0.65923200  1
  N  357  1  0.50457400  0.95259200  0.75926000  1
  N  358  1  0.45587200  0.00491500  0.73648200  1
  N  382  1  0.50519100  0.00336500  0.15998400  1
  N  389  1  0.49806500  0.99389200  0.33738700  1
  N  391  1  0.50427300  0.04461700  0.23775900  1
  N  392  1  0.45594300  0.99201200  0.26005900  1
  N  411  1  0.34639300  0.01110900  0.38561100  1
  N  421  1  0.38628100  0.98290700  0.34854600  1
  N  433  1  0.43878500  0.00567200  0.31556700  1
  N  435  1  0.31559600  0.99061100  0.44022600  1
  N  439  1  0.65182500  0.98738900  0.38418600  1
  N  449  1  0.61072500  0.01510700  0.34717900  1
  N  461  1  0.56120100  0.99036000  0.31152100  1
  N  463  1  0.67986700  0.00799600  0.44020400  1
  N  467  1  0.65279700  0.00840200  0.61333000  1
  N  477  1  0.61173100  0.98139200  0.65151800  1
  N  489  1  0.56118300  0.00707300  0.68494500  1
  N  491  1  0.68318100  0.98460100  0.56004200  1
  N  495  1  0.34484100  0.98969100  0.61225400  1
  N  505  1  0.38530600  0.01666100  0.65032500  1
  N  517  1  0.43870400  0.99225500  0.68053400  1
  N  519  1  0.31175500  0.01330200  0.56056100  1
  N  523  1  0.38585400  0.34686700  0.01047400  1
  N  533  1  0.34830200  0.38673200  0.98293700  1
  N  545  1  0.31532500  0.43893500  0.00635700  1
  N  547  1  0.44016300  0.31619800  0.98896300  1
  N  551  1  0.38472300  0.65147000  0.98789400  1
  N  561  1  0.34738300  0.61070000  0.01564000  1
  N  573  1  0.31168700  0.56110000  0.99110300  1
  N  575  1  0.44037000  0.67979200  0.00915000  1
  N  579  1  0.61321300  0.65291900  0.00931800  1
  N  589  1  0.65096500  0.61157400  0.98223800  1
  N  601  1  0.68463400  0.56120100  0.00801000  1
  N  603  1  0.55949000  0.68312500  0.98611600  1
  N  607  1  0.61227000  0.34485900  0.98867300  1
  N  617  1  0.64999100  0.38509300  0.01646600  1
  N  629  1  0.68050700  0.43868100  0.99286100  1
  N  631  1  0.56024000  0.31159300  0.01130100  1
  N  635  1  0.01092100  0.38480500  0.34688500  1
  N  645  1  0.98393600  0.34713400  0.38787100  1
  N  657  1  0.00931200  0.31156800  0.43710300  1
  N  659  1  0.98896500  0.44040100  0.31901200  1
  N  663  1  0.98807200  0.38557800  0.65191100  1
  N  673  1  0.01624200  0.34825500  0.61229200  1
  N  685  1  0.99371800  0.31534100  0.55966900  1
  N  687  1  0.00899800  0.43991200  0.68292700  1
  N  691  1  0.00931300  0.61198900  0.65382800  1
  N  701  1  0.98154500  0.64994100  0.61378500  1
  N  713  1  0.00481300  0.68035400  0.56002600  1
  N  715  1  0.98645000  0.55985600  0.68682000  1
  N  719  1  0.98847100  0.61344000  0.34516300  1
  N  729  1  0.01532600  0.65093600  0.38690900  1
  N  741  1  0.98918300  0.68417300  0.43738200  1
  N  743  1  0.01158100  0.55977000  0.31488900  1
  N  747  1  0.84627900  0.51056500  0.88315800  1
  N  757  1  0.88903400  0.48335400  0.84774800  1
  N  769  1  0.93910400  0.50866100  0.81333800  1
  N  771  1  0.81692900  0.48987400  0.93851300  1
  N  775  1  0.15414900  0.48900300  0.88871900  1
  N  785  1  0.11535700  0.51636900  0.84905900  1
  N  797  1  0.06192900  0.49303300  0.81814600  1
  N  799  1  0.18603400  0.51267800  0.94102600  1
  N  803  1  0.15076300  0.51031100  0.11742600  1
  N  813  1  0.10829300  0.48303500  0.15309500  1
  N  825  1  0.05829000  0.50824100  0.18769600  1
  N  827  1  0.17972100  0.48986500  0.06179700  1
  N  831  1  0.84426500  0.48896900  0.11045500  1
  N  841  1  0.88290700  0.51653900  0.14990800  1
  N  853  1  0.93577000  0.49311000  0.18183300  1
  N  855  1  0.81185200  0.51251600  0.05826900  1
  N  859  1  0.88398400  0.84470500  0.50841600  1
  N  869  1  0.84614700  0.88622000  0.48237100  1
  N  881  1  0.81233700  0.93618900  0.50888500  1
  N  883  1  0.93780900  0.81493200  0.48460900  1
  N  887  1  0.88622700  0.14999700  0.48763600  1
  N  897  1  0.84889900  0.11045300  0.51630100  1
  N  909  1  0.81550000  0.05812500  0.49375800  1
  N  911  1  0.94087500  0.18076000  0.50806500  1
  N  915  1  0.11437800  0.15405900  0.50878900  1
  N  925  1  0.15236300  0.11237400  0.48261700  1
  N  937  1  0.18518500  0.06192500  0.50915900  1
  N  939  1  0.06097500  0.18399800  0.48478200  1
  N  943  1  0.11048900  0.84709200  0.48686600  1
  N  953  1  0.14797800  0.88642300  0.51566200  1
  N  965  1  0.18111200  0.93905200  0.49346200  1
  N  967  1  0.05614900  0.81595400  0.50756900  1
  N  971  1  0.51066300  0.88202000  0.84699300  1
  N  981  1  0.48329100  0.84640000  0.88938200  1
  N  993  1  0.50838500  0.81154900  0.93932600  1
  N  995  1  0.48997300  0.93736400  0.81756400  1
  N  999  1  0.48904300  0.88771100  0.15338600  1
  N  1009  1  0.51651700  0.84805700  0.11473700  1
  N  1021  1  0.49303800  0.81650200  0.06170300  1
  N  1023  1  0.51266200  0.93998200  0.18547100  1
  N  1027  1  0.51032600  0.11618100  0.15151200  1
  N  1037  1  0.48331400  0.15176600  0.10868200  1
  N  1049  1  0.50884200  0.18580700  0.05849700  1
  N  1051  1  0.48973100  0.06053600  0.18027900  1
  N  1055  1  0.48898500  0.10957000  0.84366300  1
  N  1065  1  0.51658700  0.14894600  0.88245300  1
  N  1077  1  0.49337700  0.18032200  0.93570200  1
  N  1079  1  0.51245700  0.05730900  0.81138300  1
  O  31  1  0.32448400  0.97599700  0.54398300  1
  O  32  1  0.31934400  0.03198300  0.45064400  1
  O  33  1  0.16999500  0.04246200  0.47425100  1
  O  34  1  0.17448100  0.95252600  0.53359700  1
  O  65  1  0.67243300  0.02287900  0.54438100  1
  O  66  1  0.67712100  0.96642900  0.45011500  1
  O  67  1  0.82502000  0.95520000  0.47274700  1
  O  68  1  0.82191100  0.04427800  0.53379000  1
  O  99  1  0.54431600  0.32426400  0.97368100  1
  O  100  1  0.45117600  0.31935300  0.03021600  1
  O  101  1  0.47491400  0.16888800  0.03876700  1
  O  102  1  0.53392700  0.17577600  0.94867800  1
  O  133  1  0.54509900  0.67427800  0.02534800  1
  O  134  1  0.45096500  0.67711600  0.96775400  1
  O  135  1  0.47368600  0.82724100  0.95876200  1
  O  136  1  0.53356800  0.82079700  0.04856100  1
  O  167  1  0.97258800  0.54520700  0.32458900  1
  O  168  1  0.03032600  0.45123500  0.32116500  1
  O  169  1  0.03868700  0.47398400  0.17124400  1
  O  170  1  0.94883100  0.53370200  0.17781800  1
  O  201  1  0.02437300  0.54408200  0.67493100  1
  O  202  1  0.96775900  0.45083800  0.67904500  1
  O  203  1  0.95879800  0.47457500  0.83002500  1
  O  204  1  0.04886400  0.53354300  0.82296600  1
  O  235  1  0.97449700  0.32686600  0.45667500  1
  O  236  1  0.03396800  0.32138300  0.54627400  1
  O  237  1  0.04556400  0.17347000  0.52323300  1
  O  238  1  0.95179200  0.17589900  0.46693800  1
  O  269  1  0.02444900  0.66965100  0.45664800  1
  O  270  1  0.96453200  0.67475000  0.54663700  1
  O  271  1  0.95089200  0.81974800  0.52495700  1
  O  272  1  0.04473000  0.82091000  0.46658800  1
  O  303  1  0.32647500  0.54213100  0.02645300  1
  O  304  1  0.32095600  0.45287800  0.96622100  1
  O  305  1  0.17015500  0.47705800  0.95851900  1
  O  306  1  0.17841800  0.53167900  0.05268200  1
  O  337  1  0.66995800  0.54200600  0.97273600  1
  O  338  1  0.67529300  0.45230400  0.03313400  1
  O  339  1  0.82500300  0.47544100  0.04152000  1
  O  340  1  0.81775700  0.53165500  0.94773100  1
  O  371  1  0.54216700  0.97170800  0.67025900  1
  O  372  1  0.45264900  0.03247000  0.67583600  1
  O  373  1  0.47578900  0.04038200  0.82540900  1
  O  374  1  0.53177600  0.94644800  0.81801100  1
  O  405  1  0.54191400  0.02532400  0.32680100  1
  O  406  1  0.45240000  0.96548200  0.32142700  1
  O  407  1  0.47643400  0.95719600  0.17069000  1
  O  408  1  0.53148800  0.05122700  0.17865200  1
