# generated using pymatgen
data_H26C41(SN5)2
_symmetry_space_group_name_H-M   'P 1'
_cell_length_a   57.13300000
_cell_length_b   57.13300000
_cell_length_c   59.34540000
_cell_angle_alpha   90.00000000
_cell_angle_beta   90.00000000
_cell_angle_gamma   90.00000000
_symmetry_Int_Tables_number   1
_chemical_formula_structural   H26C41(SN5)2
_chemical_formula_sum   'H832 C1312 S64 N320'
_cell_volume   193714.04931558
_cell_formula_units_Z   32
loop_
 _symmetry_equiv_pos_site_id
 _symmetry_equiv_pos_as_xyz
  1  'x, y, z'
loop_
 _atom_site_type_symbol
 _atom_site_label
 _atom_site_symmetry_multiplicity
 _atom_site_fract_x
 _atom_site_fract_y
 _atom_site_fract_z
 _atom_site_occupancy
  H  26  1  0.19303700  0.24981200  0.15360100  1
  H  27  1  0.15449700  0.23965100  0.16422200  1
  H  28  1  0.20746700  0.17848200  0.13968800  1
  H  29  1  0.16884900  0.16840900  0.15044200  1
  H  30  1  0.14566300  0.15637800  0.18575200  1
  H  31  1  0.15226000  0.14868700  0.22416600  1
  H  32  1  0.13972100  0.21981300  0.23916400  1
  H  33  1  0.13230300  0.22742200  0.20060700  1
  H  34  1  0.09149100  0.20845600  0.18560000  1
  H  35  1  0.06439000  0.23799400  0.17775600  1
  H  36  1  0.10142000  0.25564400  0.11812700  1
  H  37  1  0.12909400  0.22595300  0.12656600  1
  H  38  1  0.13682800  0.18137000  0.11906000  1
  H  39  1  0.09898200  0.16470400  0.17803400  1
  H  40  1  0.08189700  0.13253100  0.15966500  1
  H  41  1  0.12006600  0.14845000  0.10051300  1
  H  44  1  0.14853600  0.16034800  0.26298900  1
  H  45  1  0.23032400  0.23845400  0.13747700  1
  H  47  1  0.06356500  0.27456500  0.12634500  1
  H  49  1  0.08347000  0.10464500  0.13051600  1
  H  75  1  0.80286700  0.54506000  0.15360600  1
  H  76  1  0.84141200  0.55522400  0.16421300  1
  H  77  1  0.78843400  0.61638800  0.13969300  1
  H  78  1  0.82705200  0.62645900  0.15043900  1
  H  79  1  0.85023200  0.63848900  0.18575700  1
  H  80  1  0.84364400  0.64617600  0.22417300  1
  H  81  1  0.85619800  0.57505300  0.23916100  1
  H  82  1  0.86360200  0.56744900  0.20059900  1
  H  83  1  0.90442600  0.58642400  0.18559800  1
  H  84  1  0.93151000  0.55686400  0.17778300  1
  H  85  1  0.89449000  0.53920500  0.11815300  1
  H  86  1  0.86683500  0.56891400  0.12656400  1
  H  87  1  0.85907400  0.61350900  0.11906100  1
  H  88  1  0.89691200  0.63018000  0.17803600  1
  H  89  1  0.91400200  0.66234600  0.15966500  1
  H  90  1  0.87583700  0.64642500  0.10051300  1
  H  93  1  0.84732100  0.63451600  0.26300300  1
  H  94  1  0.76558200  0.55642100  0.13745800  1
  H  96  1  0.93242600  0.52047700  0.12624700  1
  H  98  1  0.91243000  0.69023100  0.13051600  1
  H  124  1  0.64557400  0.09252100  0.15361200  1
  H  125  1  0.65573600  0.05397500  0.16421500  1
  H  126  1  0.71690200  0.10695300  0.13969800  1
  H  127  1  0.72697400  0.06833500  0.15044300  1
  H  128  1  0.73900400  0.04515600  0.18575800  1
  H  129  1  0.74669100  0.05174700  0.22417300  1
  H  130  1  0.67556600  0.03918600  0.23916300  1
  H  131  1  0.66796200  0.03178300  0.20060000  1
  H  132  1  0.68693900  0.99095600  0.18559700  1
  H  133  1  0.65737500  0.96387500  0.17778000  1
  H  134  1  0.63971900  0.00089400  0.11815500  1
  H  135  1  0.66943100  0.02854700  0.12656400  1
  H  136  1  0.71402000  0.03631300  0.11906100  1
  H  137  1  0.73069700  0.99847400  0.17803200  1
  H  138  1  0.76286200  0.98138700  0.15966200  1
  H  139  1  0.74693900  0.01955200  0.10050900  1
  H  142  1  0.73502900  0.04806100  0.26300300  1
  H  143  1  0.65693400  0.12980500  0.13746100  1
  H  145  1  0.62096100  0.96291400  0.12625300  1
  H  147  1  0.79074600  0.98297100  0.13052300  1
  H  173  1  0.35032300  0.70235000  0.15359800  1
  H  174  1  0.34016100  0.74089000  0.16421900  1
  H  175  1  0.27899100  0.68792400  0.13968000  1
  H  176  1  0.26892000  0.72653600  0.15045000  1
  H  177  1  0.25688600  0.74972600  0.18576000  1
  H  178  1  0.24920300  0.74313200  0.22417400  1
  H  179  1  0.32033100  0.75568600  0.23916300  1
  H  180  1  0.32793300  0.76308900  0.20059900  1
  H  181  1  0.30895800  0.80389800  0.18560700  1
  H  182  1  0.33850800  0.83099100  0.17778100  1
  H  183  1  0.35617100  0.79397700  0.11815400  1
  H  184  1  0.32647300  0.76630600  0.12657000  1
  H  185  1  0.28187600  0.75855400  0.11905700  1
  H  186  1  0.26521300  0.79639200  0.17803400  1
  H  187  1  0.23304900  0.81348900  0.15966600  1
  H  188  1  0.24896100  0.77532900  0.10050800  1
  H  191  1  0.26086800  0.74686800  0.26299800  1
  H  192  1  0.33896900  0.66505200  0.13750400  1
  H  194  1  0.37496500  0.83187800  0.12630400  1
  H  196  1  0.20516000  0.81191200  0.13052900  1
  H  222  1  0.80287200  0.24981400  0.95367400  1
  H  223  1  0.84141000  0.23964800  0.94304600  1
  H  224  1  0.78844400  0.17848200  0.96759600  1
  H  225  1  0.82705200  0.16840700  0.95682000  1
  H  226  1  0.85024200  0.15637300  0.92151100  1
  H  227  1  0.84364700  0.14868900  0.88309500  1
  H  228  1  0.85619100  0.21981700  0.86810000  1
  H  229  1  0.86360200  0.22742200  0.90666400  1
  H  230  1  0.90441200  0.20844500  0.92165900  1
  H  231  1  0.93151200  0.23798800  0.92948500  1
  H  232  1  0.89450700  0.25565400  0.98911700  1
  H  233  1  0.86682800  0.22596400  0.98069900  1
  H  234  1  0.85907100  0.18137100  0.98821100  1
  H  235  1  0.89690700  0.16471200  0.92922900  1
  H  236  1  0.91399700  0.13254600  0.94758900  1
  H  237  1  0.87584900  0.14845200  0.00675800  1
  H  240  1  0.84739400  0.16033700  0.84429900  1
  H  241  1  0.76556600  0.23845900  0.96976300  1
  H  243  1  0.93239600  0.27444600  0.98096600  1
  H  245  1  0.91250900  0.10469700  0.97674000  1
  H  271  1  0.19303200  0.54506500  0.95367000  1
  H  272  1  0.15449300  0.55522900  0.94304800  1
  H  273  1  0.20746000  0.61639500  0.96759100  1
  H  274  1  0.16885000  0.62647000  0.95682300  1
  H  275  1  0.14566900  0.63849900  0.92150900  1
  H  276  1  0.15225600  0.64618200  0.88309000  1
  H  277  1  0.13969600  0.57505500  0.86810200  1
  H  278  1  0.13230100  0.56745100  0.90666700  1
  H  279  1  0.09148800  0.58643100  0.92166100  1
  H  280  1  0.06438500  0.55689000  0.92948800  1
  H  281  1  0.10139500  0.53922200  0.98911700  1
  H  282  1  0.12907500  0.56891100  0.98069700  1
  H  283  1  0.13684300  0.61351200  0.98820400  1
  H  284  1  0.09899900  0.63017700  0.92922400  1
  H  285  1  0.08189700  0.66233200  0.94759700  1
  H  286  1  0.12005600  0.64642000  0.00675600  1
  H  289  1  0.14852000  0.63453300  0.84430000  1
  H  290  1  0.23033600  0.55641700  0.96976900  1
  H  292  1  0.06345100  0.52037500  0.98094500  1
  H  294  1  0.08339200  0.69017700  0.97676400  1
  H  320  1  0.35032100  0.09252100  0.95367000  1
  H  321  1  0.34015900  0.05398200  0.94305100  1
  H  322  1  0.27899100  0.10695200  0.96758700  1
  H  323  1  0.26892000  0.06833700  0.95682800  1
  H  324  1  0.25688800  0.04514800  0.92150400  1
  H  325  1  0.24921100  0.05173800  0.88308900  1
  H  326  1  0.32033700  0.03918200  0.86810200  1
  H  327  1  0.32793500  0.03178400  0.90666700  1
  H  328  1  0.30896100  0.99097900  0.92165600  1
  H  329  1  0.33850700  0.96387700  0.92948000  1
  H  330  1  0.35616900  0.00088200  0.98912000  1
  H  331  1  0.32647700  0.02856300  0.98069700  1
  H  332  1  0.28187900  0.03631800  0.98820900  1
  H  333  1  0.26521600  0.99847300  0.92923400  1
  H  334  1  0.23304900  0.98138200  0.94760400  1
  H  335  1  0.24896100  0.01955100  0.00675700  1
  H  338  1  0.26083900  0.04801700  0.84427200  1
  H  339  1  0.33896700  0.12981900  0.96978800  1
  H  341  1  0.37501800  0.96292800  0.98093100  1
  H  343  1  0.20516000  0.98295700  0.97674700  1
  H  369  1  0.64557600  0.70235200  0.95366000  1
  H  370  1  0.65574200  0.74089200  0.94304600  1
  H  371  1  0.71690400  0.68791600  0.96757900  1
  H  372  1  0.72697900  0.72653300  0.95683100  1
  H  373  1  0.73901200  0.74972800  0.92151800  1
  H  374  1  0.74670300  0.74312900  0.88310200  1
  H  375  1  0.67557800  0.75567200  0.86810300  1
  H  376  1  0.66796800  0.76308800  0.90666100  1
  H  377  1  0.68693200  0.80388900  0.92166300  1
  H  378  1  0.65738700  0.83098700  0.92950200  1
  H  379  1  0.63973900  0.79396800  0.98913700  1
  H  380  1  0.66943400  0.76629400  0.98070400  1
  H  381  1  0.71401800  0.75856100  0.98821100  1
  H  382  1  0.73068400  0.79640500  0.92923700  1
  H  383  1  0.76285100  0.81349500  0.94760900  1
  H  384  1  0.74693400  0.77532600  0.00676100  1
  H  387  1  0.73503700  0.74684100  0.84428000  1
  H  388  1  0.65693400  0.66506700  0.96981000  1
  H  390  1  0.62080700  0.83186100  0.98090900  1
  H  392  1  0.79074200  0.81191200  0.97675200  1
  H  418  1  0.80218600  0.54511600  0.95369600  1
  H  419  1  0.84029700  0.55544600  0.94272900  1
  H  420  1  0.78812200  0.61568600  0.97058300  1
  H  421  1  0.82600200  0.62636100  0.95747000  1
  H  422  1  0.84956700  0.63813200  0.92133800  1
  H  423  1  0.84356100  0.64608200  0.88294000  1
  H  424  1  0.85624200  0.57498100  0.86778800  1
  H  425  1  0.86361800  0.56719700  0.90636100  1
  H  426  1  0.90500600  0.58512600  0.92240600  1
  H  427  1  0.93249800  0.55662400  0.93328500  1
  H  428  1  0.89244400  0.54017600  0.99075800  1
  H  429  1  0.86532100  0.56932400  0.98047600  1
  H  430  1  0.85859300  0.61299800  0.98720600  1
  H  431  1  0.89661100  0.62957600  0.92818100  1
  H  432  1  0.91395000  0.66180300  0.94678400  1
  H  433  1  0.87586500  0.64530100  0.00592700  1
  H  436  1  0.84741200  0.63456500  0.84416400  1
  H  437  1  0.76746000  0.55410300  0.97302100  1
  H  439  1  0.92542500  0.51502800  0.98103600  1
  H  441  1  0.91588500  0.68725800  0.97939100  1
  H  467  1  0.19371600  0.24975900  0.95369900  1
  H  468  1  0.15560700  0.23942700  0.94272800  1
  H  469  1  0.20777800  0.17918900  0.97058500  1
  H  470  1  0.16989900  0.16851300  0.95746800  1
  H  471  1  0.14633800  0.15674700  0.92132900  1
  H  472  1  0.15233300  0.14879900  0.88293400  1
  H  473  1  0.13963800  0.21990100  0.86778800  1
  H  474  1  0.13228500  0.22767900  0.90636200  1
  H  475  1  0.09088600  0.20975100  0.92240900  1
  H  476  1  0.06338800  0.23824100  0.93330000  1
  H  477  1  0.10345200  0.25468800  0.99076300  1
  H  478  1  0.13057500  0.22555100  0.98047100  1
  H  479  1  0.13730300  0.18187700  0.98720500  1
  H  480  1  0.09929400  0.16529200  0.92817700  1
  H  481  1  0.08194900  0.13307100  0.94678200  1
  H  482  1  0.12003100  0.14957700  0.00592700  1
  H  485  1  0.14852400  0.16031500  0.84415200  1
  H  486  1  0.22844400  0.24077000  0.97301500  1
  H  488  1  0.07052500  0.27986800  0.98102700  1
  H  490  1  0.08001400  0.10761700  0.97939300  1
  H  516  1  0.35027600  0.70168400  0.95369600  1
  H  517  1  0.33994500  0.73979300  0.94272600  1
  H  518  1  0.27970300  0.68761300  0.97057300  1
  H  519  1  0.26902700  0.72549500  0.95745800  1
  H  520  1  0.25725900  0.74905700  0.92132700  1
  H  521  1  0.24931100  0.74305400  0.88293400  1
  H  522  1  0.32041400  0.75575000  0.86778500  1
  H  523  1  0.32819400  0.76310900  0.90635700  1
  H  524  1  0.31026500  0.80450900  0.92240600  1
  H  525  1  0.33876600  0.83200100  0.93329100  1
  H  526  1  0.35520400  0.79194100  0.99076000  1
  H  527  1  0.32606400  0.76482200  0.98046900  1
  H  528  1  0.28242000  0.75808400  0.98718600  1
  H  529  1  0.26581000  0.79611200  0.92817400  1
  H  530  1  0.23357200  0.81343700  0.94678900  1
  H  531  1  0.25010200  0.77530100  0.00590100  1
  H  534  1  0.26083000  0.74687100  0.84415400  1
  H  535  1  0.34127900  0.66695600  0.97301500  1
  H  537  1  0.38037600  0.82486600  0.98104100  1
  H  539  1  0.20812700  0.81539000  0.97947000  1
  H  565  1  0.64562100  0.09318800  0.95368400  1
  H  566  1  0.65595500  0.05507600  0.94272600  1
  H  567  1  0.71619200  0.10726300  0.97056800  1
  H  568  1  0.72687000  0.06937900  0.95746700  1
  H  569  1  0.73865200  0.04580200  0.92133100  1
  H  570  1  0.74659500  0.05181300  0.88293700  1
  H  571  1  0.67549000  0.03912800  0.86778700  1
  H  572  1  0.66771200  0.03176100  0.90636100  1
  H  573  1  0.68563000  0.99036300  0.92240200  1
  H  574  1  0.65714000  0.96286400  0.93330600  1
  H  575  1  0.64070000  0.00294500  0.99076000  1
  H  576  1  0.66983700  0.03006200  0.98046300  1
  H  577  1  0.71348200  0.03679600  0.98719300  1
  H  578  1  0.73008400  0.99876100  0.92818100  1
  H  579  1  0.76233300  0.98145200  0.94678700  1
  H  580  1  0.74581200  0.01958800  0.00590200  1
  H  583  1  0.73507400  0.04794400  0.84416600  1
  H  584  1  0.65461300  0.12791600  0.97300500  1
  H  586  1  0.61552300  0.97003100  0.98104100  1
  H  588  1  0.78776500  0.97947400  0.97946500  1
  H  614  1  0.19371300  0.54511400  0.15357700  1
  H  615  1  0.15560200  0.55544400  0.16454000  1
  H  616  1  0.20778000  0.61568100  0.13668800  1
  H  617  1  0.16989900  0.62635900  0.14979700  1
  H  618  1  0.14632800  0.63813700  0.18593700  1
  H  619  1  0.15233200  0.64608900  0.22433400  1
  H  620  1  0.13964500  0.57498600  0.23948600  1
  H  621  1  0.13228100  0.56720100  0.20091400  1
  H  622  1  0.09088100  0.58512100  0.18486500  1
  H  623  1  0.06337800  0.55663300  0.17396600  1
  H  624  1  0.10345300  0.54018700  0.11651100  1
  H  625  1  0.13057400  0.56932600  0.12680500  1
  H  626  1  0.13731100  0.61299200  0.12006900  1
  H  627  1  0.09929400  0.62957300  0.17909700  1
  H  628  1  0.08194700  0.66179600  0.16049100  1
  H  629  1  0.12003700  0.64528900  0.10135000  1
  H  632  1  0.14851000  0.63456800  0.26312400  1
  H  633  1  0.22843700  0.55410300  0.13424400  1
  H  635  1  0.07052200  0.51501900  0.12623000  1
  H  637  1  0.08000900  0.68725400  0.12786000  1
  H  663  1  0.80218800  0.24976300  0.15357300  1
  H  664  1  0.84030000  0.23943400  0.16453200  1
  H  665  1  0.78812000  0.17919200  0.13669000  1
  H  666  1  0.82600200  0.16851600  0.14980400  1
  H  667  1  0.84957000  0.15673800  0.18593900  1
  H  668  1  0.84357000  0.14878800  0.22433800  1
  H  669  1  0.85627000  0.21989000  0.23948600  1
  H  670  1  0.86362000  0.22767600  0.20091400  1
  H  671  1  0.90501400  0.20975300  0.18486700  1
  H  672  1  0.93250500  0.23825500  0.17398200  1
  H  673  1  0.89244200  0.25469200  0.11651400  1
  H  674  1  0.86532500  0.22554700  0.12680400  1
  H  675  1  0.85858900  0.18191400  0.12008900  1
  H  676  1  0.89662300  0.16530400  0.17910400  1
  H  677  1  0.91393700  0.13305600  0.16049300  1
  H  678  1  0.87579500  0.14958700  0.10138400  1
  H  681  1  0.84735900  0.16031000  0.26312900  1
  H  682  1  0.76746900  0.24076800  0.13423400  1
  H  684  1  0.92542100  0.27983100  0.12620100  1
  H  686  1  0.91591900  0.10762100  0.12779100  1
  H  712  1  0.64562700  0.70167700  0.15356700  1
  H  713  1  0.65595500  0.73978800  0.16453100  1
  H  714  1  0.71619700  0.68761500  0.13668100  1
  H  715  1  0.72687400  0.72549300  0.14979600  1
  H  716  1  0.73864800  0.74905700  0.18593900  1
  H  717  1  0.74659600  0.74305700  0.22433900  1
  H  718  1  0.67549400  0.75575900  0.23948500  1
  H  719  1  0.66771200  0.76310900  0.20091000  1
  H  720  1  0.68563300  0.80450200  0.18486900  1
  H  721  1  0.65712600  0.83199200  0.17399000  1
  H  722  1  0.64069300  0.79193600  0.11651600  1
  H  723  1  0.66983700  0.76481700  0.12680400  1
  H  724  1  0.71348600  0.75807800  0.12007700  1
  H  725  1  0.73008700  0.79610700  0.17909400  1
  H  726  1  0.76233300  0.81342100  0.16048600  1
  H  727  1  0.74581400  0.77529600  0.10136700  1
  H  730  1  0.73507600  0.74685000  0.26313300  1
  H  731  1  0.65461800  0.66695100  0.13424600  1
  H  733  1  0.61555100  0.82490800  0.12621400  1
  H  735  1  0.78777000  0.81538500  0.12782200  1
  H  761  1  0.35027400  0.09319900  0.15357100  1
  H  762  1  0.33994000  0.05509000  0.16454400  1
  H  763  1  0.27970300  0.10726300  0.13668300  1
  H  764  1  0.26902700  0.06938500  0.14980200  1
  H  765  1  0.25725200  0.04580700  0.18593500  1
  H  766  1  0.24930100  0.05181700  0.22433100  1
  H  767  1  0.32040300  0.03913900  0.23948600  1
  H  768  1  0.32818900  0.03176300  0.20091700  1
  H  769  1  0.31026500  0.99038000  0.18486700  1
  H  770  1  0.33876600  0.96288800  0.17398200  1
  H  771  1  0.35521000  0.00294800  0.11651200  1
  H  772  1  0.32606500  0.03006900  0.12679900  1
  H  773  1  0.28240900  0.03679500  0.12007800  1
  H  774  1  0.26580800  0.99877300  0.17909900  1
  H  775  1  0.23357400  0.98144300  0.16048700  1
  H  776  1  0.25009700  0.01955600  0.10136200  1
  H  779  1  0.26081400  0.04798100  0.26311100  1
  H  780  1  0.34128300  0.12792600  0.13424700  1
  H  782  1  0.38035800  0.96998000  0.12622800  1
  H  784  1  0.20813200  0.97948600  0.12782600  1
  H  810  1  0.69302800  0.74966800  0.65355600  1
  H  811  1  0.65450400  0.73950100  0.66405500  1
  H  812  1  0.70762800  0.67838000  0.63965900  1
  H  813  1  0.66896500  0.66826900  0.65044200  1
  H  814  1  0.64584900  0.65630500  0.68691800  1
  H  815  1  0.65153600  0.65025800  0.72616600  1
  H  816  1  0.63680900  0.72197500  0.73760100  1
  H  817  1  0.63194100  0.72782400  0.69893300  1
  H  818  1  0.59131700  0.70823500  0.68532700  1
  H  819  1  0.56443500  0.73797600  0.67772300  1
  H  820  1  0.60146100  0.75569100  0.61811600  1
  H  821  1  0.62911800  0.72593800  0.62645200  1
  H  822  1  0.63683300  0.68125100  0.61898900  1
  H  823  1  0.59903000  0.66457400  0.67800400  1
  H  824  1  0.58185100  0.63247000  0.65962900  1
  H  825  1  0.62000900  0.64837300  0.60043800  1
  H  828  1  0.65759200  0.66755400  0.76378000  1
  H  829  1  0.73024300  0.73861300  0.63794900  1
  H  831  1  0.56354100  0.77459400  0.62635700  1
  H  833  1  0.58343100  0.60458600  0.63048900  1
  H  859  1  0.30290700  0.04510500  0.65360100  1
  H  860  1  0.34147300  0.05532300  0.66407200  1
  H  861  1  0.28836000  0.11641200  0.63968800  1
  H  862  1  0.32696500  0.12655800  0.65044400  1
  H  863  1  0.35005300  0.13855800  0.68693500  1
  H  864  1  0.34437000  0.14458900  0.72618800  1
  H  865  1  0.35910400  0.07287200  0.73759300  1
  H  866  1  0.36397200  0.06704100  0.69892400  1
  H  867  1  0.40460700  0.08664300  0.68532400  1
  H  868  1  0.43146500  0.05688000  0.67775000  1
  H  869  1  0.39445000  0.03915500  0.61813900  1
  H  870  1  0.36681600  0.06892900  0.62644800  1
  H  871  1  0.35906900  0.11362600  0.61899000  1
  H  872  1  0.39687000  0.13030800  0.67800300  1
  H  873  1  0.41405000  0.16240800  0.65962700  1
  H  874  1  0.37589100  0.14650300  0.60043600  1
  H  877  1  0.33829100  0.12723400  0.76386100  1
  H  878  1  0.26559200  0.05641400  0.63746700  1
  H  880  1  0.43241900  0.02046800  0.62625100  1
  H  882  1  0.41246900  0.19029100  0.63048900  1
  H  908  1  0.14562000  0.59248100  0.65360600  1
  H  909  1  0.15583800  0.55391300  0.66407400  1
  H  910  1  0.21692500  0.60702700  0.63969300  1
  H  911  1  0.22707200  0.56842100  0.65044700  1
  H  912  1  0.23907700  0.54532900  0.68692500  1
  H  913  1  0.24511000  0.55103000  0.72617800  1
  H  914  1  0.17338900  0.53629100  0.73758600  1
  H  915  1  0.16756100  0.53140900  0.69892100  1
  H  916  1  0.18715800  0.49077200  0.68532100  1
  H  917  1  0.15738900  0.46391900  0.67774300  1
  H  918  1  0.13967000  0.50093600  0.61813900  1
  H  919  1  0.16944600  0.52856700  0.62644700  1
  H  920  1  0.21413700  0.53631700  0.61898700  1
  H  921  1  0.23082300  0.49851200  0.67799600  1
  H  922  1  0.26292500  0.48133800  0.65962200  1
  H  923  1  0.24701800  0.51949600  0.60043100  1
  H  926  1  0.22776700  0.55703700  0.76386100  1
  H  927  1  0.15692800  0.62979500  0.63747000  1
  H  929  1  0.12095000  0.46292300  0.62625500  1
  H  931  1  0.29080700  0.48293300  0.63049600  1
  H  957  1  0.85027500  0.20239300  0.65359300  1
  H  958  1  0.84005900  0.24095200  0.66407900  1
  H  959  1  0.77896800  0.18784900  0.63967400  1
  H  960  1  0.76882200  0.22644900  0.65045500  1
  H  961  1  0.75681300  0.24954700  0.68692800  1
  H  962  1  0.75078300  0.24385500  0.72618500  1
  H  963  1  0.82250900  0.25859000  0.73758300  1
  H  964  1  0.82833700  0.26345700  0.69891700  1
  H  965  1  0.80873900  0.30408200  0.68532900  1
  H  966  1  0.83849400  0.33094500  0.67774500  1
  H  967  1  0.85621900  0.29393300  0.61813900  1
  H  968  1  0.82645700  0.26628700  0.62645300  1
  H  969  1  0.78175600  0.25854900  0.61898500  1
  H  970  1  0.76508500  0.29635400  0.67799900  1
  H  971  1  0.73298600  0.31353700  0.65962900  1
  H  972  1  0.74888000  0.27538200  0.60043100  1
  H  975  1  0.76813700  0.23783600  0.76386100  1
  H  976  1  0.83897500  0.16506300  0.63751200  1
  H  978  1  0.87497600  0.33186800  0.62630500  1
  H  980  1  0.70510000  0.31195400  0.63049900  1
  H  1006  1  0.30291400  0.74976800  0.45368000  1
  H  1007  1  0.34147500  0.73955000  0.44319200  1
  H  1008  1  0.28837100  0.67845900  0.46760000  1
  H  1009  1  0.32696500  0.66830900  0.45681400  1
  H  1010  1  0.35005200  0.65631400  0.42033500  1
  H  1011  1  0.34439100  0.65026800  0.38108500  1
  H  1012  1  0.35910600  0.72198700  0.36966700  1
  H  1013  1  0.36395900  0.72783100  0.40833400  1
  H  1014  1  0.40459600  0.70822400  0.42193000  1
  H  1015  1  0.43146900  0.73798100  0.42950600  1
  H  1016  1  0.39446700  0.75571500  0.48911800  1
  H  1017  1  0.36682100  0.72595000  0.48081300  1
  H  1018  1  0.35906700  0.68125400  0.48828100  1
  H  1019  1  0.39685800  0.66458100  0.42925900  1
  H  1020  1  0.41404300  0.63248400  0.44762400  1
  H  1021  1  0.37590300  0.64837500  0.50683300  1
  H  1024  1  0.33820500  0.66764200  0.34349800  1
  H  1025  1  0.26557700  0.73846600  0.46975200  1
  H  1027  1  0.43244000  0.77438800  0.48100800  1
  H  1029  1  0.41254800  0.60463800  0.47676700  1
  H  1055  1  0.69299200  0.04510900  0.45367700  1
  H  1056  1  0.65443200  0.05532800  0.44318900  1
  H  1057  1  0.70753500  0.11641800  0.46759700  1
  H  1058  1  0.66893700  0.12656700  0.45681800  1
  H  1059  1  0.64584700  0.13856500  0.42034500  1
  H  1060  1  0.65153200  0.14461900  0.38109600  1
  H  1061  1  0.63680200  0.07289800  0.36965700  1
  H  1062  1  0.63193800  0.06704800  0.40832500  1
  H  1063  1  0.59130800  0.08664900  0.42193400  1
  H  1064  1  0.56442800  0.05690700  0.42952300  1
  H  1065  1  0.60143700  0.03917400  0.48913200  1
  H  1066  1  0.62909300  0.06892700  0.48081300  1
  H  1067  1  0.63684200  0.11362300  0.48827600  1
  H  1068  1  0.59904200  0.13030300  0.42925500  1
  H  1069  1  0.58185100  0.16239300  0.44763400  1
  H  1070  1  0.61999900  0.14649400  0.50683300  1
  H  1073  1  0.65762300  0.12728500  0.34342000  1
  H  1074  1  0.73032600  0.05641200  0.46976000  1
  H  1076  1  0.56346100  0.02036300  0.48094400  1
  H  1078  1  0.58335300  0.19023700  0.47679100  1
  H  1104  1  0.85027700  0.59248100  0.45367700  1
  H  1105  1  0.84005900  0.55392100  0.44319100  1
  H  1106  1  0.77896800  0.60702700  0.46759300  1
  H  1107  1  0.76882200  0.56842400  0.45682400  1
  H  1108  1  0.75682000  0.54533100  0.42034800  1
  H  1109  1  0.75076400  0.55100900  0.38110100  1
  H  1110  1  0.82248200  0.53629100  0.36965800  1
  H  1111  1  0.82833500  0.53142500  0.40832500  1
  H  1112  1  0.80874600  0.49080200  0.42192500  1
  H  1113  1  0.83849100  0.46392300  0.42951500  1
  H  1114  1  0.85621600  0.50092600  0.48913400  1
  H  1115  1  0.82646100  0.52858200  0.48081100  1
  H  1116  1  0.78176300  0.53632400  0.48827800  1
  H  1117  1  0.76508700  0.49851900  0.42926500  1
  H  1118  1  0.73298600  0.48133500  0.44764100  1
  H  1119  1  0.74888400  0.51949600  0.50683200  1
  H  1122  1  0.76809000  0.55712300  0.34347600  1
  H  1123  1  0.83897400  0.62980900  0.46977900  1
  H  1125  1  0.87502800  0.46293900  0.48092900  1
  H  1127  1  0.70510000  0.48291900  0.47677400  1
  H  1153  1  0.14562600  0.20238900  0.45367200  1
  H  1154  1  0.15584600  0.24094600  0.44318400  1
  H  1155  1  0.21693200  0.18784200  0.46759500  1
  H  1156  1  0.22708100  0.22644500  0.45682600  1
  H  1157  1  0.23908400  0.24954200  0.42035800  1
  H  1158  1  0.24513500  0.24385900  0.38111000  1
  H  1159  1  0.17342300  0.25859300  0.36966700  1
  H  1160  1  0.16756500  0.26345700  0.40833200  1
  H  1161  1  0.18715100  0.30406600  0.42193500  1
  H  1162  1  0.15740400  0.33094000  0.42953500  1
  H  1163  1  0.13969100  0.29392300  0.48915000  1
  H  1164  1  0.16944900  0.26627000  0.48081900  1
  H  1165  1  0.21413400  0.25855500  0.48828300  1
  H  1166  1  0.23081400  0.29635900  0.42926900  1
  H  1167  1  0.26291500  0.31354000  0.44764600  1
  H  1168  1  0.24701300  0.27538000  0.50683700  1
  H  1171  1  0.22782800  0.23779900  0.34348400  1
  H  1172  1  0.15692600  0.16506800  0.46977100  1
  H  1174  1  0.12079700  0.33185000  0.48090700  1
  H  1176  1  0.29080200  0.31195100  0.47677900  1
  H  1202  1  0.30222500  0.04515800  0.45370000  1
  H  1203  1  0.34035800  0.05555000  0.44285400  1
  H  1204  1  0.28804400  0.11570400  0.47060000  1
  H  1205  1  0.32590800  0.12645700  0.45748500  1
  H  1206  1  0.34942300  0.13820000  0.42016800  1
  H  1207  1  0.34430200  0.14450900  0.38094100  1
  H  1208  1  0.35921800  0.07280200  0.36934800  1
  H  1209  1  0.36402100  0.06677900  0.40805400  1
  H  1210  1  0.40513500  0.08532500  0.42264300  1
  H  1211  1  0.43244200  0.05661800  0.43329300  1
  H  1212  1  0.39240400  0.04012200  0.49076600  1
  H  1213  1  0.36530700  0.06934900  0.48059900  1
  H  1214  1  0.35858300  0.11312100  0.48727300  1
  H  1215  1  0.39656200  0.12971200  0.42821200  1
  H  1216  1  0.41399500  0.16186600  0.44682000  1
  H  1217  1  0.37593000  0.14537100  0.50600400  1
  H  1220  1  0.33830500  0.12732400  0.34337700  1
  H  1221  1  0.26746400  0.05410100  0.47301300  1
  H  1223  1  0.42543000  0.01503300  0.48104400  1
  H  1225  1  0.41593500  0.18730500  0.47941400  1
  H  1251  1  0.69367600  0.74971500  0.45370200  1
  H  1252  1  0.65554700  0.73932400  0.44284900  1
  H  1253  1  0.70785300  0.67916900  0.47060500  1
  H  1254  1  0.66999300  0.66841700  0.45748300  1
  H  1255  1  0.64647600  0.65668000  0.42014600  1
  H  1256  1  0.65159000  0.65038800  0.38091400  1
  H  1257  1  0.63667200  0.72209700  0.36935200  1
  H  1258  1  0.63188000  0.72810400  0.40805900  1
  H  1259  1  0.59075300  0.70955500  0.42264800  1
  H  1260  1  0.56343300  0.73824000  0.43331800  1
  H  1261  1  0.60349000  0.75474200  0.49077300  1
  H  1262  1  0.63059200  0.72552800  0.48059000  1
  H  1263  1  0.63731100  0.68175500  0.48727000  1
  H  1264  1  0.59933800  0.66516000  0.42821200  1
  H  1265  1  0.58190300  0.63300900  0.44682000  1
  H  1266  1  0.61996700  0.64950700  0.50600300  1
  H  1269  1  0.65761500  0.66763300  0.34329100  1
  H  1270  1  0.72843900  0.74077300  0.47300900  1
  H  1272  1  0.57053500  0.77987500  0.48101800  1
  H  1274  1  0.57996600  0.60756800  0.47941600  1
  H  1300  1  0.85023200  0.20172400  0.45369900  1
  H  1301  1  0.83983800  0.23985400  0.44284900  1
  H  1302  1  0.77968600  0.18753400  0.47059300  1
  H  1303  1  0.76893000  0.22540000  0.45747600  1
  H  1304  1  0.75718700  0.24892100  0.42015600  1
  H  1305  1  0.75089200  0.24378700  0.38092500  1
  H  1306  1  0.82260700  0.25871000  0.36935700  1
  H  1307  1  0.82861200  0.26351800  0.40806100  1
  H  1308  1  0.81006600  0.30464200  0.42265000  1
  H  1309  1  0.83876400  0.33195200  0.43330900  1
  H  1310  1  0.85525700  0.29190000  0.49077100  1
  H  1311  1  0.82603900  0.26480300  0.48059400  1
  H  1312  1  0.78228000  0.25807700  0.48726300  1
  H  1313  1  0.76567500  0.29606300  0.42821200  1
  H  1314  1  0.73351800  0.31348900  0.44682400  1
  H  1315  1  0.75002900  0.27540300  0.50599400  1
  H  1318  1  0.76812700  0.23783300  0.34329100  1
  H  1319  1  0.84128200  0.16696100  0.47300800  1
  H  1321  1  0.88038200  0.32485600  0.48103500  1
  H  1323  1  0.70807700  0.31542500  0.47945300  1
  H  1349  1  0.14566600  0.59314700  0.45368800  1
  H  1350  1  0.15606000  0.55501500  0.44284700  1
  H  1351  1  0.21620900  0.60733900  0.47058800  1
  H  1352  1  0.22696700  0.56947300  0.45748100  1
  H  1353  1  0.23872000  0.54594400  0.42015900  1
  H  1354  1  0.24501400  0.55107500  0.38092500  1
  H  1355  1  0.17330000  0.53616300  0.36936200  1
  H  1356  1  0.16729300  0.53136000  0.40806200  1
  H  1357  1  0.18582800  0.49022800  0.42264500  1
  H  1358  1  0.15714100  0.46291300  0.43332600  1
  H  1359  1  0.14064700  0.50298600  0.49077300  1
  H  1360  1  0.16986100  0.53008100  0.48058500  1
  H  1361  1  0.21360700  0.53680500  0.48726000  1
  H  1362  1  0.23021900  0.49880300  0.42821700  1
  H  1363  1  0.26239800  0.48140600  0.44682700  1
  H  1364  1  0.24588400  0.51952400  0.50598100  1
  H  1367  1  0.22777000  0.55704200  0.34329100  1
  H  1368  1  0.15461000  0.62791000  0.47299900  1
  H  1370  1  0.11551600  0.47004300  0.48103700  1
  H  1372  1  0.28781400  0.47942500  0.47948800  1
  H  1398  1  0.69367400  0.04515600  0.65357300  1
  H  1399  1  0.65554200  0.05554800  0.66441800  1
  H  1400  1  0.70785500  0.11569900  0.63666800  1
  H  1401  1  0.66999400  0.12645600  0.64978100  1
  H  1402  1  0.64647600  0.13819600  0.68712200  1
  H  1403  1  0.65156700  0.14450200  0.72635000  1
  H  1404  1  0.63667000  0.07279100  0.73793000  1
  H  1405  1  0.63189000  0.06677300  0.69922400  1
  H  1406  1  0.59074900  0.08531700  0.68463000  1
  H  1407  1  0.56342400  0.05663600  0.67394800  1
  H  1408  1  0.60349300  0.04013800  0.61650200  1
  H  1409  1  0.63059200  0.06935000  0.62668600  1
  H  1410  1  0.63732200  0.11311500  0.62000600  1
  H  1411  1  0.59934500  0.12970800  0.67906800  1
  H  1412  1  0.58190300  0.16185800  0.66045600  1
  H  1413  1  0.61997300  0.14535800  0.60127400  1
  H  1416  1  0.65769900  0.12723700  0.76389000  1
  H  1417  1  0.72843300  0.05410000  0.63425000  1
  H  1419  1  0.57055600  0.01500400  0.62624100  1
  H  1421  1  0.57996100  0.18730200  0.62783700  1
  H  1447  1  0.30222600  0.74972100  0.65356600  1
  H  1448  1  0.34035800  0.73933100  0.66441100  1
  H  1449  1  0.28804700  0.67917500  0.63666700  1
  H  1450  1  0.32591000  0.66842100  0.64978500  1
  H  1451  1  0.34943500  0.65667500  0.68711200  1
  H  1452  1  0.34431200  0.65036000  0.72633700  1
  H  1453  1  0.35922300  0.72207300  0.73794000  1
  H  1454  1  0.36402200  0.72809900  0.69923300  1
  H  1455  1  0.40514600  0.70955500  0.68463000  1
  H  1456  1  0.43245600  0.73825300  0.67396300  1
  H  1457  1  0.39240200  0.75474400  0.61650300  1
  H  1458  1  0.36530500  0.72552400  0.62668300  1
  H  1459  1  0.35858100  0.68179100  0.62002500  1
  H  1460  1  0.39657500  0.66517100  0.67907400  1
  H  1461  1  0.41398300  0.63299500  0.66045800  1
  H  1462  1  0.37586000  0.64951800  0.60130600  1
  H  1465  1  0.33827200  0.66758400  0.76396700  1
  H  1466  1  0.26747200  0.74077100  0.63423800  1
  H  1468  1  0.42541100  0.77983800  0.62620700  1
  H  1470  1  0.41596600  0.60757300  0.62776900  1
  H  1496  1  0.14566900  0.20171500  0.65356400  1
  H  1497  1  0.15605900  0.23984600  0.66440900  1
  H  1498  1  0.21621500  0.18753600  0.63666300  1
  H  1499  1  0.22696900  0.22539900  0.64978000  1
  H  1500  1  0.23871100  0.24891700  0.68710700  1
  H  1501  1  0.24503000  0.24380300  0.72633300  1
  H  1502  1  0.17331900  0.25871200  0.73793600  1
  H  1503  1  0.16729000  0.26350800  0.69923100  1
  H  1504  1  0.18583000  0.30463100  0.68463200  1
  H  1505  1  0.15712900  0.33194300  0.67397200  1
  H  1506  1  0.14064100  0.29189400  0.61650500  1
  H  1507  1  0.16986100  0.26479800  0.62668300  1
  H  1508  1  0.21360900  0.25806800  0.62001100  1
  H  1509  1  0.23022200  0.29605800  0.67906200  1
  H  1510  1  0.26239600  0.31346700  0.66044900  1
  H  1511  1  0.24588200  0.27536100  0.60129100  1
  H  1514  1  0.22780000  0.23775900  0.76396700  1
  H  1515  1  0.15461500  0.16695700  0.63424700  1
  H  1517  1  0.11554400  0.32489600  0.62622100  1
  H  1519  1  0.28781800  0.31543200  0.62780000  1
  H  1545  1  0.85022600  0.59317000  0.65356600  1
  H  1546  1  0.83983700  0.55503800  0.66442100  1
  H  1547  1  0.77967900  0.60734200  0.63667200  1
  H  1548  1  0.76893000  0.56948300  0.64979100  1
  H  1549  1  0.75718900  0.54595800  0.68710900  1
  H  1550  1  0.75087200  0.55106100  0.72633200  1
  H  1551  1  0.82257700  0.53615100  0.73794000  1
  H  1552  1  0.82861200  0.53136200  0.69923300  1
  H  1553  1  0.81006900  0.49025400  0.68463200  1
  H  1554  1  0.83876400  0.46293700  0.67396500  1
  H  1555  1  0.85525900  0.50298900  0.61650200  1
  H  1556  1  0.82603900  0.53008800  0.62668100  1
  H  1557  1  0.78228700  0.53680500  0.62001500  1
  H  1558  1  0.76567300  0.49882400  0.67907100  1
  H  1559  1  0.73351300  0.48139900  0.66045300  1
  H  1560  1  0.75002900  0.51949100  0.60128600  1
  H  1563  1  0.76808800  0.55713100  0.76390500  1
  H  1564  1  0.84126500  0.62795700  0.63426700  1
  H  1566  1  0.88036300  0.46999400  0.62623400  1
  H  1568  1  0.70808600  0.47943900  0.62780300  1
  H  1581  1  0.01629100  0.24208800  0.23238200  1
  H  1582  1  0.98919500  0.22737800  0.22863500  1
  H  1583  1  0.98962000  0.25679200  0.23827600  1
  H  1596  1  0.97961600  0.55278500  0.23238400  1
  H  1597  1  0.00671300  0.56749300  0.22863800  1
  H  1598  1  0.00628400  0.53807600  0.23827300  1
  H  1611  1  0.65330400  0.91578000  0.23238400  1
  H  1612  1  0.66800600  0.88868100  0.22862600  1
  H  1613  1  0.63859400  0.88911100  0.23827600  1
  H  1626  1  0.34259700  0.87909100  0.23237200  1
  H  1627  1  0.32789300  0.90618700  0.22860600  1
  H  1628  1  0.35730000  0.90576200  0.23827100  1
  H  1641  1  0.97961000  0.24208600  0.87489400  1
  H  1642  1  0.00670600  0.22738200  0.87865900  1
  H  1643  1  0.00628100  0.25678800  0.86899500  1
  H  1656  1  0.01629900  0.55279200  0.87489600  1
  H  1657  1  0.98920200  0.56749500  0.87866900  1
  H  1658  1  0.98962700  0.53809000  0.86900200  1
  H  1671  1  0.34259900  0.91578400  0.87489600  1
  H  1672  1  0.32789400  0.88868800  0.87866200  1
  H  1673  1  0.35730000  0.88911100  0.86899600  1
  H  1686  1  0.65330500  0.87909900  0.87489400  1
  H  1687  1  0.66801000  0.90619600  0.87865700  1
  H  1688  1  0.63860800  0.90577000  0.86898000  1
  H  1701  1  0.51629200  0.74208900  0.73237800  1
  H  1702  1  0.48919500  0.72737800  0.72863200  1
  H  1703  1  0.48962100  0.75679200  0.73827200  1
  H  1716  1  0.47961900  0.05278300  0.73238100  1
  H  1717  1  0.50671600  0.06749300  0.72864000  1
  H  1718  1  0.50628700  0.03807500  0.73827200  1
  H  1731  1  0.15330200  0.41577900  0.73238100  1
  H  1732  1  0.16800700  0.38868100  0.72862700  1
  H  1733  1  0.13859400  0.38911000  0.73827400  1
  H  1746  1  0.84259900  0.37909300  0.73236900  1
  H  1747  1  0.82789300  0.40618700  0.72860500  1
  H  1748  1  0.85729900  0.40576400  0.73826800  1
  H  1761  1  0.47961200  0.74208600  0.37489500  1
  H  1762  1  0.50670900  0.72738200  0.37865600  1
  H  1763  1  0.50628200  0.75679200  0.36900100  1
  H  1776  1  0.51630000  0.05279000  0.37489700  1
  H  1777  1  0.48920400  0.06749500  0.37866700  1
  H  1778  1  0.48962800  0.03808800  0.36900400  1
  H  1791  1  0.84259900  0.41578200  0.37489700  1
  H  1792  1  0.82789300  0.38868600  0.37866200  1
  H  1793  1  0.85729900  0.38911000  0.36899900  1
  H  1806  1  0.15330300  0.37910100  0.37489700  1
  H  1807  1  0.16801100  0.40619800  0.37865600  1
  H  1808  1  0.13860800  0.40577200  0.36898300  1
  H  1821  1  0.12915500  0.29946800  0.30460200  1
  H  1822  1  0.10513900  0.28099500  0.29795300  1
  H  1823  1  0.12356300  0.29171600  0.27616000  1
  H  1836  1  0.86674200  0.49540400  0.30460500  1
  H  1837  1  0.89075800  0.51387800  0.29795400  1
  H  1838  1  0.87233300  0.50315900  0.27616300  1
  H  1851  1  0.59591600  0.02864600  0.30460900  1
  H  1852  1  0.61439800  0.00463500  0.29795900  1
  H  1853  1  0.60366800  0.02305400  0.27616500  1
  H  1866  1  0.39997500  0.76621500  0.30461500  1
  H  1867  1  0.38148900  0.79022400  0.29796800  1
  H  1868  1  0.39222300  0.77180900  0.27617300  1
  H  1881  1  0.86673700  0.29947300  0.80265600  1
  H  1882  1  0.89074100  0.28097900  0.80930000  1
  H  1883  1  0.87232900  0.29171400  0.83109600  1
  H  1896  1  0.12916500  0.49540000  0.80265400  1
  H  1897  1  0.10516100  0.51389200  0.80930000  1
  H  1898  1  0.12357300  0.50315700  0.83109500  1
  H  1911  1  0.39998800  0.02865100  0.80265300  1
  H  1912  1  0.38149600  0.00464800  0.80930200  1
  H  1913  1  0.39222900  0.02306400  0.83109300  1
  H  1926  1  0.59592000  0.76623300  0.80266400  1
  H  1927  1  0.61440100  0.79024500  0.80931400  1
  H  1928  1  0.60366300  0.77183200  0.83110800  1
  H  1941  1  0.86674800  0.49539100  0.80266600  1
  H  1942  1  0.89076500  0.51386700  0.80931000  1
  H  1943  1  0.87233400  0.50316100  0.83110600  1
  H  1956  1  0.12915600  0.29948500  0.80266100  1
  H  1957  1  0.10514100  0.28100700  0.80930500  1
  H  1958  1  0.12357100  0.29171400  0.83110100  1
  H  1971  1  0.39999800  0.76623100  0.80265900  1
  H  1972  1  0.38151500  0.79024400  0.80930300  1
  H  1973  1  0.39223000  0.77182200  0.83110000  1
  H  1986  1  0.59591300  0.02865500  0.80265300  1
  H  1987  1  0.61439800  0.00464500  0.80929500  1
  H  1988  1  0.60367900  0.02306400  0.83109300  1
  H  2001  1  0.12916000  0.49538800  0.30461700  1
  H  2002  1  0.10515600  0.51388300  0.29797800  1
  H  2003  1  0.12357000  0.50316100  0.27617800  1
  H  2016  1  0.86673900  0.29948900  0.30461900  1
  H  2017  1  0.89074200  0.28099300  0.29797800  1
  H  2018  1  0.87232700  0.29171600  0.27618000  1
  H  2031  1  0.59589900  0.76622400  0.30462000  1
  H  2032  1  0.61439400  0.79022800  0.29797800  1
  H  2033  1  0.60367400  0.77181100  0.27618000  1
  H  2046  1  0.39999500  0.02863800  0.30460900  1
  H  2047  1  0.38151300  0.00462400  0.29796600  1
  H  2048  1  0.39223600  0.02304100  0.27616800  1
  H  2061  1  0.22821800  0.15354400  0.21224600  1
  H  2062  1  0.25598700  0.14362200  0.22170400  1
  H  2063  1  0.23771900  0.12476500  0.20569600  1
  H  2076  1  0.76768000  0.64133000  0.21224600  1
  H  2077  1  0.73991200  0.65125200  0.22170400  1
  H  2078  1  0.75818200  0.67011000  0.20569800  1
  H  2091  1  0.74184400  0.12770300  0.21224400  1
  H  2092  1  0.75176800  0.15547000  0.22170400  1
  H  2093  1  0.77062300  0.13720400  0.20569100  1
  H  2106  1  0.25406200  0.66717800  0.21224200  1
  H  2107  1  0.24413700  0.63941000  0.22170100  1
  H  2108  1  0.22528700  0.65767200  0.20568100  1
  H  2121  1  0.76767900  0.15354600  0.89503600  1
  H  2122  1  0.73990800  0.14362500  0.88558200  1
  H  2123  1  0.75817300  0.12477200  0.90159700  1
  H  2136  1  0.22821800  0.64133000  0.89503900  1
  H  2137  1  0.25598500  0.65125200  0.88557900  1
  H  2138  1  0.23772200  0.67010500  0.90159400  1
  H  2151  1  0.25406000  0.12769900  0.89502700  1
  H  2152  1  0.24413700  0.15546800  0.88556900  1
  H  2153  1  0.22528500  0.13720400  0.90158700  1
  H  2166  1  0.74184400  0.66717100  0.89502700  1
  H  2167  1  0.75177000  0.63940400  0.88556400  1
  H  2168  1  0.77062300  0.65766900  0.90158200  1
  H  2181  1  0.72822000  0.65353800  0.71226800  1
  H  2182  1  0.75599200  0.64361900  0.72172300  1
  H  2183  1  0.73773500  0.62477200  0.70569000  1
  H  2196  1  0.26768100  0.14132800  0.71224600  1
  H  2197  1  0.23991200  0.15124900  0.72170300  1
  H  2198  1  0.25818000  0.17010700  0.70569500  1
  H  2211  1  0.24184300  0.62770200  0.71224500  1
  H  2212  1  0.25176700  0.65547000  0.72170300  1
  H  2213  1  0.27062100  0.63720400  0.70569000  1
  H  2226  1  0.75406300  0.16717800  0.71224300  1
  H  2227  1  0.74414100  0.13940900  0.72169900  1
  H  2228  1  0.72529000  0.15767200  0.70568000  1
  H  2241  1  0.26767900  0.65354700  0.39503700  1
  H  2242  1  0.23990900  0.64362800  0.38558200  1
  H  2243  1  0.25817300  0.62477500  0.40160000  1
  H  2256  1  0.72821800  0.14132700  0.39503900  1
  H  2257  1  0.75598700  0.15125000  0.38557900  1
  H  2258  1  0.73772400  0.17010300  0.40159700  1
  H  2271  1  0.75406100  0.62769800  0.39502800  1
  H  2272  1  0.74413700  0.65546700  0.38557000  1
  H  2273  1  0.72528600  0.63720400  0.40159000  1
  H  2286  1  0.24184100  0.16717400  0.39502800  1
  H  2287  1  0.25176500  0.13940700  0.38556700  1
  H  2288  1  0.27061600  0.15767000  0.40158800  1
  H  2301  1  0.04173400  0.19377600  0.03655500  1
  H  2302  1  0.05400800  0.20360000  0.06233600  1
  H  2303  1  0.02768900  0.18704200  0.06243900  1
  H  2316  1  0.95416800  0.60109900  0.03655500  1
  H  2317  1  0.94189500  0.59127300  0.06233600  1
  H  2318  1  0.96821200  0.60783200  0.06243900  1
  H  2331  1  0.70161000  0.94122800  0.03655000  1
  H  2332  1  0.69178600  0.95350600  0.06233000  1
  H  2333  1  0.70833800  0.92718500  0.06243600  1
  H  2346  1  0.29428300  0.85364300  0.03654600  1
  H  2347  1  0.30410800  0.84136300  0.06232500  1
  H  2348  1  0.28755900  0.86768700  0.06243200  1
  H  2361  1  0.95414900  0.19375800  0.07071500  1
  H  2362  1  0.94186700  0.20357900  0.04493500  1
  H  2363  1  0.96819500  0.18703500  0.04483000  1
  H  2376  1  0.04174800  0.60111700  0.07071300  1
  H  2377  1  0.05402100  0.59128900  0.04493300  1
  H  2378  1  0.02769600  0.60783600  0.04482900  1
  H  2391  1  0.29428500  0.94122600  0.07072400  1
  H  2392  1  0.30410800  0.95350500  0.04494400  1
  H  2393  1  0.28755400  0.92718400  0.04483800  1
  H  2406  1  0.70161000  0.85364800  0.07072000  1
  H  2407  1  0.69178700  0.84137000  0.04494000  1
  H  2408  1  0.70833600  0.86769300  0.04483400  1
  H  2421  1  0.54173400  0.69377600  0.53655400  1
  H  2422  1  0.55400700  0.70360000  0.56233600  1
  H  2423  1  0.52769000  0.68704400  0.56243800  1
  H  2436  1  0.45416600  0.10109900  0.53655400  1
  H  2437  1  0.44189300  0.09127300  0.56233600  1
  H  2438  1  0.46821300  0.10783200  0.56243800  1
  H  2451  1  0.20160800  0.44122800  0.53654900  1
  H  2452  1  0.19178600  0.45350700  0.56233000  1
  H  2453  1  0.20833800  0.42718600  0.56243500  1
  H  2466  1  0.79428300  0.35364500  0.53654900  1
  H  2467  1  0.80410800  0.34136800  0.56232900  1
  H  2468  1  0.78755900  0.36769100  0.56243300  1
  H  2481  1  0.45414700  0.69375800  0.57071400  1
  H  2482  1  0.44186700  0.70357900  0.54493400  1
  H  2483  1  0.46819500  0.68703500  0.54483000  1
  H  2496  1  0.54174800  0.10111600  0.57071200  1
  H  2497  1  0.55402100  0.09128900  0.54493200  1
  H  2498  1  0.52769700  0.10783600  0.54483000  1
  H  2511  1  0.79428500  0.44122800  0.57072400  1
  H  2512  1  0.80410800  0.45350700  0.54494400  1
  H  2513  1  0.78755500  0.42718400  0.54483800  1
  H  2526  1  0.20161000  0.35364800  0.57071900  1
  H  2527  1  0.19178800  0.34136800  0.54493900  1
  H  2528  1  0.20833500  0.36769300  0.54483500  1
  C  1  1  0.09929200  0.13682000  0.12817200  1
  C  2  1  0.09349800  0.14256800  0.15069000  1
  C  3  1  0.10388400  0.16163700  0.16172900  1
  C  4  1  0.12121400  0.17572700  0.15120000  1
  C  5  1  0.12554500  0.17102500  0.12799400  1
  C  6  1  0.11533000  0.15168900  0.11683500  1
  C  7  1  0.13215000  0.19649200  0.16376100  1
  C  8  1  0.11450400  0.21547100  0.15813500  1
  C  9  1  0.11590400  0.22880600  0.13788900  1
  C  10  1  0.09965900  0.24651600  0.13290400  1
  C  11  1  0.08073700  0.25087600  0.14761600  1
  C  12  1  0.07843200  0.23654100  0.16712000  1
  C  13  1  0.09452000  0.21880700  0.17183800  1
  C  14  1  0.13614300  0.19227900  0.18898700  1
  C  15  1  0.15684500  0.20311900  0.15667700  1
  C  16  1  0.16517000  0.22653300  0.15856200  1
  C  17  1  0.18807700  0.23260100  0.15244100  1
  C  18  1  0.20409600  0.21516100  0.14556500  1
  C  19  1  0.19640500  0.19163200  0.14453700  1
  C  20  1  0.17339900  0.18571900  0.15059300  1
  C  21  1  0.14351100  0.16995400  0.19677000  1
  C  22  1  0.14753600  0.16535400  0.21965200  1
  C  23  1  0.14552000  0.18318700  0.23598800  1
  C  24  1  0.14030600  0.20610500  0.22829400  1
  C  25  1  0.13588600  0.21056800  0.20530500  1
  C  42  1  0.22680200  0.22171100  0.14051700  1
  C  43  1  0.08996300  0.11601900  0.11948800  1
  C  46  1  0.06311200  0.26617700  0.14103900  1
  C  48  1  0.14970200  0.17702200  0.25831700  1
  C  50  1  0.89660900  0.65805700  0.12817100  1
  C  51  1  0.90240300  0.65230900  0.15068900  1
  C  52  1  0.89202700  0.63323100  0.16172300  1
  C  53  1  0.87467800  0.61915700  0.15120300  1
  C  54  1  0.87036500  0.62384600  0.12799100  1
  C  55  1  0.88057700  0.64318300  0.11683300  1
  C  56  1  0.86376000  0.59838100  0.16375800  1
  C  57  1  0.88141500  0.57941100  0.15813100  1
  C  58  1  0.88003400  0.56607900  0.13788200  1
  C  59  1  0.89627900  0.54836400  0.13290800  1
  C  60  1  0.91518700  0.54397800  0.14763200  1
  C  61  1  0.91749400  0.55833900  0.16712100  1
  C  62  1  0.90140900  0.57608500  0.17182600  1
  C  63  1  0.85977300  0.60259200  0.18898400  1
  C  64  1  0.83906700  0.59175200  0.15666800  1
  C  65  1  0.83073700  0.56834000  0.15855600  1
  C  66  1  0.80782900  0.56227000  0.15243800  1
  C  67  1  0.79180500  0.57971000  0.14557500  1
  C  68  1  0.79949200  0.60324000  0.14455500  1
  C  69  1  0.82250300  0.60914900  0.15059500  1
  C  70  1  0.85238800  0.62491000  0.19677400  1
  C  71  1  0.84836900  0.62951000  0.21965700  1
  C  72  1  0.85039800  0.61168000  0.23599200  1
  C  73  1  0.85561000  0.58876100  0.22829300  1
  C  74  1  0.86001900  0.58430100  0.20530000  1
  C  91  1  0.76910000  0.57316100  0.14051700  1
  C  92  1  0.90593700  0.67885800  0.11948800  1
  C  95  1  0.93269700  0.52847700  0.14113700  1
  C  97  1  0.84619400  0.61784200  0.25831700  1
  C  99  1  0.75856000  0.99876600  0.12816200  1
  C  100  1  0.75282200  0.99298500  0.15068500  1
  C  101  1  0.73374600  0.00336000  0.16172100  1
  C  102  1  0.71967000  0.02070800  0.15120200  1
  C  103  1  0.72436800  0.02503200  0.12799300  1
  C  104  1  0.74369600  0.01481100  0.11682900  1
  C  105  1  0.69889400  0.03162700  0.16375800  1
  C  106  1  0.67992400  0.01397000  0.15813300  1
  C  107  1  0.66659400  0.01535000  0.13788300  1
  C  108  1  0.64887700  0.99910600  0.13291200  1
  C  109  1  0.64447100  0.98020600  0.14764100  1
  C  110  1  0.65885000  0.97789300  0.16711900  1
  C  111  1  0.67659800  0.99397500  0.17182600  1
  C  112  1  0.70310500  0.03561300  0.18898400  1
  C  113  1  0.69226700  0.05631900  0.15666800  1
  C  114  1  0.66885300  0.06464900  0.15855500  1
  C  115  1  0.66278100  0.08755500  0.15242800  1
  C  116  1  0.68022300  0.10358100  0.14557100  1
  C  117  1  0.70375200  0.09589200  0.14454900  1
  C  118  1  0.70966100  0.07288300  0.15059500  1
  C  119  1  0.72542600  0.04299000  0.19677500  1
  C  120  1  0.73002400  0.04701500  0.21965700  1
  C  121  1  0.71219100  0.04500600  0.23599000  1
  C  122  1  0.68927600  0.03977600  0.22829300  1
  C  123  1  0.68481600  0.03536400  0.20530200  1
  C  140  1  0.67367500  0.12628800  0.14051800  1
  C  141  1  0.77937200  0.98945100  0.11949000  1
  C  144  1  0.62898800  0.96269900  0.14112900  1
  C  146  1  0.71835300  0.04919400  0.25831500  1
  C  148  1  0.23734600  0.79611200  0.12816400  1
  C  149  1  0.24308500  0.80189000  0.15068800  1
  C  150  1  0.26216000  0.79150900  0.16172100  1
  C  151  1  0.27622900  0.77415800  0.15119800  1
  C  152  1  0.27153100  0.76983700  0.12799000  1
  C  153  1  0.25220300  0.78006200  0.11683000  1
  C  154  1  0.29700300  0.76323800  0.16376000  1
  C  155  1  0.31597300  0.78089300  0.15813600  1
  C  156  1  0.32930300  0.77950900  0.13788600  1
  C  157  1  0.34702000  0.79575400  0.13291600  1
  C  158  1  0.35140300  0.81466600  0.14763800  1
  C  159  1  0.33701900  0.81698300  0.16710900  1
  C  160  1  0.31930000  0.80088000  0.17183700  1
  C  161  1  0.29278900  0.75923900  0.18898400  1
  C  162  1  0.30363000  0.73854800  0.15667100  1
  C  163  1  0.32704200  0.73021900  0.15855900  1
  C  164  1  0.33311000  0.70731300  0.15243600  1
  C  165  1  0.31567200  0.69129600  0.14555300  1
  C  166  1  0.29214300  0.69898500  0.14453100  1
  C  167  1  0.28623200  0.72198700  0.15059900  1
  C  168  1  0.27046500  0.75187900  0.19677500  1
  C  169  1  0.26587300  0.74784800  0.21965500  1
  C  170  1  0.28370600  0.74986100  0.23598800  1
  C  171  1  0.30662300  0.75509100  0.22829100  1
  C  172  1  0.31108100  0.75950500  0.20530000  1
  C  189  1  0.32222300  0.66859100  0.14050900  1
  C  190  1  0.21653500  0.80543400  0.11949400  1
  C  193  1  0.36678800  0.83224900  0.14110700  1
  C  195  1  0.27754000  0.74568300  0.25831800  1
  C  197  1  0.89662000  0.13683900  0.97909300  1
  C  198  1  0.90239400  0.14257700  0.95656900  1
  C  199  1  0.89201700  0.16165500  0.94554000  1
  C  200  1  0.87467100  0.17572500  0.95606600  1
  C  201  1  0.87034400  0.17102100  0.97927300  1
  C  202  1  0.88057000  0.15169100  0.99043100  1
  C  203  1  0.86375300  0.19649900  0.94350400  1
  C  204  1  0.88140800  0.21546700  0.94912900  1
  C  205  1  0.88002700  0.22879800  0.96937800  1
  C  206  1  0.89626300  0.24652600  0.97433900  1
  C  207  1  0.91518400  0.25089200  0.95962000  1
  C  208  1  0.91749900  0.23650800  0.94015100  1
  C  209  1  0.90139100  0.21879500  0.93542500  1
  C  210  1  0.85975200  0.19227800  0.91828300  1
  C  211  1  0.83906100  0.20311500  0.95059200  1
  C  212  1  0.83073700  0.22653100  0.94870800  1
  C  213  1  0.80783600  0.23260300  0.95484100  1
  C  214  1  0.79181900  0.21516500  0.96172000  1
  C  215  1  0.79950300  0.19163200  0.96273300  1
  C  216  1  0.82250300  0.18571700  0.95667000  1
  C  217  1  0.85238500  0.16995500  0.91049400  1
  C  218  1  0.84835500  0.16536000  0.88761500  1
  C  219  1  0.85037000  0.18319700  0.87128000  1
  C  220  1  0.85559600  0.20611200  0.87897500  1
  C  221  1  0.86001400  0.21057000  0.90196600  1
  C  238  1  0.76911600  0.22171400  0.96676100  1
  C  239  1  0.90597400  0.11604800  0.98776700  1
  C  242  1  0.93276700  0.26627300  0.96616300  1
  C  244  1  0.84623900  0.17701700  0.84893800  1
  C  246  1  0.09926400  0.65802400  0.97910300  1
  C  247  1  0.09351100  0.65230600  0.95656900  1
  C  248  1  0.10388700  0.63322900  0.94553500  1
  C  249  1  0.12122000  0.61914600  0.95606600  1
  C  250  1  0.12555000  0.62384600  0.97927300  1
  C  251  1  0.11532800  0.64317800  0.99043100  1
  C  252  1  0.13215000  0.59837700  0.94350600  1
  C  253  1  0.11449500  0.57940600  0.94912600  1
  C  254  1  0.11587700  0.56607500  0.96937700  1
  C  255  1  0.09963600  0.54835400  0.97434300  1
  C  256  1  0.08072100  0.54398500  0.95961900  1
  C  257  1  0.07841000  0.55835700  0.94014100  1
  C  258  1  0.09451100  0.57607800  0.93542100  1
  C  259  1  0.13615200  0.60259700  0.91828300  1
  C  260  1  0.15684200  0.59176100  0.95059300  1
  C  261  1  0.16516800  0.56834600  0.94870300  1
  C  262  1  0.18806500  0.56227200  0.95485200  1
  C  263  1  0.20408300  0.57971200  0.96172200  1
  C  264  1  0.19640100  0.60324500  0.96273300  1
  C  265  1  0.17339800  0.60915900  0.95667300  1
  C  266  1  0.14351100  0.62492100  0.91049300  1
  C  267  1  0.14753700  0.62951300  0.88761100  1
  C  268  1  0.14553200  0.61166900  0.87128100  1
  C  269  1  0.14029600  0.58875800  0.87897500  1
  C  270  1  0.13588600  0.58430300  0.90196800  1
  C  287  1  0.22678800  0.57316200  0.96676300  1
  C  288  1  0.08992000  0.67881600  0.98778400  1
  C  291  1  0.06314600  0.52861700  0.96617500  1
  C  293  1  0.14964200  0.61785100  0.84893800  1
  C  295  1  0.23733600  0.99877500  0.97909800  1
  C  296  1  0.24307500  0.99299500  0.95657500  1
  C  297  1  0.26214800  0.00337600  0.94553800  1
  C  298  1  0.27623800  0.02070400  0.95607000  1
  C  299  1  0.27154000  0.02502900  0.97927600  1
  C  300  1  0.25220400  0.01481100  0.99043600  1
  C  301  1  0.29700900  0.03163500  0.94350800  1
  C  302  1  0.31597800  0.01397900  0.94912900  1
  C  303  1  0.32931700  0.01536800  0.96937500  1
  C  304  1  0.34703400  0.99912300  0.97434600  1
  C  305  1  0.35138400  0.98019900  0.95963400  1
  C  306  1  0.33701900  0.97788600  0.94015100  1
  C  307  1  0.31930400  0.99399400  0.93542600  1
  C  308  1  0.29279200  0.03563700  0.91828400  1
  C  309  1  0.30362700  0.05632900  0.95059700  1
  C  310  1  0.32704000  0.06465600  0.94870400  1
  C  311  1  0.33311200  0.08755700  0.95484300  1
  C  312  1  0.31567400  0.10357700  0.96171800  1
  C  313  1  0.29214100  0.09589300  0.96272600  1
  C  314  1  0.28622900  0.07288600  0.95667500  1
  C  315  1  0.27047100  0.04300100  0.91049100  1
  C  316  1  0.26588300  0.04703300  0.88760800  1
  C  317  1  0.28371700  0.04502900  0.87127000  1
  C  318  1  0.30663000  0.03978900  0.87897200  1
  C  319  1  0.31108500  0.03537300  0.90196600  1
  C  336  1  0.32222300  0.12628200  0.96676300  1
  C  337  1  0.21653700  0.98943800  0.98777900  1
  C  340  1  0.36676900  0.96262900  0.96616500  1
  C  342  1  0.27751700  0.04913900  0.84892700  1
  C  344  1  0.75856700  0.79609700  0.97910100  1
  C  345  1  0.75282700  0.80187800  0.95657900  1
  C  346  1  0.73375300  0.79150000  0.94554200  1
  C  347  1  0.71966300  0.77417100  0.95607000  1
  C  348  1  0.72436800  0.76983500  0.97927500  1
  C  349  1  0.74369400  0.78006200  0.99043800  1
  C  350  1  0.69889500  0.76323600  0.94350800  1
  C  351  1  0.67991900  0.78088300  0.94913600  1
  C  352  1  0.66658500  0.77948600  0.96938300  1
  C  353  1  0.64887200  0.79572900  0.97436300  1
  C  354  1  0.64451300  0.81464800  0.95964900  1
  C  355  1  0.65886900  0.81696700  0.94016100  1
  C  356  1  0.67658800  0.80086600  0.93543000  1
  C  357  1  0.70310800  0.75924100  0.91828300  1
  C  358  1  0.69227400  0.73854300  0.95059700  1
  C  359  1  0.66885800  0.73021900  0.94870800  1
  C  360  1  0.66278500  0.70731400  0.95483600  1
  C  361  1  0.68022500  0.69129000  0.96170100  1
  C  362  1  0.70375400  0.69897800  0.96272900  1
  C  363  1  0.70966800  0.72198500  0.95667800  1
  C  364  1  0.72543300  0.75187000  0.91049900  1
  C  365  1  0.73003300  0.74784300  0.88762000  1
  C  366  1  0.71219900  0.74985500  0.87128300  1
  C  367  1  0.68928300  0.75507800  0.87897700  1
  C  368  1  0.68481900  0.75949400  0.90196600  1
  C  385  1  0.67367500  0.66858500  0.96675500  1
  C  386  1  0.77936700  0.80542600  0.98778300  1
  C  389  1  0.62920400  0.83226300  0.96621900  1
  C  391  1  0.71836400  0.74570400  0.84895100  1
  C  393  1  0.89656000  0.65686500  0.97821000  1
  C  394  1  0.90192000  0.65195800  0.95542400  1
  C  395  1  0.89150900  0.63287900  0.94439200  1
  C  396  1  0.87417400  0.61880300  0.95506200  1
  C  397  1  0.86969000  0.62344700  0.97818300  1
  C  398  1  0.88015000  0.64242200  0.98941200  1
  C  399  1  0.86308600  0.59791900  0.94306100  1
  C  400  1  0.88085000  0.57895100  0.94912100  1
  C  401  1  0.87897500  0.56634700  0.96972700  1
  C  402  1  0.89515100  0.54904200  0.97596900  1
  C  403  1  0.91487600  0.54424700  0.96248000  1
  C  404  1  0.91811000  0.55833400  0.94299900  1
  C  405  1  0.90164200  0.57536300  0.93650000  1
  C  406  1  0.85931700  0.60223800  0.91795900  1
  C  407  1  0.83807200  0.59187500  0.95027500  1
  C  408  1  0.82964800  0.56855600  0.94843700  1
  C  409  1  0.80687800  0.56239500  0.95492700  1
  C  410  1  0.79095200  0.57928500  0.96322800  1
  C  411  1  0.79886900  0.60277900  0.96462500  1
  C  412  1  0.82149500  0.60904200  0.95716300  1
  C  413  1  0.85186300  0.62460000  0.91028400  1
  C  414  1  0.84819800  0.62937500  0.88741600  1
  C  415  1  0.85036800  0.61159200  0.87106900  1
  C  416  1  0.85558900  0.58863300  0.87869400  1
  C  417  1  0.85996000  0.58403500  0.90165400  1
  C  434  1  0.76898800  0.57117400  0.97012500  1
  C  435  1  0.90803200  0.67520500  0.98881000  1
  C  438  1  0.93038000  0.52698600  0.96983500  1
  C  440  1  0.84626400  0.61787400  0.84877800  1
  C  442  1  0.09934000  0.13800800  0.97820800  1
  C  443  1  0.09398100  0.14291700  0.95542400  1
  C  444  1  0.10438700  0.16199800  0.94439400  1
  C  445  1  0.12173200  0.17606800  0.95505700  1
  C  446  1  0.12620600  0.17142900  0.97818100  1
  C  447  1  0.11575400  0.15245000  0.98940900  1
  C  448  1  0.13281400  0.19695600  0.94306000  1
  C  449  1  0.11505400  0.21592600  0.94911400  1
  C  450  1  0.11691500  0.22851900  0.96972900  1
  C  451  1  0.10073500  0.24581800  0.97597700  1
  C  452  1  0.08101000  0.25061500  0.96249200  1
  C  453  1  0.07777100  0.23652700  0.94301600  1
  C  454  1  0.09424700  0.21950500  0.93651000  1
  C  455  1  0.13657600  0.19263800  0.91795900  1
  C  456  1  0.15782500  0.20300000  0.95027800  1
  C  457  1  0.16625400  0.22631600  0.94843500  1
  C  458  1  0.18902400  0.23247900  0.95492700  1
  C  459  1  0.20495000  0.21558800  0.96322500  1
  C  460  1  0.19703800  0.19209000  0.96460600  1
  C  461  1  0.17440500  0.18583300  0.95716300  1
  C  462  1  0.14404600  0.17028100  0.91027900  1
  C  463  1  0.14769700  0.16550600  0.88740900  1
  C  464  1  0.14551300  0.18328800  0.87106400  1
  C  465  1  0.14029800  0.20624700  0.87869200  1
  C  466  1  0.13594100  0.21084100  0.90165400  1
  C  483  1  0.22691400  0.22369900  0.97012500  1
  C  484  1  0.08786900  0.11966800  0.98880900  1
  C  487  1  0.06554900  0.26793100  0.96981500  1
  C  489  1  0.14963300  0.17700600  0.84878100  1
  C  491  1  0.23850500  0.79599000  0.97817900  1
  C  492  1  0.24341800  0.80139100  0.95541300  1
  C  493  1  0.26251200  0.79100700  0.94438600  1
  C  494  1  0.27659000  0.77366100  0.95504200  1
  C  495  1  0.27195800  0.76917000  0.97816100  1
  C  496  1  0.25295900  0.77958300  0.98938000  1
  C  497  1  0.29747600  0.76258200  0.94305100  1
  C  498  1  0.31644400  0.78034000  0.94910900  1
  C  499  1  0.32903400  0.77848000  0.96972500  1
  C  500  1  0.34633400  0.79465800  0.97597400  1
  C  501  1  0.35114400  0.81437300  0.96247800  1
  C  502  1  0.33704700  0.81761800  0.94300900  1
  C  503  1  0.32002200  0.80114600  0.93650500  1
  C  504  1  0.29315300  0.75881900  0.91795400  1
  C  505  1  0.30351500  0.73757000  0.95027200  1
  C  506  1  0.32683400  0.72914400  0.94843100  1
  C  507  1  0.33299300  0.70637300  0.95491600  1
  C  508  1  0.31610300  0.69044800  0.96321400  1
  C  509  1  0.29260700  0.69836200  0.96460800  1
  C  510  1  0.28634800  0.72098900  0.95715500  1
  C  511  1  0.27079400  0.75135000  0.91027500  1
  C  512  1  0.26602000  0.74769000  0.88740900  1
  C  513  1  0.28380400  0.74985500  0.87106600  1
  C  514  1  0.30676100  0.75509100  0.87868900  1
  C  515  1  0.31135600  0.75945200  0.90165100  1
  C  532  1  0.32421000  0.66848900  0.97011100  1
  C  533  1  0.22019800  0.80746300  0.98880900  1
  C  536  1  0.36845600  0.82983400  0.96981000  1
  C  538  1  0.27752100  0.74575600  0.84877900  1
  C  540  1  0.75740400  0.99889800  0.97817900  1
  C  541  1  0.75248600  0.99349400  0.95541400  1
  C  542  1  0.73338500  0.00386900  0.94439100  1
  C  543  1  0.71930600  0.02121100  0.95505200  1
  C  544  1  0.72394200  0.02570900  0.97816800  1
  C  545  1  0.74294300  0.01529700  0.98938500  1
  C  546  1  0.69842300  0.03229100  0.94305300  1
  C  547  1  0.67945500  0.01452900  0.94910400  1
  C  548  1  0.66687700  0.01639300  0.96972900  1
  C  549  1  0.64957000  0.00022200  0.97597500  1
  C  550  1  0.64476200  0.98050100  0.96248700  1
  C  551  1  0.65885700  0.97724900  0.94301700  1
  C  552  1  0.67587700  0.99372300  0.93650300  1
  C  553  1  0.70275300  0.03606800  0.91795700  1
  C  554  1  0.69238200  0.05730200  0.95027300  1
  C  555  1  0.66906500  0.06572600  0.94843300  1
  C  556  1  0.66290200  0.08849600  0.95491900  1
  C  557  1  0.67979300  0.10442400  0.96321100  1
  C  558  1  0.70328900  0.09651100  0.96461100  1
  C  559  1  0.70955100  0.07388800  0.95714500  1
  C  560  1  0.72511300  0.04352800  0.91028200  1
  C  561  1  0.72988400  0.04719100  0.88741400  1
  C  562  1  0.71210000  0.04502500  0.87107100  1
  C  563  1  0.68914300  0.03979000  0.87869200  1
  C  564  1  0.68454800  0.03542200  0.90165400  1
  C  581  1  0.67168200  0.12638800  0.97009800  1
  C  582  1  0.77570900  0.98741900  0.98880700  1
  C  585  1  0.62744500  0.96504800  0.96982000  1
  C  587  1  0.71838300  0.04911600  0.84878100  1
  C  589  1  0.09934100  0.65685500  0.12907000  1
  C  590  1  0.09397800  0.65194700  0.15185100  1
  C  591  1  0.10438700  0.63286700  0.16288000  1
  C  592  1  0.12172900  0.61879600  0.15221300  1
  C  593  1  0.12621100  0.62343800  0.12909300  1
  C  594  1  0.11575000  0.64241000  0.11786400  1
  C  595  1  0.13281400  0.59791200  0.16421400  1
  C  596  1  0.11505000  0.57894000  0.15816800  1
  C  597  1  0.11691100  0.56636100  0.13754400  1
  C  598  1  0.10074200  0.54904700  0.13130400  1
  C  599  1  0.08102000  0.54423900  0.14479400  1
  C  600  1  0.07776900  0.55834100  0.16425800  1
  C  601  1  0.09424600  0.57536100  0.17077000  1
  C  602  1  0.13659200  0.60224000  0.18931100  1
  C  603  1  0.15782500  0.59187300  0.15699100  1
  C  604  1  0.16625200  0.56855600  0.15883600  1
  C  605  1  0.18902400  0.56239500  0.15235200  1
  C  606  1  0.20495200  0.57928300  0.14405300  1
  C  607  1  0.19703800  0.60278100  0.14266600  1
  C  608  1  0.17441100  0.60904200  0.15012300  1
  C  609  1  0.14405400  0.62460000  0.19698800  1
  C  610  1  0.14770300  0.62938000  0.21985700  1
  C  611  1  0.14553000  0.61159700  0.23620200  1
  C  612  1  0.14030800  0.58863700  0.22857700  1
  C  613  1  0.13594300  0.58403900  0.20561700  1
  C  630  1  0.22691400  0.57117100  0.13715500  1
  C  631  1  0.08787200  0.67518800  0.11846600  1
  C  634  1  0.06553800  0.52695600  0.13743800  1
  C  636  1  0.14959900  0.61787700  0.25849700  1
  C  638  1  0.89648500  0.13799000  0.12910800  1
  C  639  1  0.90190800  0.14291600  0.15186600  1
  C  640  1  0.89151600  0.16200600  0.16289300  1
  C  641  1  0.87417800  0.17608600  0.15222900  1
  C  642  1  0.86967400  0.17145200  0.12911500  1
  C  643  1  0.88008800  0.15245300  0.11790000  1
  C  644  1  0.86308600  0.19696700  0.16422000  1
  C  645  1  0.88084600  0.21593800  0.15817100  1
  C  646  1  0.87898400  0.22851800  0.13754700  1
  C  647  1  0.89514800  0.24583700  0.13131000  1
  C  648  1  0.91486300  0.25064800  0.14480600  1
  C  649  1  0.91811400  0.23654800  0.16427400  1
  C  650  1  0.90164700  0.21951800  0.17077700  1
  C  651  1  0.85930900  0.19263500  0.18931400  1
  C  652  1  0.83807400  0.20300300  0.15699500  1
  C  653  1  0.82964500  0.22631900  0.15884700  1
  C  654  1  0.80687500  0.23248000  0.15235500  1
  C  655  1  0.79094700  0.21559000  0.14405900  1
  C  656  1  0.79886700  0.19209600  0.14265600  1
  C  657  1  0.82149300  0.18583500  0.15011500  1
  C  658  1  0.85185800  0.17027200  0.19699100  1
  C  659  1  0.84820300  0.16549500  0.21985900  1
  C  660  1  0.85037300  0.18328100  0.23620000  1
  C  661  1  0.85560300  0.20624000  0.22857900  1
  C  662  1  0.85996000  0.21083800  0.20561800  1
  C  679  1  0.76898800  0.22370300  0.13715200  1
  C  680  1  0.90796500  0.11969500  0.11847800  1
  C  683  1  0.93036600  0.26789800  0.13742800  1
  C  685  1  0.84631600  0.17700100  0.25849500  1
  C  687  1  0.75739400  0.79599500  0.12908400  1
  C  688  1  0.75247200  0.80139700  0.15185200  1
  C  689  1  0.73339000  0.79099800  0.16288400  1
  C  690  1  0.71930600  0.77366600  0.15221800  1
  C  691  1  0.72394200  0.76916800  0.12910100  1
  C  692  1  0.74294000  0.77959000  0.11788200  1
  C  693  1  0.69842500  0.76257500  0.16421500  1
  C  694  1  0.67945100  0.78033700  0.15816900  1
  C  695  1  0.66686000  0.77846900  0.13755200  1
  C  696  1  0.64954900  0.79464200  0.13131100  1
  C  697  1  0.64475300  0.81436800  0.14479800  1
  C  698  1  0.65884000  0.81760600  0.16427600  1
  C  699  1  0.67587000  0.80113700  0.17077700  1
  C  700  1  0.70275300  0.75879800  0.18931100  1
  C  701  1  0.69238600  0.73756300  0.15699300  1
  C  702  1  0.66907200  0.72913200  0.15884800  1
  C  703  1  0.66290900  0.70636200  0.15235300  1
  C  704  1  0.67980100  0.69043300  0.14406400  1
  C  705  1  0.70329600  0.69835100  0.14266700  1
  C  706  1  0.70955500  0.72098200  0.15011300  1
  C  707  1  0.72511700  0.75135000  0.19699300  1
  C  708  1  0.72988600  0.74767800  0.21985900  1
  C  709  1  0.71210300  0.74985200  0.23620200  1
  C  710  1  0.68914600  0.75508900  0.22857700  1
  C  711  1  0.68455000  0.75944700  0.20561500  1
  C  728  1  0.67168900  0.66847700  0.13714200  1
  C  729  1  0.77571100  0.80746700  0.11846400  1
  C  732  1  0.62748800  0.82986300  0.13743400  1
  C  734  1  0.71838500  0.74579600  0.25849900  1
  C  736  1  0.23851900  0.99885600  0.12907800  1
  C  737  1  0.24343700  0.99346200  0.15184800  1
  C  738  1  0.26250800  0.00387600  0.16288600  1
  C  739  1  0.27659000  0.02121000  0.15222000  1
  C  740  1  0.27195300  0.02570400  0.12910200  1
  C  741  1  0.25296600  0.01527000  0.11787800  1
  C  742  1  0.29747200  0.03230000  0.16421700  1
  C  743  1  0.31644000  0.01453800  0.15815400  1
  C  744  1  0.32904100  0.01641400  0.13754500  1
  C  745  1  0.34634600  0.00023800  0.13130200  1
  C  746  1  0.35114000  0.98051400  0.14479000  1
  C  747  1  0.33705400  0.97727600  0.16426900  1
  C  748  1  0.32002700  0.99374600  0.17077300  1
  C  749  1  0.29315100  0.03607300  0.18931600  1
  C  750  1  0.30351100  0.05731300  0.15699300  1
  C  751  1  0.32682900  0.06574100  0.15884100  1
  C  752  1  0.33299100  0.08851200  0.15235200  1
  C  753  1  0.31610300  0.10443600  0.14404800  1
  C  754  1  0.29260500  0.09652400  0.14266500  1
  C  755  1  0.28634600  0.07389400  0.15011400  1
  C  756  1  0.27079100  0.04354600  0.19698600  1
  C  757  1  0.26601300  0.04719800  0.21985400  1
  C  758  1  0.28379400  0.04502900  0.23620200  1
  C  759  1  0.30675400  0.03980300  0.22857900  1
  C  760  1  0.31135200  0.03543100  0.20562000  1
  C  777  1  0.32421400  0.12639900  0.13714600  1
  C  778  1  0.22019700  0.98739100  0.11846100  1
  C  781  1  0.36840700  0.96501800  0.13743100  1
  C  783  1  0.27750700  0.04909400  0.25849700  1
  C  785  1  0.59927200  0.63674200  0.62813700  1
  C  786  1  0.59349400  0.64246600  0.65066300  1
  C  787  1  0.60397100  0.66145500  0.66171800  1
  C  788  1  0.62134100  0.67545500  0.65115300  1
  C  789  1  0.62558600  0.67087100  0.62792800  1
  C  790  1  0.61531500  0.65158500  0.61677300  1
  C  791  1  0.63218100  0.69627700  0.66353000  1
  C  792  1  0.61438600  0.71518700  0.65784800  1
  C  793  1  0.61588600  0.72871700  0.63774500  1
  C  794  1  0.59967300  0.74649100  0.63284700  1
  C  795  1  0.58075900  0.75085300  0.64757200  1
  C  796  1  0.57842700  0.73647100  0.66703000  1
  C  797  1  0.59437100  0.71855800  0.67155400  1
  C  798  1  0.63594100  0.69221800  0.68874600  1
  C  799  1  0.65690400  0.70295300  0.65655900  1
  C  800  1  0.66519000  0.72638000  0.65843200  1
  C  801  1  0.68810500  0.73244900  0.65235800  1
  C  802  1  0.70419900  0.71503800  0.64553700  1
  C  803  1  0.69652900  0.69150900  0.64447200  1
  C  804  1  0.67350900  0.68558100  0.65053600  1
  C  805  1  0.64305000  0.67014300  0.69751000  1
  C  806  1  0.64628300  0.66647300  0.72076900  1
  C  807  1  0.64316200  0.68501200  0.73628500  1
  C  808  1  0.63783100  0.70751600  0.72744000  1
  C  809  1  0.63503200  0.71109000  0.70427800  1
  C  826  1  0.72692100  0.72176500  0.64064500  1
  C  827  1  0.58992300  0.61596300  0.61946400  1
  C  830  1  0.56314200  0.76618400  0.64103900  1
  C  832  1  0.64917300  0.68193700  0.75886000  1
  C  834  1  0.39662900  0.15813500  0.62813500  1
  C  835  1  0.40241000  0.15241000  0.65065900  1
  C  836  1  0.39194300  0.13341300  0.66171100  1
  C  837  1  0.37455600  0.11942500  0.65115800  1
  C  838  1  0.37032500  0.12400000  0.62792600  1
  C  839  1  0.38059300  0.14328800  0.61677100  1
  C  840  1  0.36374800  0.09859000  0.66353300  1
  C  841  1  0.38154600  0.07969200  0.65783900  1
  C  842  1  0.38005900  0.06616800  0.63773300  1
  C  843  1  0.39626800  0.04838600  0.63284800  1
  C  844  1  0.41517000  0.04399700  0.64758600  1
  C  845  1  0.41749900  0.05840800  0.66702800  1
  C  846  1  0.40156500  0.07633100  0.67154000  1
  C  847  1  0.35998400  0.10265000  0.68874800  1
  C  848  1  0.33904600  0.09187000  0.65657400  1
  C  849  1  0.33076100  0.06843300  0.65847300  1
  C  850  1  0.30784100  0.06232400  0.65242500  1
  C  851  1  0.29178800  0.07973900  0.64557200  1
  C  852  1  0.29943800  0.10328200  0.64454900  1
  C  853  1  0.32243900  0.10924000  0.65058000  1
  C  854  1  0.35285900  0.12471700  0.69752200  1
  C  855  1  0.34962600  0.12838000  0.72078400  1
  C  856  1  0.35276800  0.10983600  0.73629400  1
  C  857  1  0.35809100  0.08733700  0.72744000  1
  C  858  1  0.36088200  0.08377300  0.70427600  1
  C  875  1  0.26909000  0.07316000  0.64052200  1
  C  876  1  0.40597700  0.17891400  0.61946400  1
  C  879  1  0.43267800  0.02847000  0.64113900  1
  C  881  1  0.34671900  0.11289100  0.75884600  1
  C  883  1  0.25863900  0.49874500  0.62812300  1
  C  884  1  0.25292400  0.49297600  0.65065400  1
  C  885  1  0.23392800  0.50344100  0.66170500  1
  C  886  1  0.21993900  0.52082800  0.65115300  1
  C  887  1  0.22452200  0.52507100  0.62792500  1
  C  888  1  0.24380300  0.51479500  0.61676400  1
  C  889  1  0.19910600  0.53163500  0.66353000  1
  C  890  1  0.18020600  0.51383600  0.65783900  1
  C  891  1  0.16668300  0.51532500  0.63773300  1
  C  892  1  0.14889900  0.49911800  0.63285000  1
  C  893  1  0.14449100  0.48022300  0.64759400  1
  C  894  1  0.15891700  0.47788500  0.66702400  1
  C  895  1  0.17684300  0.49381800  0.67153700  1
  C  896  1  0.20317000  0.53539400  0.68874500  1
  C  897  1  0.19238400  0.55633900  0.65657400  1
  C  898  1  0.16894700  0.56462300  0.65847300  1
  C  899  1  0.16283600  0.58754100  0.65241500  1
  C  900  1  0.18025300  0.60359800  0.64556900  1
  C  901  1  0.20379500  0.59594600  0.64454200  1
  C  902  1  0.20975300  0.57294500  0.65057800  1
  C  903  1  0.22524100  0.54251300  0.69751400  1
  C  904  1  0.22891000  0.54574400  0.72077600  1
  C  905  1  0.21035600  0.54263900  0.73627300  1
  C  906  1  0.18785800  0.53729000  0.72743500  1
  C  907  1  0.18429400  0.53449100  0.70427100  1
  C  924  1  0.17367400  0.62629800  0.64052200  1
  C  925  1  0.27943000  0.48941100  0.61946600  1
  C  928  1  0.12898100  0.46271800  0.64112700  1
  C  930  1  0.21335100  0.54874400  0.75881900  1
  C  932  1  0.73726500  0.29613400  0.62812800  1
  C  933  1  0.74298200  0.30189700  0.65065900  1
  C  934  1  0.76197800  0.29142700  0.66170800  1
  C  935  1  0.77595900  0.27403600  0.65115000  1
  C  936  1  0.77137500  0.26979700  0.62792300  1
  C  937  1  0.75209600  0.28007800  0.61676800  1
  C  938  1  0.79679100  0.26323000  0.66353300  1
  C  939  1  0.81568900  0.28102700  0.65784100  1
  C  940  1  0.82921400  0.27953200  0.63773700  1
  C  941  1  0.84699700  0.29574100  0.63285500  1
  C  942  1  0.85138500  0.31464800  0.64759100  1
  C  943  1  0.83695000  0.31699000  0.66701400  1
  C  944  1  0.81905400  0.30103600  0.67154700  1
  C  945  1  0.79272200  0.25947000  0.68874600  1
  C  946  1  0.80351100  0.23852600  0.65658000  1
  C  947  1  0.82694700  0.23024300  0.65848000  1
  C  948  1  0.83305600  0.20732500  0.65242300  1
  C  949  1  0.81564400  0.19127800  0.64555000  1
  C  950  1  0.79210100  0.19893100  0.64452600  1
  C  951  1  0.78613900  0.22192200  0.65058500  1
  C  952  1  0.77065100  0.25235700  0.69751700  1
  C  953  1  0.76699100  0.24911200  0.72077600  1
  C  954  1  0.78554200  0.25223800  0.73627300  1
  C  955  1  0.80804100  0.25758500  0.72743400  1
  C  956  1  0.81160300  0.26037700  0.70426900  1
  C  973  1  0.82222300  0.16858000  0.64051400  1
  C  974  1  0.71647900  0.30547500  0.61946900  1
  C  977  1  0.86679700  0.33223000  0.64110500  1
  C  979  1  0.78254900  0.24613800  0.75881900  1
  C  981  1  0.39664100  0.63676000  0.47912800  1
  C  982  1  0.40240000  0.64247400  0.45659500  1
  C  983  1  0.39192700  0.66147000  0.44554800  1
  C  984  1  0.37454500  0.67545400  0.45611000  1
  C  985  1  0.37030300  0.67086600  0.47933700  1
  C  986  1  0.38058400  0.65158600  0.49049200  1
  C  987  1  0.36374400  0.69628900  0.44372600  1
  C  988  1  0.38154800  0.71518200  0.44942000  1
  C  989  1  0.38006700  0.72870300  0.46953000  1
  C  990  1  0.39627000  0.74650000  0.47439800  1
  C  991  1  0.41517900  0.75087900  0.45966000  1
  C  992  1  0.41751900  0.73643400  0.44024500  1
  C  993  1  0.40155400  0.71854600  0.43570900  1
  C  994  1  0.35997000  0.69222300  0.41851500  1
  C  995  1  0.33904200  0.70300000  0.45068600  1
  C  996  1  0.33076500  0.72644000  0.44879300  1
  C  997  1  0.30785000  0.73255000  0.45485600  1
  C  998  1  0.29180300  0.71513600  0.46172400  1
  C  999  1  0.29945000  0.69159000  0.46273900  1
  C  1000  1  0.32244100  0.68562800  0.45668400  1
  C  1001  1  0.35284200  0.67015700  0.40974700  1
  C  1002  1  0.34960500  0.66649400  0.38648700  1
  C  1003  1  0.35276500  0.68501900  0.37096100  1
  C  1004  1  0.35806600  0.70752600  0.37982100  1
  C  1005  1  0.36086100  0.71110000  0.40298500  1
  C  1022  1  0.26910500  0.72171600  0.46675800  1
  C  1023  1  0.40601400  0.61599200  0.48779100  1
  C  1026  1  0.43269900  0.76638300  0.46612100  1
  C  1028  1  0.34683600  0.68191400  0.34836600  1
  C  1030  1  0.59924400  0.15810300  0.47913800  1
  C  1031  1  0.59350600  0.15240700  0.45659700  1
  C  1032  1  0.60397300  0.13341100  0.44554600  1
  C  1033  1  0.62134300  0.11941600  0.45611000  1
  C  1034  1  0.62560100  0.12400900  0.47933300  1
  C  1035  1  0.61531300  0.14328300  0.49049300  1
  C  1036  1  0.63216200  0.09858700  0.44372600  1
  C  1037  1  0.61436500  0.07968700  0.44941700  1
  C  1038  1  0.61585200  0.06616400  0.46952500  1
  C  1039  1  0.59964600  0.04837600  0.47440300  1
  C  1040  1  0.58073800  0.04400600  0.45966700  1
  C  1041  1  0.57840100  0.05842400  0.44023500  1
  C  1042  1  0.59435900  0.07632000  0.43570600  1
  C  1043  1  0.63593500  0.10265400  0.41851500  1
  C  1044  1  0.65686400  0.09187800  0.45068600  1
  C  1045  1  0.66514400  0.06843900  0.44878500  1
  C  1046  1  0.68805200  0.06232500  0.45486500  1
  C  1047  1  0.70410100  0.07974100  0.46172600  1
  C  1048  1  0.69645500  0.10328700  0.46273700  1
  C  1049  1  0.67346300  0.10924900  0.45668800  1
  C  1050  1  0.64305900  0.12472600  0.40975200  1
  C  1051  1  0.64629700  0.12840000  0.38649500  1
  C  1052  1  0.64319200  0.10986000  0.37098300  1
  C  1053  1  0.63784500  0.08735500  0.37981700  1
  C  1054  1  0.63503900  0.08378000  0.40298200  1
  C  1071  1  0.72679900  0.07316100  0.46675800  1
  C  1072  1  0.58988000  0.17887000  0.48780700  1
  C  1075  1  0.56316300  0.02861300  0.46617800  1
  C  1077  1  0.64910600  0.11298500  0.34839300  1
  C  1079  1  0.73725700  0.49875500  0.47913300  1
  C  1080  1  0.74297300  0.49299000  0.45660400  1
  C  1081  1  0.76196600  0.50346200  0.44555000  1
  C  1082  1  0.77596800  0.52082700  0.45611500  1
  C  1083  1  0.77138800  0.52506900  0.47934200  1
  C  1084  1  0.75210100  0.51479500  0.49049800  1
  C  1085  1  0.79679800  0.53164700  0.44373000  1
  C  1086  1  0.81569800  0.51385200  0.44941900  1
  C  1087  1  0.82922600  0.51534500  0.46952300  1
  C  1088  1  0.84701100  0.49913500  0.47440600  1
  C  1089  1  0.85136200  0.48021800  0.45968000  1
  C  1090  1  0.83695000  0.47788000  0.44024500  1
  C  1091  1  0.81905900  0.49384100  0.43570900  1
  C  1092  1  0.79273100  0.53542100  0.41851600  1
  C  1093  1  0.80350900  0.55635100  0.45068900  1
  C  1094  1  0.82694700  0.56463300  0.44878500  1
  C  1095  1  0.83305800  0.58754500  0.45485600  1
  C  1096  1  0.81564400  0.60359500  0.46172100  1
  C  1097  1  0.79209900  0.59594800  0.46273200  1
  C  1098  1  0.78613900  0.57295100  0.45669100  1
  C  1099  1  0.77066100  0.54254800  0.40975700  1
  C  1100  1  0.76699100  0.54579800  0.38650000  1
  C  1101  1  0.78552000  0.54267400  0.37097600  1
  C  1102  1  0.80802700  0.53733700  0.37981900  1
  C  1103  1  0.81160300  0.53452800  0.40298200  1
  C  1120  1  0.82222500  0.62629300  0.46675900  1
  C  1121  1  0.71647900  0.48939800  0.48780200  1
  C  1124  1  0.86677600  0.46264800  0.46616600  1
  C  1126  1  0.78240400  0.54858600  0.34837800  1
  C  1128  1  0.25864600  0.29611600  0.47913800  1
  C  1129  1  0.25292900  0.30188300  0.45660700  1
  C  1130  1  0.23393500  0.29141600  0.44555300  1
  C  1131  1  0.21993400  0.27404800  0.45611700  1
  C  1132  1  0.22452300  0.26979300  0.47934200  1
  C  1133  1  0.24379900  0.28007800  0.49050200  1
  C  1134  1  0.19910700  0.26322400  0.44373500  1
  C  1135  1  0.18020100  0.28101100  0.44942500  1
  C  1136  1  0.16667400  0.27950700  0.46953000  1
  C  1137  1  0.14889600  0.29571700  0.47442300  1
  C  1138  1  0.14453500  0.31462900  0.45969600  1
  C  1139  1  0.15893900  0.31697400  0.44025500  1
  C  1140  1  0.17683300  0.30101900  0.43571600  1
  C  1141  1  0.20317000  0.25945100  0.41852100  1
  C  1142  1  0.19239500  0.23851900  0.45068900  1
  C  1143  1  0.16895500  0.23023800  0.44879000  1
  C  1144  1  0.16284200  0.20732800  0.45486500  1
  C  1145  1  0.18025800  0.19127300  0.46171800  1
  C  1146  1  0.20380200  0.19892200  0.46273400  1
  C  1147  1  0.20976300  0.22191900  0.45669300  1
  C  1148  1  0.22524500  0.25233600  0.40976600  1
  C  1149  1  0.22891700  0.24909400  0.38650700  1
  C  1150  1  0.21038600  0.25222500  0.37098300  1
  C  1151  1  0.18787600  0.25752900  0.37983100  1
  C  1152  1  0.18429800  0.26034700  0.40299200  1
  C  1169  1  0.17367700  0.16857300  0.46675100  1
  C  1170  1  0.27942500  0.30546600  0.48780600  1
  C  1173  1  0.12919900  0.33224200  0.46622000  1
  C  1175  1  0.21344800  0.24622000  0.34840800  1
  C  1177  1  0.39657800  0.15694800  0.47824300  1
  C  1178  1  0.40191500  0.15207000  0.45544900  1
  C  1179  1  0.39140900  0.13307600  0.44439700  1
  C  1180  1  0.37402700  0.11909400  0.45509700  1
  C  1181  1  0.36963600  0.12361500  0.47824000  1
  C  1182  1  0.38016200  0.14252900  0.48947200  1
  C  1183  1  0.36306500  0.09813800  0.44328800  1
  C  1184  1  0.38096900  0.07924600  0.44941200  1
  C  1185  1  0.37900000  0.06644500  0.46988000  1
  C  1186  1  0.39513900  0.04906100  0.47602400  1
  C  1187  1  0.41485800  0.04426900  0.46252000  1
  C  1188  1  0.41811200  0.05839800  0.44308100  1
  C  1189  1  0.40175400  0.07559200  0.43675200  1
  C  1190  1  0.35952400  0.10228500  0.41820100  1
  C  1191  1  0.33804300  0.09199300  0.45036400  1
  C  1192  1  0.32966900  0.06864900  0.44851000  1
  C  1193  1  0.30689100  0.06244500  0.45494200  1
  C  1194  1  0.29093500  0.07930900  0.46323400  1
  C  1195  1  0.29881300  0.10281800  0.46464100  1
  C  1196  1  0.32142500  0.10913000  0.45719000  1
  C  1197  1  0.35233700  0.12440500  0.40954500  1
  C  1198  1  0.34947200  0.12825400  0.38630700  1
  C  1199  1  0.35274500  0.10976100  0.37079200  1
  C  1200  1  0.35811000  0.08721100  0.37956000  1
  C  1201  1  0.36086500  0.08349900  0.40269700  1
  C  1218  1  0.26897900  0.07117300  0.47012100  1
  C  1219  1  0.40807900  0.17525400  0.48883500  1
  C  1222  1  0.43036400  0.02698500  0.46983000  1
  C  1224  1  0.34678500  0.11295700  0.34825100  1
  C  1226  1  0.59932400  0.63792400  0.47824300  1
  C  1227  1  0.59398400  0.64280500  0.45545100  1
  C  1228  1  0.60448600  0.66180100  0.44440000  1
  C  1229  1  0.62187900  0.67577900  0.45509000  1
  C  1230  1  0.62626000  0.67126200  0.47823800  1
  C  1231  1  0.61574000  0.65234300  0.48946900  1
  C  1232  1  0.63283400  0.69673900  0.44328300  1
  C  1233  1  0.61493200  0.71563300  0.44940500  1
  C  1234  1  0.61689000  0.72842300  0.46988200  1
  C  1235  1  0.60074400  0.74579600  0.47603700  1
  C  1236  1  0.58102000  0.75058900  0.46254000  1
  C  1237  1  0.57776100  0.73645900  0.44310500  1
  C  1238  1  0.59413100  0.71927800  0.43676400  1
  C  1239  1  0.63636600  0.69259400  0.41819500  1
  C  1240  1  0.65785400  0.70288100  0.45036400  1
  C  1241  1  0.66623300  0.72622300  0.44850500  1
  C  1242  1  0.68901100  0.73242800  0.45493900  1
  C  1243  1  0.70496700  0.71556300  0.46323300  1
  C  1244  1  0.69709300  0.69205300  0.46462300  1
  C  1245  1  0.67447300  0.68574500  0.45719000  1
  C  1246  1  0.64356000  0.67047900  0.40953000  1
  C  1247  1  0.64642000  0.66666667  0.38628600  1
  C  1248  1  0.64312400  0.68513600  0.37078100  1
  C  1249  1  0.63777100  0.70768200  0.37955600  1
  C  1250  1  0.63502900  0.71138400  0.40269500  1
  C  1267  1  0.72692100  0.72370100  0.47012400  1
  C  1268  1  0.58782100  0.61961900  0.48883500  1
  C  1271  1  0.56555900  0.76793400  0.46981300  1
  C  1273  1  0.64912400  0.68195800  0.34826100  1
  C  1275  1  0.73843300  0.29604200  0.47823100  1
  C  1276  1  0.74331500  0.30140200  0.45544600  1
  C  1277  1  0.76231600  0.29090900  0.44439900  1
  C  1278  1  0.77629500  0.27351400  0.45508500  1
  C  1279  1  0.77178100  0.26912500  0.47823000  1
  C  1280  1  0.75285400  0.27962600  0.48945700  1
  C  1281  1  0.79725400  0.26256100  0.44328300  1
  C  1282  1  0.81614600  0.28046100  0.44940700  1
  C  1283  1  0.82893400  0.27850300  0.46988300  1
  C  1284  1  0.84631300  0.29464600  0.47603400  1
  C  1285  1  0.85111700  0.31435900  0.46252800  1
  C  1286  1  0.83697800  0.31762500  0.44310000  1
  C  1287  1  0.81979000  0.30126200  0.43676400  1
  C  1288  1  0.79310200  0.25903200  0.41819800  1
  C  1289  1  0.80339500  0.23754000  0.45036000  1
  C  1290  1  0.82673900  0.22916500  0.44850400  1
  C  1291  1  0.83294200  0.20638500  0.45492700  1
  C  1292  1  0.81607800  0.19043300  0.46322200  1
  C  1293  1  0.79256800  0.19830400  0.46462600  1
  C  1294  1  0.78625800  0.22092100  0.45718500  1
  C  1295  1  0.77098300  0.25184400  0.40953700  1
  C  1296  1  0.76713800  0.24897700  0.38629600  1
  C  1297  1  0.78564400  0.25224300  0.37079900  1
  C  1298  1  0.80818900  0.25762300  0.37956000  1
  C  1299  1  0.81189100  0.26037500  0.40269700  1
  C  1316  1  0.82421200  0.16848000  0.47011100  1
  C  1317  1  0.72014100  0.30754400  0.48883500  1
  C  1320  1  0.86845800  0.32981600  0.46980800  1
  C  1322  1  0.78252800  0.24618500  0.34829000  1
  C  1324  1  0.25748900  0.49888100  0.47821600  1
  C  1325  1  0.25259800  0.49349600  0.45544300  1
  C  1326  1  0.23358100  0.50396600  0.44440000  1
  C  1327  1  0.21959500  0.52135500  0.45509000  1
  C  1328  1  0.22411200  0.52576300  0.47822800  1
  C  1329  1  0.24305200  0.51528300  0.48944900  1
  C  1330  1  0.19864300  0.53231000  0.44328000  1
  C  1331  1  0.17975100  0.51440800  0.44940000  1
  C  1332  1  0.16697500  0.51637000  0.46988500  1
  C  1333  1  0.14959200  0.50023400  0.47603700  1
  C  1334  1  0.14478700  0.48051600  0.46253700  1
  C  1335  1  0.15892600  0.47724200  0.44310800  1
  C  1336  1  0.17610700  0.49361000  0.43676000  1
  C  1337  1  0.20280600  0.53583900  0.41819800  1
  C  1338  1  0.19250300  0.55733300  0.45035700  1
  C  1339  1  0.16916000  0.56570600  0.44850200  1
  C  1340  1  0.16295300  0.58848300  0.45493000  1
  C  1341  1  0.17981700  0.60444000  0.46321900  1
  C  1342  1  0.20332600  0.59656600  0.46462800  1
  C  1343  1  0.20964100  0.57395700  0.45716800  1
  C  1344  1  0.22492200  0.54303100  0.40954000  1
  C  1345  1  0.22876300  0.54590500  0.38630000  1
  C  1346  1  0.21026500  0.54262000  0.37079700  1
  C  1347  1  0.18771800  0.53725000  0.37956500  1
  C  1348  1  0.18401400  0.53450000  0.40270000  1
  C  1365  1  0.17168000  0.62639600  0.47009600  1
  C  1366  1  0.27576000  0.48737000  0.48883200  1
  C  1369  1  0.12744200  0.46506400  0.46981800  1
  C  1371  1  0.21337400  0.54868100  0.34828800  1
  C  1373  1  0.59932400  0.15693800  0.62903700  1
  C  1374  1  0.59398400  0.15206000  0.65182700  1
  C  1375  1  0.60449100  0.13306600  0.66287800  1
  C  1376  1  0.62187900  0.11908600  0.65218300  1
  C  1377  1  0.62626700  0.12360600  0.62903800  1
  C  1378  1  0.61573700  0.14251700  0.61780600  1
  C  1379  1  0.63283500  0.09813000  0.66399300  1
  C  1380  1  0.61493000  0.07923600  0.65787800  1
  C  1381  1  0.61688500  0.06646300  0.63739100  1
  C  1382  1  0.60074700  0.04907600  0.63124400  1
  C  1383  1  0.58102800  0.04427100  0.64474500  1
  C  1384  1  0.57775500  0.05841700  0.66416700  1
  C  1385  1  0.59413100  0.07559000  0.67051900  1
  C  1386  1  0.63637800  0.10228100  0.68908000  1
  C  1387  1  0.65785600  0.09199200  0.65690700  1
  C  1388  1  0.66623100  0.06864900  0.65876400  1
  C  1389  1  0.68901100  0.06244400  0.65233900  1
  C  1390  1  0.70496700  0.07930700  0.64404500  1
  C  1391  1  0.69709400  0.10281800  0.64264800  1
  C  1392  1  0.67448000  0.10913000  0.65009800  1
  C  1393  1  0.64358100  0.12439300  0.69773800  1
  C  1394  1  0.64644400  0.12823500  0.72098000  1
  C  1395  1  0.64313300  0.10975600  0.73650400  1
  C  1396  1  0.63779600  0.08720200  0.72772200  1
  C  1397  1  0.63505000  0.08349200  0.70458300  1
  C  1414  1  0.72692300  0.07117000  0.63715700  1
  C  1415  1  0.58782300  0.17523700  0.61844300  1
  C  1418  1  0.56557000  0.02693200  0.63745500  1
  C  1420  1  0.64900300  0.11298700  0.75906900  1
  C  1422  1  0.39650100  0.63790800  0.62907400  1
  C  1423  1  0.40190200  0.64280300  0.65184000  1
  C  1424  1  0.39141600  0.66181000  0.66288900  1
  C  1425  1  0.37403100  0.67579700  0.65219800  1
  C  1426  1  0.36962200  0.67128600  0.62905900  1
  C  1427  1  0.38010100  0.65234600  0.61783900  1
  C  1428  1  0.36306300  0.69674900  0.66399800  1
  C  1429  1  0.38096400  0.71564400  0.65788000  1
  C  1430  1  0.37900700  0.72842100  0.63739300  1
  C  1431  1  0.39513800  0.74581400  0.63125100  1
  C  1432  1  0.41484900  0.75062200  0.64475800  1
  C  1433  1  0.41812100  0.73647800  0.66418500  1
  C  1434  1  0.40175700  0.71929200  0.67052600  1
  C  1435  1  0.35952200  0.69259300  0.68908200  1
  C  1436  1  0.33804300  0.70288400  0.65691100  1
  C  1437  1  0.32966400  0.72622600  0.65877800  1
  C  1438  1  0.30688700  0.73243100  0.65234300  1
  C  1439  1  0.29093000  0.71556500  0.64405200  1
  C  1440  1  0.29880800  0.69205700  0.64264700  1
  C  1441  1  0.32142400  0.68574700  0.65009000  1
  C  1442  1  0.35231800  0.67047700  0.69773100  1
  C  1443  1  0.34946000  0.66666667  0.72097100  1
  C  1444  1  0.35271500  0.68511500  0.73648200  1
  C  1445  1  0.35809400  0.70766800  0.72772500  1
  C  1446  1  0.36085400  0.71138000  0.70458800  1
  C  1463  1  0.26897900  0.72370400  0.63715200  1
  C  1464  1  0.40801500  0.61964700  0.61845300  1
  C  1467  1  0.43035200  0.76789700  0.63743000  1
  C  1469  1  0.34685500  0.68186300  0.75904000  1
  C  1471  1  0.25747600  0.29601100  0.62904800  1
  C  1472  1  0.25258400  0.30139100  0.65182500  1
  C  1473  1  0.23358500  0.29089800  0.66287900  1
  C  1474  1  0.21959300  0.27352000  0.65218400  1
  C  1475  1  0.22410900  0.26911400  0.62904300  1
  C  1476  1  0.24304700  0.27960400  0.61782100  1
  C  1477  1  0.19864000  0.26255400  0.66399100  1
  C  1478  1  0.17974400  0.28045400  0.65787600  1
  C  1479  1  0.16695800  0.27849200  0.63739800  1
  C  1480  1  0.14957200  0.29463000  0.63125100  1
  C  1481  1  0.14478000  0.31435400  0.64475000  1
  C  1482  1  0.15891000  0.31761300  0.66418700  1
  C  1483  1  0.17610000  0.30125000  0.67052300  1
  C  1484  1  0.20279500  0.25901100  0.68907700  1
  C  1485  1  0.19250500  0.23753200  0.65690700  1
  C  1486  1  0.16916400  0.22915100  0.65877800  1
  C  1487  1  0.16295900  0.20637500  0.65234100  1
  C  1488  1  0.17982400  0.19041500  0.64405700  1
  C  1489  1  0.20333300  0.19829500  0.64265000  1
  C  1490  1  0.20964200  0.22091300  0.65008600  1
  C  1491  1  0.22491400  0.25181800  0.69772900  1
  C  1492  1  0.22876100  0.24893000  0.72096600  1
  C  1493  1  0.21027800  0.25221000  0.73648600  1
  C  1494  1  0.18772500  0.25758300  0.72772200  1
  C  1495  1  0.18401100  0.26034200  0.70458400  1
  C  1512  1  0.17168600  0.16846800  0.63714700  1
  C  1513  1  0.27576000  0.30751600  0.61843900  1
  C  1516  1  0.12748700  0.32984600  0.63743700  1
  C  1518  1  0.21352100  0.24634300  0.75904000  1
  C  1520  1  0.73843600  0.49884100  0.62904500  1
  C  1521  1  0.74332700  0.49346800  0.65182500  1
  C  1522  1  0.76231400  0.50397800  0.66288400  1
  C  1523  1  0.77630100  0.52136100  0.65218900  1
  C  1524  1  0.77178700  0.52576100  0.62904700  1
  C  1525  1  0.75285900  0.51525900  0.61781900  1
  C  1526  1  0.79725700  0.53232600  0.66399300  1
  C  1527  1  0.81614800  0.51442200  0.65786600  1
  C  1528  1  0.82894100  0.51639100  0.63739400  1
  C  1529  1  0.84632200  0.50025000  0.63124400  1
  C  1530  1  0.85111200  0.48052800  0.64474300  1
  C  1531  1  0.83698400  0.47726900  0.66418200  1
  C  1532  1  0.81979700  0.49363400  0.67052100  1
  C  1533  1  0.79310900  0.53587400  0.68908000  1
  C  1534  1  0.80339400  0.55734700  0.65690600  1
  C  1535  1  0.82673600  0.56572500  0.65876600  1
  C  1536  1  0.83293900  0.58850700  0.65233400  1
  C  1537  1  0.81607500  0.60445800  0.64403400  1
  C  1538  1  0.79256600  0.59657800  0.64263200  1
  C  1539  1  0.78625600  0.57396600  0.65008600  1
  C  1540  1  0.77099200  0.54307500  0.69772800  1
  C  1541  1  0.76714100  0.54593700  0.72096800  1
  C  1542  1  0.78561900  0.54264900  0.73649400  1
  C  1543  1  0.80817900  0.53731600  0.72772000  1
  C  1544  1  0.81189500  0.53454000  0.70458600  1
  C  1561  1  0.82419400  0.62642200  0.63715400  1
  C  1562  1  0.72014800  0.48734300  0.61843800  1
  C  1565  1  0.86840700  0.46503400  0.63743300  1
  C  1567  1  0.78237600  0.54851500  0.75905700  1
  C  1569  1  0.02218700  0.27060700  0.15085400  1
  C  1570  1  0.00821700  0.26439500  0.16944900  1
  C  1571  1  0.98404000  0.26535300  0.16715800  1
  C  1572  1  0.97415300  0.27129800  0.14618800  1
  C  1576  1  0.99666500  0.25257000  0.20369800  1
  C  1578  1  0.99812200  0.24420000  0.22712100  1
  C  1584  1  0.97367700  0.52431700  0.15085900  1
  C  1585  1  0.98766700  0.53053200  0.16943900  1
  C  1586  1  0.01184300  0.52957100  0.16713300  1
  C  1587  1  0.02171400  0.52362200  0.14615600  1
  C  1591  1  0.99923700  0.54231200  0.20369400  1
  C  1593  1  0.99778400  0.55067100  0.22712100  1
  C  1599  1  0.62484400  0.92170500  0.15084400  1
  C  1600  1  0.63105900  0.90772600  0.16943000  1
  C  1601  1  0.63007400  0.88354900  0.16714200  1
  C  1602  1  0.62412100  0.87366600  0.14617200  1
  C  1606  1  0.64281200  0.89616300  0.20369600  1
  C  1608  1  0.65118400  0.89761200  0.22712000  1
  C  1614  1  0.37119700  0.87315700  0.15085500  1
  C  1615  1  0.36489800  0.88714900  0.16942200  1
  C  1616  1  0.36584500  0.91132800  0.16713700  1
  C  1617  1  0.37178700  0.92122000  0.14617000  1
  C  1621  1  0.35310600  0.89870800  0.20368700  1
  C  1623  1  0.34471700  0.89725900  0.22710800  1
  C  1629  1  0.97369300  0.27065300  0.95642400  1
  C  1630  1  0.98766400  0.26437300  0.93784400  1
  C  1631  1  0.01184200  0.26530400  0.94015800  1
  C  1632  1  0.02173200  0.27128800  0.96112700  1
  C  1636  1  0.99922800  0.25259000  0.90358000  1
  C  1638  1  0.99777900  0.24420600  0.88015800  1
  C  1644  1  0.02220400  0.52421700  0.95643900  1
  C  1645  1  0.00824500  0.53048500  0.93784600  1
  C  1646  1  0.98406500  0.52954100  0.94014100  1
  C  1647  1  0.97417400  0.52357800  0.96111000  1
  C  1651  1  0.99668800  0.54228200  0.90358400  1
  C  1653  1  0.99813300  0.55067100  0.88016300  1
  C  1659  1  0.37115700  0.92168800  0.95643500  1
  C  1660  1  0.36488900  0.90772700  0.93784600  1
  C  1661  1  0.36582400  0.88354700  0.94014600  1
  C  1662  1  0.37176200  0.87365900  0.96112000  1
  C  1666  1  0.35310400  0.89616700  0.90358000  1
  C  1668  1  0.34471800  0.89761600  0.88016000  1
  C  1674  1  0.62478400  0.87319600  0.95641200  1
  C  1675  1  0.63099800  0.88717400  0.93782600  1
  C  1676  1  0.63005100  0.91135000  0.94012900  1
  C  1677  1  0.62411500  0.92122600  0.96110800  1
  C  1681  1  0.64278600  0.89872900  0.90356700  1
  C  1683  1  0.65118400  0.89727100  0.88015200  1
  C  1689  1  0.52219400  0.77059800  0.65085000  1
  C  1690  1  0.50822100  0.76439200  0.66944200  1
  C  1691  1  0.48404200  0.76534700  0.66715400  1
  C  1692  1  0.47414800  0.77129700  0.64618700  1
  C  1696  1  0.49666600  0.75256800  0.70369100  1
  C  1698  1  0.49812200  0.74420000  0.72711700  1
  C  1704  1  0.47367200  0.02432700  0.65086000  1
  C  1705  1  0.48766900  0.03054200  0.66943400  1
  C  1706  1  0.51184800  0.02958800  0.66712400  1
  C  1707  1  0.52171900  0.02364100  0.64614500  1
  C  1711  1  0.49924500  0.04231400  0.70369100  1
  C  1713  1  0.49778900  0.05067000  0.72712000  1
  C  1719  1  0.12484700  0.42171100  0.65084300  1
  C  1720  1  0.13106200  0.40772600  0.66942700  1
  C  1721  1  0.13007800  0.38354900  0.66713900  1
  C  1722  1  0.12412500  0.37366100  0.64617000  1
  C  1726  1  0.14281500  0.39616000  0.70369300  1
  C  1728  1  0.15118500  0.39761100  0.72711800  1
  C  1734  1  0.87119300  0.37315200  0.65085500  1
  C  1735  1  0.86489600  0.38714700  0.66941900  1
  C  1736  1  0.86583900  0.41133000  0.66713200  1
  C  1737  1  0.87178300  0.42122800  0.64616900  1
  C  1741  1  0.85310200  0.39871000  0.70368400  1
  C  1743  1  0.84471600  0.39725900  0.72710500  1
  C  1749  1  0.47367000  0.77061700  0.45642800  1
  C  1750  1  0.48765100  0.76434100  0.43785400  1
  C  1751  1  0.51183400  0.76528100  0.44016800  1
  C  1752  1  0.52172500  0.77126900  0.46113500  1
  C  1756  1  0.49922800  0.75258200  0.40358500  1
  C  1758  1  0.49777900  0.74420500  0.38016100  1
  C  1764  1  0.52220600  0.02422900  0.45644400  1
  C  1765  1  0.50824600  0.03049100  0.43784900  1
  C  1766  1  0.48406300  0.02954800  0.44014200  1
  C  1767  1  0.47416500  0.02358300  0.46110600  1
  C  1771  1  0.49668700  0.04228500  0.40358700  1
  C  1773  1  0.49813400  0.05067100  0.38016500  1
  C  1779  1  0.87115300  0.42169500  0.45643500  1
  C  1780  1  0.86488200  0.40772700  0.43784900  1
  C  1781  1  0.86582000  0.38354700  0.44014900  1
  C  1782  1  0.87175900  0.37365400  0.46112100  1
  C  1786  1  0.85310200  0.39616300  0.40358300  1
  C  1788  1  0.84471800  0.39761400  0.38016100  1
  C  1794  1  0.12478900  0.37318700  0.45641300  1
  C  1795  1  0.13100000  0.38717200  0.43782900  1
  C  1796  1  0.13005600  0.41135200  0.44013200  1
  C  1797  1  0.12411900  0.42123100  0.46111100  1
  C  1801  1  0.14278800  0.39873300  0.40357000  1
  C  1803  1  0.15118500  0.39727100  0.38015300  1
  C  1809  1  0.18943300  0.23554000  0.31712800  1
  C  1810  1  0.16891400  0.24305600  0.30610800  1
  C  1811  1  0.15761500  0.22790900  0.29124300  1
  C  1812  1  0.16703400  0.20545600  0.28758600  1
  C  1816  1  0.13815300  0.26463300  0.29560400  1
  C  1818  1  0.12313500  0.28545500  0.29353400  1
  C  1824  1  0.80648300  0.55934600  0.31715900  1
  C  1825  1  0.82699500  0.55182100  0.30612800  1
  C  1826  1  0.83829100  0.56696600  0.29125800  1
  C  1827  1  0.82887600  0.58942300  0.28760600  1
  C  1831  1  0.85774400  0.53023800  0.29561000  1
  C  1833  1  0.87276200  0.50941600  0.29353800  1
  C  1839  1  0.65986200  0.08891100  0.31715500  1
  C  1840  1  0.65234100  0.06839100  0.30613700  1
  C  1841  1  0.66747900  0.05710000  0.29126000  1
  C  1842  1  0.68993400  0.06651400  0.28760300  1
  C  1846  1  0.63074900  0.03765400  0.29560400  1
  C  1848  1  0.60993100  0.02262900  0.29353900  1
  C  1854  1  0.33603500  0.70591100  0.31716700  1
  C  1855  1  0.34353700  0.72646600  0.30616000  1
  C  1856  1  0.32841300  0.73775700  0.29126300  1
  C  1857  1  0.30595300  0.72835800  0.28761100  1
  C  1861  1  0.36514400  0.75720000  0.29560900  1
  C  1863  1  0.38595900  0.77222900  0.29354600  1
  C  1869  1  0.80641300  0.23547700  0.79018000  1
  C  1870  1  0.82695100  0.24305400  0.80115500  1
  C  1871  1  0.83825800  0.22792400  0.81604000  1
  C  1872  1  0.82884500  0.20546400  0.81972200  1
  C  1876  1  0.85771100  0.26464400  0.81165800  1
  C  1878  1  0.87274900  0.28545300  0.81372000  1
  C  1884  1  0.18948800  0.55940200  0.79018500  1
  C  1885  1  0.16894600  0.55182300  0.80115300  1
  C  1886  1  0.15762400  0.56695400  0.81602500  1
  C  1887  1  0.16705900  0.58939800  0.81974100  1
  C  1891  1  0.13819000  0.53022900  0.81165600  1
  C  1893  1  0.12315400  0.50941800  0.81372000  1
  C  1899  1  0.33598800  0.08895600  0.79015600  1
  C  1900  1  0.34356000  0.06842400  0.80113900  1
  C  1901  1  0.32842100  0.05712200  0.81602200  1
  C  1902  1  0.30596300  0.06654800  0.81970500  1
  C  1906  1  0.36515700  0.03767600  0.81165200  1
  C  1908  1  0.38596900  0.02264100  0.81371800  1
  C  1914  1  0.65985300  0.70595400  0.79014100  1
  C  1915  1  0.65233400  0.72647300  0.80116100  1
  C  1916  1  0.66747900  0.73777800  0.81602300  1
  C  1917  1  0.68992500  0.72835100  0.81969700  1
  C  1921  1  0.63074700  0.75722200  0.81168100  1
  C  1923  1  0.60993100  0.77225200  0.81373500  1
  C  1929  1  0.80645500  0.55932500  0.79019500  1
  C  1930  1  0.82699100  0.55181100  0.80117300  1
  C  1931  1  0.83830300  0.56697300  0.81600500  1
  C  1932  1  0.82886000  0.58942600  0.81962800  1
  C  1936  1  0.85775300  0.53022900  0.81164200  1
  C  1938  1  0.87276700  0.50940900  0.81372800  1
  C  1944  1  0.18944900  0.23554000  0.79019800  1
  C  1945  1  0.16891600  0.24306300  0.80117500  1
  C  1946  1  0.15759500  0.22790300  0.81600200  1
  C  1947  1  0.16702900  0.20544700  0.81962400  1
  C  1951  1  0.13815300  0.26464600  0.81163700  1
  C  1953  1  0.12313800  0.28546500  0.81372300  1
  C  1959  1  0.33605400  0.70593500  0.79020000  1
  C  1960  1  0.34357200  0.72647700  0.80116800  1
  C  1961  1  0.32841600  0.73779100  0.81600300  1
  C  1962  1  0.30596100  0.72835600  0.81962600  1
  C  1966  1  0.36516400  0.75722800  0.81164600  1
  C  1968  1  0.38598000  0.77224900  0.81372300  1
  C  1974  1  0.65985000  0.08899000  0.79018800  1
  C  1975  1  0.65235300  0.06841400  0.80114400  1
  C  1976  1  0.66749100  0.05709900  0.81600000  1
  C  1977  1  0.68995000  0.06652000  0.81962300  1
  C  1981  1  0.63074600  0.03766600  0.81164200  1
  C  1983  1  0.60993100  0.02264000  0.81371500  1
  C  1989  1  0.18951600  0.55938800  0.31700400  1
  C  1990  1  0.16895600  0.55181200  0.30608800  1
  C  1991  1  0.15762400  0.56696300  0.29125600  1
  C  1992  1  0.16703000  0.58943200  0.28762500  1
  C  1996  1  0.13818500  0.53021900  0.29563200  1
  C  1998  1  0.12314900  0.50941100  0.29355800  1
  C  2004  1  0.80638300  0.23548200  0.31699900  1
  C  2005  1  0.82694700  0.24305900  0.30609000  1
  C  2006  1  0.83829600  0.22790500  0.29127500  1
  C  2007  1  0.82886900  0.20545000  0.28761100  1
  C  2011  1  0.85771400  0.26465600  0.29563400  1
  C  2013  1  0.87274900  0.28546500  0.29355800  1
  C  2019  1  0.65990900  0.70588400  0.31703100  1
  C  2020  1  0.65233400  0.72644300  0.30611200  1
  C  2021  1  0.66748600  0.73777800  0.29128300  1
  C  2022  1  0.68994100  0.72835100  0.28762300  1
  C  2026  1  0.63073200  0.75720000  0.29563700  1
  C  2028  1  0.60992200  0.77223500  0.29356000  1
  C  2034  1  0.33606300  0.08894600  0.31704400  1
  C  2035  1  0.34357900  0.06840600  0.30607500  1
  C  2036  1  0.32841400  0.05708000  0.29125600  1
  C  2037  1  0.30596500  0.06652400  0.28762300  1
  C  2041  1  0.36516500  0.03764400  0.29560900  1
  C  2043  1  0.38598000  0.02261800  0.29354300  1
  C  2049  1  0.25752000  0.18924400  0.13836200  1
  C  2050  1  0.25944200  0.17189000  0.15528100  1
  C  2051  1  0.27781100  0.15569700  0.15386300  1
  C  2052  1  0.29313700  0.15631800  0.13516800  1
  C  2056  1  0.25444500  0.15119000  0.18695500  1
  C  2058  1  0.24339200  0.14287300  0.20789300  1
  C  2064  1  0.73837500  0.60562500  0.13836700  1
  C  2065  1  0.73646600  0.62299200  0.15527500  1
  C  2066  1  0.71808900  0.63917900  0.15386100  1
  C  2067  1  0.70276200  0.63855500  0.13516600  1
  C  2071  1  0.74145600  0.64368600  0.18695500  1
  C  2073  1  0.75250700  0.65200100  0.20789300  1
  C  2079  1  0.70614300  0.15700700  0.13836300  1
  C  2080  1  0.72348500  0.15894200  0.15529200  1
  C  2081  1  0.73969000  0.17730000  0.15386500  1
  C  2082  1  0.73907000  0.19262400  0.13516800  1
  C  2086  1  0.74419700  0.15393100  0.18695700  1
  C  2088  1  0.75251600  0.14287600  0.20789200  1
  C  2094  1  0.28977600  0.63784500  0.13835800  1
  C  2095  1  0.27241900  0.63593900  0.15527700  1
  C  2096  1  0.25620700  0.61758300  0.15385400  1
  C  2097  1  0.25683600  0.60224500  0.13516900  1
  C  2101  1  0.25171800  0.64095000  0.18695100  1
  C  2103  1  0.24339500  0.65200300  0.20788700  1
  C  2109  1  0.73834400  0.18928300  0.96890500  1
  C  2110  1  0.73646700  0.17189300  0.95201700  1
  C  2111  1  0.71808400  0.15571500  0.95343400  1
  C  2112  1  0.70271100  0.15639500  0.97209800  1
  C  2116  1  0.74145400  0.15120300  0.92033200  1
  C  2118  1  0.75250400  0.14288000  0.89939300  1
  C  2124  1  0.25756000  0.60559400  0.96890300  1
  C  2125  1  0.25944200  0.62298000  0.95200900  1
  C  2126  1  0.27783600  0.63914700  0.95340900  1
  C  2127  1  0.29319600  0.63843800  0.97207600  1
  C  2131  1  0.25444700  0.64367900  0.92033000  1
  C  2133  1  0.24339300  0.65199800  0.89939100  1
  C  2139  1  0.28978900  0.15705400  0.96889600  1
  C  2140  1  0.27239900  0.15891700  0.95200400  1
  C  2141  1  0.25622100  0.17730000  0.95340700  1
  C  2142  1  0.25683400  0.19262600  0.97210300  1
  C  2146  1  0.25171400  0.15392800  0.92031800  1
  C  2148  1  0.24339200  0.14287500  0.89938100  1
  C  2154  1  0.70614200  0.63786400  0.96890700  1
  C  2155  1  0.72349400  0.63594200  0.95198700  1
  C  2156  1  0.73968400  0.61756800  0.95340100  1
  C  2157  1  0.73907400  0.60225200  0.97210500  1
  C  2161  1  0.74419500  0.64093800  0.92031100  1
  C  2163  1  0.75251600  0.65199600  0.89937800  1
  C  2169  1  0.75729600  0.68920700  0.63819700  1
  C  2170  1  0.75927600  0.67191800  0.65522200  1
  C  2171  1  0.77767100  0.65571900  0.65385200  1
  C  2172  1  0.79305500  0.65629800  0.63520400  1
  C  2176  1  0.75443600  0.65124700  0.68697900  1
  C  2178  1  0.74340000  0.64288000  0.70790900  1
  C  2184  1  0.23837400  0.10562200  0.63836200  1
  C  2185  1  0.23646600  0.12298800  0.65527300  1
  C  2186  1  0.21808800  0.13917300  0.65386100  1
  C  2187  1  0.20275800  0.13855100  0.63516700  1
  C  2191  1  0.24145600  0.14368000  0.68695500  1
  C  2193  1  0.25250700  0.15199900  0.70789200  1
  C  2199  1  0.20614000  0.65700900  0.63835800  1
  C  2200  1  0.22348000  0.65894300  0.65529000  1
  C  2201  1  0.23968300  0.67730400  0.65386600  1
  C  2202  1  0.23906500  0.69262900  0.63516900  1
  C  2206  1  0.24419200  0.65393200  0.68695700  1
  C  2208  1  0.25251400  0.64287700  0.70789000  1
  C  2214  1  0.78978000  0.13784200  0.63835300  1
  C  2215  1  0.77242200  0.13593800  0.65527500  1
  C  2216  1  0.75621200  0.11758200  0.65385400  1
  C  2217  1  0.75684100  0.10224100  0.63516900  1
  C  2221  1  0.75172300  0.14094900  0.68695200  1
  C  2223  1  0.74339700  0.15200200  0.70788500  1
  C  2229  1  0.23834200  0.68928600  0.46891000  1
  C  2230  1  0.23646600  0.67189900  0.45201700  1
  C  2231  1  0.21808200  0.65572100  0.45343400  1
  C  2232  1  0.20270600  0.65640000  0.47209800  1
  C  2236  1  0.24145400  0.65120800  0.42033300  1
  C  2238  1  0.25250400  0.64288200  0.39939400  1
  C  2244  1  0.75756400  0.10559000  0.46890800  1
  C  2245  1  0.75944400  0.12297500  0.45201000  1
  C  2246  1  0.77783900  0.13914100  0.45340900  1
  C  2247  1  0.79320200  0.13843300  0.47207600  1
  C  2251  1  0.75444800  0.14367300  0.42032900  1
  C  2253  1  0.74339500  0.15199500  0.39939300  1
  C  2259  1  0.78979400  0.65705600  0.46889900  1
  C  2260  1  0.77241200  0.65892500  0.45200200  1
  C  2261  1  0.75622600  0.67730500  0.45340500  1
  C  2262  1  0.75683900  0.69262900  0.47210300  1
  C  2266  1  0.75171900  0.65392800  0.42031800  1
  C  2268  1  0.74339300  0.64287500  0.39938300  1
  C  2274  1  0.20614200  0.13786800  0.46892300  1
  C  2275  1  0.22348700  0.13594400  0.45199500  1
  C  2276  1  0.23967400  0.11756600  0.45340200  1
  C  2277  1  0.23906500  0.10224600  0.47210300  1
  C  2281  1  0.24418300  0.14094200  0.42031400  1
  C  2283  1  0.25250900  0.15199800  0.39938100  1
  C  2289  1  0.08912200  0.11854500  0.03180500  1
  C  2290  1  0.07872500  0.13618200  0.04517700  1
  C  2291  1  0.08031000  0.13448200  0.06866000  1
  C  2292  1  0.09209300  0.11529300  0.07846900  1
  C  2296  1  0.05835300  0.16755400  0.05626200  1
  C  2298  1  0.04462600  0.18926000  0.05420300  1
  C  2304  1  0.90677900  0.67632900  0.03180500  1
  C  2305  1  0.91716500  0.65868600  0.04517600  1
  C  2306  1  0.91558800  0.66039000  0.06866000  1
  C  2307  1  0.90380700  0.67958100  0.07846900  1
  C  2311  1  0.93754700  0.62732000  0.05626300  1
  C  2313  1  0.95127700  0.60561500  0.05420300  1
  C  2319  1  0.77689900  0.98851200  0.03184900  1
  C  2320  1  0.75925300  0.97813700  0.04520500  1
  C  2321  1  0.76094000  0.97975400  0.06868000  1
  C  2322  1  0.78012500  0.99155600  0.07847500  1
  C  2326  1  0.72783500  0.95784000  0.05626300  1
  C  2328  1  0.70612400  0.94412100  0.05419800  1
  C  2334  1  0.21898400  0.80637400  0.03185500  1
  C  2335  1  0.23664600  0.81672900  0.04521000  1
  C  2336  1  0.23496700  0.81510500  0.06868500  1
  C  2337  1  0.21577400  0.80331500  0.07848100  1
  C  2341  1  0.26806000  0.83703300  0.05626300  1
  C  2343  1  0.28977100  0.85075200  0.05419400  1
  C  2349  1  0.90692900  0.11844500  0.07541800  1
  C  2350  1  0.91724000  0.13611700  0.06205700  1
  C  2351  1  0.91562300  0.13440000  0.03858500  1
  C  2352  1  0.90383600  0.11518300  0.02880100  1
  C  2356  1  0.93754200  0.16752900  0.05100000  1
  C  2358  1  0.95125700  0.18924300  0.05306700  1
  C  2364  1  0.08907200  0.67637600  0.07545000  1
  C  2365  1  0.07872100  0.65871400  0.06207600  1
  C  2366  1  0.08029700  0.66043200  0.03859400  1
  C  2367  1  0.09207800  0.67966000  0.02884000  1
  C  2371  1  0.05835600  0.62734000  0.05099500  1
  C  2373  1  0.04463400  0.60562900  0.05306300  1
  C  2379  1  0.21899600  0.98853200  0.07542700  1
  C  2380  1  0.23667600  0.97819400  0.06207700  1
  C  2381  1  0.23497100  0.97977300  0.03859800  1
  C  2382  1  0.21578600  0.99156700  0.02879400  1
  C  2386  1  0.26806200  0.95784400  0.05101300  1
  C  2388  1  0.28976900  0.94412000  0.05307600  1
  C  2394  1  0.77688500  0.80633900  0.07543200  1
  C  2395  1  0.75923500  0.81671300  0.06207300  1
  C  2396  1  0.76093300  0.81511700  0.03859600  1
  C  2397  1  0.78011300  0.80330800  0.02879700  1
  C  2401  1  0.72783500  0.83703800  0.05100800  1
  C  2403  1  0.70612400  0.85075700  0.05307200  1
  C  2409  1  0.58912200  0.61854100  0.53180900  1
  C  2410  1  0.57872500  0.63618000  0.54517700  1
  C  2411  1  0.58030900  0.63447900  0.56866000  1
  C  2412  1  0.59208800  0.61528300  0.57846300  1
  C  2416  1  0.55835300  0.66755300  0.55626300  1
  C  2418  1  0.54462600  0.68926000  0.55420200  1
  C  2424  1  0.40677900  0.17633200  0.53180900  1
  C  2425  1  0.41716700  0.15868700  0.54517700  1
  C  2426  1  0.41559000  0.16039400  0.56866000  1
  C  2427  1  0.40381200  0.17959100  0.57846300  1
  C  2431  1  0.43754700  0.12732100  0.55626300  1
  C  2433  1  0.45127700  0.10561500  0.55420200  1
  C  2439  1  0.27690300  0.48851300  0.53185500  1
  C  2440  1  0.25925500  0.47813500  0.54520700  1
  C  2441  1  0.26094200  0.47975200  0.56868000  1
  C  2442  1  0.28013400  0.49155100  0.57847000  1
  C  2446  1  0.22783500  0.45783900  0.55626300  1
  C  2448  1  0.20612400  0.44412000  0.55419800  1
  C  2454  1  0.71901000  0.30632200  0.53183400  1
  C  2455  1  0.73666500  0.31669600  0.54519500  1
  C  2456  1  0.73498100  0.31508400  0.56867500  1
  C  2457  1  0.71578100  0.30330800  0.57847200  1
  C  2461  1  0.76806000  0.33703500  0.55626300  1
  C  2463  1  0.78976900  0.35075500  0.55419700  1
  C  2469  1  0.40692900  0.61844100  0.57541200  1
  C  2470  1  0.41724200  0.63611600  0.56205600  1
  C  2471  1  0.41562500  0.63439900  0.53858500  1
  C  2472  1  0.40384200  0.61517500  0.52880600  1
  C  2476  1  0.43754200  0.66752800  0.55099900  1
  C  2478  1  0.45125700  0.68924200  0.55306600  1
  C  2484  1  0.58907100  0.17638100  0.57544500  1
  C  2485  1  0.57872000  0.15871500  0.56207400  1
  C  2486  1  0.58029500  0.16043500  0.53859300  1
  C  2487  1  0.59207300  0.17967000  0.52884500  1
  C  2491  1  0.55835500  0.12733900  0.55099300  1
  C  2493  1  0.54463400  0.10562800  0.55306300  1
  C  2499  1  0.71899200  0.48853000  0.57542200  1
  C  2500  1  0.73667000  0.47818600  0.56207600  1
  C  2501  1  0.73496700  0.47977000  0.53859800  1
  C  2502  1  0.71577700  0.49156000  0.52880000  1
  C  2506  1  0.76806000  0.45784200  0.55101200  1
  C  2508  1  0.78976900  0.44412000  0.55307600  1
  C  2514  1  0.27688900  0.30634100  0.57542700  1
  C  2515  1  0.25923700  0.31671400  0.56207100  1
  C  2516  1  0.26093500  0.31511700  0.53859500  1
  C  2517  1  0.28012200  0.30331300  0.52880300  1
  C  2521  1  0.22783700  0.33704000  0.55100700  1
  C  2523  1  0.20612400  0.35075700  0.55307100  1
  S  1575  1  0.96958300  0.25851600  0.19195600  1
  S  1590  1  0.02631200  0.53635500  0.19193800  1
  S  1605  1  0.63686500  0.86908400  0.19194600  1
  S  1620  1  0.35901700  0.92579000  0.19193400  1
  S  1635  1  0.02630400  0.25850000  0.91535200  1
  S  1650  1  0.96960700  0.53637100  0.91534200  1
  S  1665  1  0.35901500  0.86908600  0.91534200  1
  S  1680  1  0.63687000  0.92581000  0.91532700  1
  S  1695  1  0.46958100  0.75850200  0.69194600  1
  S  1710  1  0.52632100  0.03637200  0.69192600  1
  S  1725  1  0.13688000  0.36907900  0.69193800  1
  S  1740  1  0.85900200  0.42579400  0.69192600  1
  S  1755  1  0.52630300  0.75848800  0.41536400  1
  S  1770  1  0.46960200  0.03638600  0.41534500  1
  S  1785  1  0.85900100  0.36908100  0.41535000  1
  S  1800  1  0.13688400  0.42581500  0.41533500  1
  S  1815  1  0.13187400  0.23941300  0.28048900  1
  S  1830  1  0.86402200  0.55545600  0.28049000  1
  S  1845  1  0.65596900  0.03136800  0.28049200  1
  S  1860  1  0.33992100  0.76349500  0.28050900  1
  S  1875  1  0.86401700  0.23942000  0.82675700  1
  S  1890  1  0.13188100  0.55544600  0.82676400  1
  S  1905  1  0.33994000  0.03138100  0.82676600  1
  S  1920  1  0.65597100  0.76351300  0.82678400  1
  S  1935  1  0.86407100  0.55547000  0.82670300  1
  S  1950  1  0.13182800  0.23940800  0.82669800  1
  S  1965  1  0.33992100  0.76355900  0.82669800  1
  S  1980  1  0.65599200  0.03132400  0.82668300  1
  S  1995  1  0.13183700  0.55546700  0.28059500  1
  S  2010  1  0.86406400  0.23941500  0.28059000  1
  S  2025  1  0.65597100  0.76354100  0.28058600  1
  S  2040  1  0.33991700  0.03130800  0.28056600  1
  S  2055  1  0.27965100  0.13763600  0.17726200  1
  S  2070  1  0.71624800  0.65723600  0.17726200  1
  S  2085  1  0.75775500  0.17913600  0.17726200  1
  S  2100  1  0.23816200  0.61574200  0.17726200  1
  S  2115  1  0.71624100  0.13766400  0.93002700  1
  S  2130  1  0.27966300  0.65722100  0.93001700  1
  S  2145  1  0.23815800  0.17913500  0.93000900  1
  S  2160  1  0.75775500  0.61573700  0.93000900  1
  S  2175  1  0.77962600  0.63769300  0.67726300  1
  S  2190  1  0.21624400  0.15722700  0.67726600  1
  S  2205  1  0.25774100  0.67914100  0.67726800  1
  S  2220  1  0.73817200  0.11573800  0.67726600  1
  S  2235  1  0.21623600  0.63767500  0.43002400  1
  S  2250  1  0.77966700  0.15721000  0.43001300  1
  S  2265  1  0.73816900  0.67913800  0.43000500  1
  S  2280  1  0.25773900  0.11573600  0.43000500  1
  S  2295  1  0.06556100  0.15665000  0.08267100  1
  S  2310  1  0.93034100  0.63822500  0.08267100  1
  S  2325  1  0.73873200  0.96505000  0.08267500  1
  S  2340  1  0.25716700  0.82982300  0.08267600  1
  S  2355  1  0.93033100  0.15661200  0.02459500  1
  S  2370  1  0.06556700  0.63824600  0.02458700  1
  S  2385  1  0.25716800  0.96505500  0.02460100  1
  S  2400  1  0.73873000  0.82982300  0.02459700  1
  S  2415  1  0.56555700  0.65664700  0.58267100  1
  S  2430  1  0.43034300  0.13822800  0.58267100  1
  S  2445  1  0.23873600  0.46504600  0.58267400  1
  S  2460  1  0.75716100  0.32982700  0.58267400  1
  S  2475  1  0.43033400  0.65661000  0.52459500  1
  S  2490  1  0.56556400  0.13824800  0.52458700  1
  S  2505  1  0.75716600  0.46505300  0.52460000  1
  S  2520  1  0.23873200  0.32982500  0.52459700  1
  N  1573  1  0.98878600  0.27618000  0.12865200  1
  N  1574  1  0.01166300  0.27583200  0.13087300  1
  N  1577  1  0.01498100  0.25667500  0.18991700  1
  N  1579  1  0.04390400  0.26445000  0.15183800  1
  N  1580  1  0.95180700  0.26756300  0.14337700  1
  N  1588  1  0.00706300  0.51872800  0.12863700  1
  N  1589  1  0.98418400  0.51907300  0.13087400  1
  N  1592  1  0.98091400  0.53823200  0.18991700  1
  N  1594  1  0.95190300  0.53028900  0.15193500  1
  N  1595  1  0.04407500  0.52727500  0.14332100  1
  N  1603  1  0.61924600  0.88830600  0.12863900  1
  N  1604  1  0.61959600  0.91118600  0.13086400  1
  N  1607  1  0.63874500  0.91448300  0.18991200  1
  N  1609  1  0.63080900  0.94348100  0.15191200  1
  N  1610  1  0.62782300  0.85131300  0.14335600  1
  N  1618  1  0.37666100  0.90659100  0.12863400  1
  N  1619  1  0.37634600  0.88371500  0.13087100  1
  N  1622  1  0.35720500  0.88039300  0.18990500  1
  N  1624  1  0.36505700  0.85143800  0.15194100  1
  N  1625  1  0.36806600  0.94357000  0.14336200  1
  N  1633  1  0.00707700  0.27614300  0.97865100  1
  N  1634  1  0.98420000  0.27582300  0.97642000  1
  N  1637  1  0.98090900  0.25668200  0.91736100  1
  N  1639  1  0.95196100  0.26453200  0.95533300  1
  N  1640  1  0.04408900  0.26758400  0.96392000  1
  N  1648  1  0.98880300  0.51871600  0.97865100  1
  N  1649  1  0.01168300  0.51904000  0.97642700  1
  N  1652  1  0.01500400  0.53818800  0.91736800  1
  N  1654  1  0.04393500  0.53035900  0.95536700  1
  N  1655  1  0.95182300  0.52734700  0.96388700  1
  N  1663  1  0.37665400  0.88829400  0.97865100  1
  N  1664  1  0.37633400  0.91117200  0.97642700  1
  N  1667  1  0.35719300  0.91448300  0.91736400  1
  N  1669  1  0.36501800  0.94341600  0.95536000  1
  N  1670  1  0.36811600  0.85129800  0.96393600  1
  N  1678  1  0.61921500  0.90658300  0.97863100  1
  N  1679  1  0.61955800  0.88370600  0.97639800  1
  N  1682  1  0.63870100  0.88041400  0.91735100  1
  N  1684  1  0.63093800  0.85147600  0.95542600  1
  N  1685  1  0.62776300  0.94358400  0.96394400  1
  N  1693  1  0.48878400  0.77617800  0.62865100  1
  N  1694  1  0.51166400  0.77582600  0.63087000  1
  N  1697  1  0.51498200  0.75667300  0.68991300  1
  N  1699  1  0.54391800  0.76444100  0.65182500  1
  N  1700  1  0.45179700  0.76755600  0.64337800  1
  N  1708  1  0.50705900  0.01873900  0.62863400  1
  N  1709  1  0.48418100  0.01908100  0.63087500  1
  N  1712  1  0.48092200  0.03823300  0.68991600  1
  N  1714  1  0.45188900  0.03029500  0.65193500  1
  N  1715  1  0.54409200  0.02725500  0.64330200  1
  N  1723  1  0.11924800  0.38830600  0.62864100  1
  N  1724  1  0.11960000  0.41118800  0.63086500  1
  N  1727  1  0.13874500  0.41448000  0.68991100  1
  N  1729  1  0.13081200  0.44349500  0.65190800  1
  N  1730  1  0.12782800  0.35130100  0.64335500  1
  N  1738  1  0.87665800  0.40659200  0.62863600  1
  N  1739  1  0.87634300  0.38371300  0.63087300  1
  N  1742  1  0.85720500  0.38039500  0.68990400  1
  N  1744  1  0.86505300  0.35142600  0.65193600  1
  N  1745  1  0.86805800  0.44358200  0.64336100  1
  N  1753  1  0.50706100  0.77612200  0.47865600  1
  N  1754  1  0.48418100  0.77580000  0.47642000  1
  N  1757  1  0.48090600  0.75666200  0.41736400  1
  N  1759  1  0.45190200  0.76458600  0.45530300  1
  N  1760  1  0.54409200  0.76758100  0.46393200  1
  N  1768  1  0.48879400  0.01872500  0.47864900  1
  N  1769  1  0.51167600  0.01905200  0.47643000  1
  N  1772  1  0.51500300  0.03819200  0.41736900  1
  N  1774  1  0.54394500  0.03036800  0.45537900  1
  N  1775  1  0.45180700  0.02736000  0.46387500  1
  N  1783  1  0.87665200  0.38829400  0.47865100  1
  N  1784  1  0.87633200  0.41117400  0.47642500  1
  N  1787  1  0.85719400  0.41448200  0.41736500  1
  N  1789  1  0.86501300  0.44343000  0.45536500  1
  N  1790  1  0.86810900  0.35128500  0.46393700  1
  N  1798  1  0.11921800  0.40658300  0.47863100  1
  N  1799  1  0.11956200  0.38370500  0.47639800  1
  N  1802  1  0.13870200  0.38041400  0.41735200  1
  N  1804  1  0.13094300  0.35146200  0.45542900  1
  N  1805  1  0.12776900  0.44359500  0.46394500  1
  N  1813  1  0.18640900  0.19899000  0.29934900  1
  N  1814  1  0.19665000  0.21307800  0.31369600  1
  N  1817  1  0.15767900  0.26361100  0.30833100  1
  N  1819  1  0.19504000  0.24544800  0.33612200  1
  N  1820  1  0.15829100  0.19094900  0.27291100  1
  N  1828  1  0.80950000  0.59588800  0.29936800  1
  N  1829  1  0.79926300  0.58180400  0.31372100  1
  N  1832  1  0.83822500  0.53126500  0.30834600  1
  N  1834  1  0.80083600  0.54939300  0.33612400  1
  N  1835  1  0.83761000  0.60390700  0.27290800  1
  N  1843  1  0.69640500  0.08588900  0.29936500  1
  N  1844  1  0.68232000  0.09613000  0.31371500  1
  N  1847  1  0.63177800  0.05716900  0.30834800  1
  N  1849  1  0.64992700  0.09455500  0.33613100  1
  N  1850  1  0.70442300  0.05777400  0.27291300  1
  N  1858  1  0.29948400  0.70897900  0.29935500  1
  N  1859  1  0.31357200  0.69873300  0.31369400  1
  N  1862  1  0.36410500  0.73768900  0.30835800  1
  N  1864  1  0.34609200  0.70034300  0.33609900  1
  N  1865  1  0.29147100  0.73709900  0.27291300  1
  N  1873  1  0.80946500  0.19898500  0.80798700  1
  N  1874  1  0.79919300  0.21303800  0.79363800  1
  N  1877  1  0.83818800  0.26361100  0.79892200  1
  N  1879  1  0.80093300  0.24539900  0.77115100  1
  N  1880  1  0.83761200  0.19089000  0.83431500  1
  N  1888  1  0.18643300  0.59588300  0.80800300  1
  N  1889  1  0.19670800  0.58183900  0.79364800  1
  N  1892  1  0.15771400  0.53126400  0.79892000  1
  N  1894  1  0.19496800  0.54948400  0.77115100  1
  N  1895  1  0.15828600  0.60401000  0.83429500  1
  N  1903  1  0.29949400  0.08593800  0.80797400  1
  N  1904  1  0.31355400  0.09619300  0.79361900  1
  N  1907  1  0.36411900  0.05719100  0.79890800  1
  N  1909  1  0.34595600  0.09448800  0.77115600  1
  N  1910  1  0.29143700  0.05776900  0.83434200  1
  N  1918  1  0.69639600  0.70897700  0.80793200  1
  N  1919  1  0.68231300  0.69873600  0.79358000  1
  N  1922  1  0.63177700  0.73770700  0.79893900  1
  N  1924  1  0.64994600  0.70034500  0.77114700  1
  N  1925  1  0.70443900  0.73710300  0.83435900  1
  N  1933  1  0.80948600  0.59589200  0.80788100  1
  N  1934  1  0.79923100  0.58178800  0.79357400  1
  N  1937  1  0.83821100  0.53124800  0.79894400  1
  N  1939  1  0.80080100  0.54933000  0.77129400  1
  N  1940  1  0.83763100  0.60398200  0.83419700  1
  N  1948  1  0.18640900  0.19897600  0.80789000  1
  N  1949  1  0.19666900  0.21307600  0.79358200  1
  N  1952  1  0.15769700  0.26362500  0.79894000  1
  N  1954  1  0.19509700  0.24550600  0.77128200  1
  N  1955  1  0.15826300  0.19089700  0.83419700  1
  N  1963  1  0.29949100  0.70897900  0.80788800  1
  N  1964  1  0.31359100  0.69871700  0.79358400  1
  N  1967  1  0.36414000  0.73768700  0.79894200  1
  N  1969  1  0.34601900  0.70028700  0.77128400  1
  N  1970  1  0.29140200  0.73712400  0.83419000  1
  N  1978  1  0.69642200  0.08590100  0.80789800  1
  N  1979  1  0.68231800  0.09616800  0.79360600  1
  N  1982  1  0.63177800  0.05720200  0.79893200  1
  N  1984  1  0.64976300  0.09456300  0.77131600  1
  N  1985  1  0.70451600  0.05775200  0.83418200  1
  N  1993  1  0.18644000  0.59591600  0.29930600  1
  N  1994  1  0.19673700  0.58183300  0.31360200  1
  N  1997  1  0.15773300  0.53124800  0.30832900  1
  N  1999  1  0.19499800  0.54943200  0.33597600  1
  N  2000  1  0.15824100  0.60393500  0.27302400  1
  N  2008  1  0.80946000  0.19896000  0.29928900  1
  N  2009  1  0.79916100  0.21303600  0.31359000  1
  N  2012  1  0.83816500  0.26362700  0.30833100  1
  N  2014  1  0.80090100  0.24542900  0.33597400  1
  N  2015  1  0.83766500  0.19093500  0.27302700  1
  N  2023  1  0.69642700  0.70894600  0.29931100  1
  N  2024  1  0.68235200  0.69865600  0.31361900  1
  N  2027  1  0.63176400  0.73765900  0.30834400  1
  N  2029  1  0.64990600  0.70035300  0.33597100  1
  N  2030  1  0.70444700  0.73714600  0.27302900  1
  N  2038  1  0.29949600  0.08590600  0.29935600  1
  N  2039  1  0.31359800  0.09616600  0.31366100  1
  N  2042  1  0.36414100  0.05718500  0.30831200  1
  N  2044  1  0.34599800  0.09455800  0.33598300  1
  N  2045  1  0.29141100  0.05774100  0.27306100  1
  N  2053  1  0.29030100  0.17389100  0.12000700  1
  N  2054  1  0.27356700  0.18936000  0.12151100  1
  N  2057  1  0.24648100  0.16894000  0.17400900  1
  N  2059  1  0.24419900  0.20782600  0.13862200  1
  N  2060  1  0.31346700  0.14578800  0.13397800  1
  N  2068  1  0.70559700  0.62098100  0.12000800  1
  N  2069  1  0.72233000  0.60551000  0.12151500  1
  N  2072  1  0.74942000  0.62593600  0.17400700  1
  N  2074  1  0.75170400  0.58704900  0.13862300  1
  N  2075  1  0.68243400  0.64908900  0.13397200  1
  N  2083  1  0.72150100  0.18978500  0.12000500  1
  N  2084  1  0.70603100  0.17304900  0.12150900  1
  N  2087  1  0.72644500  0.14597100  0.17401200  1
  N  2089  1  0.68756400  0.14368300  0.13862100  1
  N  2090  1  0.74960200  0.21295400  0.13397600  1
  N  2098  1  0.27439700  0.60508400  0.11999600  1
  N  2099  1  0.28986600  0.62181900  0.12149100  1
  N  2102  1  0.26946800  0.64890900  0.17400000  1
  N  2104  1  0.30832100  0.65120700  0.13862800  1
  N  2105  1  0.24630100  0.58191700  0.13398200  1
  N  2113  1  0.70561700  0.17391600  0.98730100  1
  N  2114  1  0.72236300  0.18937200  0.98580600  1
  N  2117  1  0.74941800  0.16895100  0.93328100  1
  N  2119  1  0.75174900  0.20779400  0.96863000  1
  N  2120  1  0.68243200  0.14577400  0.97326100  1
  N  2128  1  0.29028700  0.62096100  0.98732100  1
  N  2129  1  0.27353200  0.60551500  0.98581800  1
  N  2132  1  0.24648400  0.62592900  0.93327800  1
  N  2134  1  0.24415700  0.58708300  0.96863000  1
  N  2135  1  0.31346000  0.64909900  0.97325600  1
  N  2143  1  0.27439500  0.18978300  0.98727900  1
  N  2144  1  0.28987400  0.17305800  0.98577900  1
  N  2147  1  0.26946200  0.14596500  0.93326800  1
  N  2149  1  0.30831600  0.14366200  0.96863400  1
  N  2150  1  0.24630400  0.21295400  0.97329100  1
  N  2158  1  0.72150100  0.60509000  0.98726700  1
  N  2159  1  0.70603000  0.62182300  0.98576000  1
  N  2162  1  0.72644300  0.64890000  0.93325800  1
  N  2164  1  0.68756200  0.65118900  0.96865000  1
  N  2165  1  0.74960000  0.58192100  0.97329300  1
  N  2173  1  0.79022300  0.67381400  0.62000000  1
  N  2174  1  0.77346300  0.68925300  0.62144500  1
  N  2177  1  0.74641800  0.66897700  0.67402200  1
  N  2179  1  0.74466900  0.70833800  0.63849100  1
  N  2180  1  0.81341800  0.64580300  0.63402100  1
  N  2188  1  0.20559600  0.12098000  0.62000500  1
  N  2189  1  0.22232900  0.10551000  0.62151300  1
  N  2192  1  0.24942000  0.12593300  0.67400600  1
  N  2194  1  0.25167600  0.08702600  0.63861600  1
  N  2195  1  0.18242500  0.14907500  0.63397400  1
  N  2203  1  0.22149900  0.68978700  0.62000300  1
  N  2204  1  0.20603100  0.67305200  0.62150600  1
  N  2207  1  0.22644000  0.64597100  0.67400900  1
  N  2209  1  0.18754000  0.64371000  0.63861400  1
  N  2210  1  0.24958900  0.71296300  0.63397600  1
  N  2218  1  0.77439800  0.10508200  0.61999300  1
  N  2219  1  0.78986600  0.12181700  0.62148800  1
  N  2222  1  0.76947100  0.14890700  0.67399900  1
  N  2224  1  0.80834500  0.15117900  0.63862100  1
  N  2225  1  0.74631500  0.08190900  0.63398200  1
  N  2233  1  0.20561300  0.67391700  0.48730400  1
  N  2234  1  0.22236200  0.68937000  0.48580900  1
  N  2237  1  0.24941800  0.66895500  0.43328200  1
  N  2239  1  0.25172100  0.70781800  0.46863700  1
  N  2240  1  0.18242200  0.64578600  0.47326000  1
  N  2248  1  0.79029100  0.12096100  0.48732200  1
  N  2249  1  0.77353300  0.10551600  0.48582100  1
  N  2252  1  0.74648400  0.12592500  0.43328100  1
  N  2254  1  0.74418400  0.08705800  0.46863700  1
  N  2255  1  0.81347000  0.14908600  0.47325500  1
  N  2263  1  0.77439500  0.68978500  0.48728200  1
  N  2264  1  0.78987300  0.67305900  0.48578400  1
  N  2267  1  0.76946800  0.64596600  0.43327100  1
  N  2269  1  0.80834000  0.64369100  0.46864000  1
  N  2270  1  0.74631600  0.71296300  0.47329100  1
  N  2278  1  0.22149900  0.10508300  0.48727000  1
  N  2279  1  0.20603100  0.12181900  0.48577000  1
  N  2282  1  0.22643500  0.14890300  0.43326600  1
  N  2284  1  0.18754000  0.15115900  0.46866000  1
  N  2285  1  0.24958600  0.08191200  0.47329100  1
  N  2293  1  0.10053500  0.09849600  0.06442700  1
  N  2294  1  0.09931700  0.10013200  0.04247700  1
  N  2297  1  0.06617300  0.15487000  0.03859500  1
  N  2299  1  0.08658400  0.11596800  0.01002600  1
  N  2300  1  0.08810200  0.10854800  0.09921400  1
  N  2308  1  0.89536700  0.69637800  0.06442700  1
  N  2309  1  0.89658700  0.69474400  0.04247700  1
  N  2312  1  0.92972500  0.64000300  0.03859500  1
  N  2314  1  0.90931800  0.67890900  0.01002700  1
  N  2315  1  0.90779900  0.68632600  0.09921300  1
  N  2323  1  0.79692300  0.00000200  0.06443200  1
  N  2324  1  0.79529800  0.99877200  0.04248100  1
  N  2327  1  0.74054200  0.96563300  0.03860300  1
  N  2329  1  0.77921100  0.98619300  0.01004600  1
  N  2330  1  0.78685700  0.98758700  0.09922100  1
  N  2338  1  0.19897600  0.79486800  0.06443900  1
  N  2339  1  0.20059900  0.79609800  0.04248900  1
  N  2342  1  0.25535100  0.82923900  0.03860400  1
  N  2344  1  0.21670500  0.80867600  0.01004900  1
  N  2345  1  0.20904400  0.80729300  0.09922700  1
  N  2353  1  0.89536100  0.09843600  0.04288100  1
  N  2354  1  0.89659900  0.10007100  0.06482800  1
  N  2357  1  0.92975300  0.15482300  0.06865900  1
  N  2359  1  0.90915200  0.11626800  0.09723200  1
  N  2360  1  0.90782900  0.10855900  0.00803300  1
  N  2368  1  0.10059800  0.69641300  0.04287100  1
  N  2369  1  0.09936400  0.69475400  0.06481800  1
  N  2372  1  0.06616900  0.64002700  0.06866000  1
  N  2374  1  0.08662300  0.67882500  0.09724300  1
  N  2375  1  0.08808200  0.68628800  0.00805800  1
  N  2383  1  0.19898700  0.00001300  0.04283400  1
  N  2384  1  0.20060900  0.99879000  0.06478500  1
  N  2387  1  0.25536500  0.96565200  0.06867400  1
  N  2389  1  0.21663100  0.98616000  0.09722900  1
  N  2390  1  0.20905300  0.98758000  0.00805000  1
  N  2398  1  0.79691000  0.79486300  0.04284000  1
  N  2399  1  0.79528600  0.79609300  0.06479000  1
  N  2402  1  0.74053700  0.82923900  0.06867000  1
  N  2404  1  0.77925700  0.80870600  0.09723000  1
  N  2405  1  0.78684800  0.80729000  0.00805300  1
  N  2413  1  0.60053500  0.59849100  0.56442500  1
  N  2414  1  0.59931700  0.60012900  0.54247700  1
  N  2417  1  0.56617200  0.65486800  0.53859500  1
  N  2419  1  0.58653700  0.61591700  0.51004700  1
  N  2420  1  0.58807200  0.60850800  0.59918900  1
  N  2428  1  0.39536700  0.19638400  0.56442300  1
  N  2429  1  0.39658500  0.19474700  0.54247700  1
  N  2432  1  0.42972700  0.14000400  0.53859500  1
  N  2434  1  0.40936400  0.17896000  0.51004700  1
  N  2435  1  0.40782900  0.18636900  0.59918800  1
  N  2443  1  0.29692800  0.50000300  0.56443000  1
  N  2444  1  0.29530200  0.49877300  0.54248200  1
  N  2447  1  0.24054400  0.46563100  0.53860300  1
  N  2449  1  0.27926600  0.48614400  0.51006700  1
  N  2450  1  0.28689900  0.48755300  0.59919600  1
  N  2458  1  0.69898600  0.29485600  0.56443300  1
  N  2459  1  0.70061900  0.29607700  0.54248700  1
  N  2462  1  0.75536200  0.32922800  0.53860000  1
  N  2464  1  0.71653700  0.30879000  0.51005800  1
  N  2465  1  0.70901000  0.30732100  0.59919600  1
  N  2473  1  0.39536000  0.59843000  0.54288300  1
  N  2474  1  0.39659700  0.60006600  0.56482600  1
  N  2477  1  0.42975500  0.65482100  0.56865800  1
  N  2479  1  0.40919900  0.61621600  0.59721100  1
  N  2480  1  0.40785900  0.60851900  0.50805700  1
  N  2488  1  0.60060000  0.19641900  0.54287300  1
  N  2489  1  0.59936400  0.19475800  0.56481800  1
  N  2492  1  0.56616800  0.14002900  0.56866000  1
  N  2494  1  0.58657700  0.17887400  0.59722300  1
  N  2495  1  0.58805100  0.18632800  0.50808200  1
  N  2503  1  0.69898100  0.50001600  0.54283600  1
  N  2504  1  0.70060500  0.49879400  0.56478400  1
  N  2507  1  0.75536200  0.46564800  0.56867300  1
  N  2509  1  0.71658200  0.48611500  0.59720900  1
  N  2510  1  0.70901200  0.48754800  0.50807300  1
  N  2518  1  0.29691600  0.29486100  0.54284100  1
  N  2519  1  0.29529000  0.29609300  0.56478900  1
  N  2522  1  0.24053900  0.32924000  0.56867000  1
  N  2524  1  0.27931100  0.30875300  0.59720900  1
  N  2525  1  0.28688800  0.30732100  0.50807700  1
