# generated using pymatgen
data_H27C42(NO)4
_symmetry_space_group_name_H-M   'P 1'
_cell_length_a   68.40130000
_cell_length_b   68.40130000
_cell_length_c   68.38480000
_cell_angle_alpha   90.00000000
_cell_angle_beta   90.00000000
_cell_angle_gamma   90.00000000
_symmetry_Int_Tables_number   1
_chemical_formula_structural   H27C42(NO)4
_chemical_formula_sum   'H648 C1008 N96 O96'
_cell_volume   319954.55155640
_cell_formula_units_Z   24
loop_
 _symmetry_equiv_pos_site_id
 _symmetry_equiv_pos_as_xyz
  1  'x, y, z'
loop_
 _atom_site_type_symbol
 _atom_site_label
 _atom_site_symmetry_multiplicity
 _atom_site_fract_x
 _atom_site_fract_y
 _atom_site_fract_z
 _atom_site_occupancy
  H  10  1  0.53515200  0.00527300  0.07451000  1
  H  11  1  0.50409300  0.04268900  0.06397500  1
  H  12  1  0.50398000  0.06775700  0.03669700  1
  H  13  1  0.50295500  0.01343200  0.01192300  1
  H  16  1  0.47352300  0.00234800  0.07655000  1
  H  17  1  0.53632600  0.00598700  0.10945600  1
  H  20  1  0.48909700  0.17528300  0.01730200  1
  H  21  1  0.48673800  0.14060400  0.01789700  1
  H  23  1  0.46702200  0.33113100  0.02324300  1
  H  28  1  0.52234800  0.26699800  0.02125200  1
  H  30  1  0.53636000  0.23081300  0.02097100  1
  H  31  1  0.51622400  0.29675300  0.00019700  1
  H  39  1  0.45992500  0.43736600  0.00340400  1
  H  40  1  0.53861400  0.43443900  0.00404100  1
  H  41  1  0.49637700  0.42671800  0.03456500  1
  H  42  1  0.49448800  0.39177300  0.03495000  1
  H  43  1  0.47035100  0.36571100  0.02345200  1
  H  53  1  0.07534200  0.53503400  0.00384800  1
  H  54  1  0.06491800  0.50398600  0.04135300  1
  H  55  1  0.03774000  0.50406600  0.06652800  1
  H  56  1  0.01275800  0.50313100  0.01228900  1
  H  57  1  0.11027700  0.53617300  0.00457200  1
  H  60  1  0.07731500  0.47339900  0.00105300  1
  H  66  1  0.17317800  0.52878700  0.02605000  1
  H  67  1  0.13844600  0.52670500  0.02673600  1
  H  70  1  0.11228400  0.47443400  0.00210300  1
  H  72  1  0.32890000  0.52786400  0.02675100  1
  H  78  1  0.23489500  0.47447600  0.01792300  1
  H  79  1  0.27074900  0.47603800  0.03316400  1
  H  87  1  0.43618600  0.54302200  0.00261300  1
  H  88  1  0.42653700  0.50571600  0.03402000  1
  H  89  1  0.39159600  0.50623000  0.03494900  1
  H  90  1  0.43452100  0.46430000  0.00306500  1
  H  91  1  0.36363500  0.52834500  0.02478300  1
  H  116  1  0.51332800  0.51319100  0.00297000  1
  H  117  1  0.48852300  0.48978300  0.00288600  1
  H  124  1  0.56732700  0.53867500  0.00358000  1
  H  125  1  0.56564600  0.45995000  0.00402500  1
  H  126  1  0.63653000  0.47098500  0.02385500  1
  H  127  1  0.61061100  0.49543500  0.03513300  1
  H  128  1  0.57565700  0.49720100  0.03472200  1
  H  131  1  0.67109100  0.46745200  0.02360900  1
  H  136  1  0.73547000  0.52230600  0.02110800  1
  H  138  1  0.77170300  0.53617700  0.02065400  1
  H  139  1  0.70566600  0.51625200  0.00009300  1
  H  142  1  0.86166900  0.48662800  0.01772000  1
  H  143  1  0.82698700  0.48898300  0.01711500  1
  H  148  1  0.99958900  0.47368400  0.07619500  1
  H  156  1  0.95924800  0.50391100  0.06414100  1
  H  157  1  0.93398100  0.50371600  0.03687200  1
  H  158  1  0.99586700  0.53677600  0.10853500  1
  H  159  1  0.99715200  0.53531600  0.07362200  1
  H  166  1  0.52776900  0.63876300  0.02499300  1
  H  167  1  0.50552800  0.61079000  0.03502600  1
  H  168  1  0.50478400  0.57585200  0.03408800  1
  H  169  1  0.54191500  0.56561600  0.00307500  1
  H  170  1  0.46322200  0.56852900  0.00270400  1
  H  173  1  0.52723900  0.67350200  0.02697400  1
  H  179  1  0.47379200  0.76745500  0.01774300  1
  H  180  1  0.47527300  0.73160700  0.03302400  1
  H  186  1  0.52601500  0.86364600  0.02743300  1
  H  187  1  0.52805100  0.82891400  0.02656100  1
  H  199  1  0.50402700  0.96425200  0.06791700  1
  H  200  1  0.50372900  0.93687800  0.04276400  1
  H  201  1  0.53461600  0.92687300  0.00503300  1
  H  202  1  0.53572200  0.89193000  0.00544500  1
  H  205  1  0.47299400  0.92497900  0.00187500  1
  H  206  1  0.47399800  0.88999800  0.00259800  1
  H  212  1  0.52886300  0.02732700  0.17245400  1
  H  213  1  0.52679300  0.02808900  0.13771100  1
  H  216  1  0.47459500  0.00338300  0.11152500  1
  H  219  1  0.01832100  0.48932700  0.17417900  1
  H  220  1  0.01891200  0.48698300  0.13948800  1
  H  221  1  0.00023600  0.48373800  0.20387700  1
  H  222  1  0.99798000  0.47504500  0.11114800  1
  H  228  1  0.97268200  0.52754700  0.13593400  1
  H  229  1  0.97215800  0.53000900  0.17064500  1
  H  234  1  0.48211800  0.99809500  0.20386100  1
  H  237  1  0.48838300  0.98088200  0.17379600  1
  H  238  1  0.48643200  0.98156900  0.13909200  1
  H  240  1  0.52774700  0.02774200  0.32808800  1
  H  246  1  0.47441600  0.01890300  0.23405500  1
  H  247  1  0.47583200  0.03406800  0.26995800  1
  H  249  1  0.02399700  0.46710800  0.32992700  1
  H  255  1  0.02255300  0.52229600  0.26587200  1
  H  257  1  0.02250000  0.53630600  0.22966200  1
  H  259  1  0.00134300  0.51646100  0.29557600  1
  H  261  1  0.98517000  0.51484100  0.32564500  1
  H  265  1  0.97801900  0.47765600  0.23374300  1
  H  266  1  0.97704700  0.46380800  0.26949100  1
  H  268  1  0.48033900  0.98836100  0.32653900  1
  H  272  1  0.51852800  0.97394900  0.26632200  1
  H  274  1  0.53399600  0.97535400  0.23055400  1
  H  276  1  0.49745700  0.98184500  0.29643700  1
  H  284  1  0.54290300  0.00353700  0.43538900  1
  H  285  1  0.50554700  0.03497800  0.42573300  1
  H  286  1  0.50607100  0.03591000  0.39078400  1
  H  287  1  0.46418400  0.00398600  0.43368800  1
  H  288  1  0.52823300  0.02576400  0.36283100  1
  H  296  1  0.00459500  0.46028500  0.43614100  1
  H  297  1  0.00456100  0.53897100  0.43314600  1
  H  298  1  0.03554600  0.49668900  0.42545300  1
  H  299  1  0.03589700  0.49473000  0.39050100  1
  H  300  1  0.02424700  0.47047800  0.36451800  1
  H  305  1  0.97419500  0.50128900  0.42464800  1
  H  306  1  0.97444200  0.49907200  0.38973100  1
  H  307  1  0.98603400  0.51862300  0.36016300  1
  H  312  1  0.50162500  0.97360100  0.42412900  1
  H  313  1  0.50245100  0.97442700  0.38913200  1
  H  314  1  0.48075700  0.98650000  0.36126000  1
  H  324  1  0.00461100  0.07595500  0.53482200  1
  H  325  1  0.04184900  0.06519500  0.50379900  1
  H  326  1  0.06722500  0.03820700  0.50363700  1
  H  327  1  0.01317100  0.01282900  0.50333000  1
  H  328  1  0.07689300  0.99984700  0.47319700  1
  H  331  1  0.00132000  0.07661900  0.47316100  1
  H  334  1  0.17522500  0.01823800  0.48805400  1
  H  335  1  0.14053100  0.01902900  0.48588600  1
  H  336  1  0.20493600  0.00020800  0.48248600  1
  H  338  1  0.33102100  0.02394700  0.46597600  1
  H  344  1  0.26687700  0.02234900  0.52120900  1
  H  346  1  0.23067400  0.02220600  0.53518500  1
  H  348  1  0.29660500  0.00121000  0.51531600  1
  H  357  1  0.43723900  0.00431500  0.45908600  1
  H  358  1  0.43427800  0.00498700  0.53779300  1
  H  359  1  0.42657400  0.03549000  0.49538900  1
  H  360  1  0.39162900  0.03585800  0.49346900  1
  H  361  1  0.36559800  0.02419000  0.46933400  1
  H  386  1  0.51303800  0.00386100  0.51253300  1
  H  387  1  0.48964400  0.00387700  0.48771500  1
  H  394  1  0.63861500  0.02606800  0.52686900  1
  H  395  1  0.61063900  0.03595600  0.50457300  1
  H  396  1  0.57570100  0.03502100  0.50382500  1
  H  397  1  0.56545300  0.00404700  0.54115100  1
  H  398  1  0.56840000  0.00360400  0.46244300  1
  H  401  1  0.67335600  0.02805100  0.52629500  1
  H  407  1  0.76728500  0.01842300  0.47286400  1
  H  408  1  0.73139700  0.03367100  0.47414200  1
  H  414  1  0.86356700  0.02807700  0.52543700  1
  H  415  1  0.82882100  0.02755400  0.52726200  1
  H  427  1  0.96337900  0.06827900  0.50397700  1
  H  428  1  0.93627600  0.04284300  0.50378400  1
  H  429  1  0.92644900  0.00532200  0.53479400  1
  H  430  1  0.89149900  0.00585600  0.53560300  1
  H  433  1  0.92506000  0.00173700  0.47316500  1
  H  434  1  0.89006900  0.00257000  0.47387100  1
  H  440  1  0.03127500  0.17258000  0.52371600  1
  H  441  1  0.02914800  0.13789400  0.52411900  1
  H  442  1  0.00568900  0.11094300  0.53518300  1
  H  445  1  0.00268600  0.11156600  0.47342000  1
  H  448  1  0.98462500  0.17489400  0.48346100  1
  H  449  1  0.98205900  0.14029500  0.48448000  1
  H  451  1  0.98174300  0.20520200  0.49913100  1
  H  453  1  0.02393200  0.32985200  0.53083600  1
  H  458  1  0.01914400  0.26680600  0.47369400  1
  H  460  1  0.03393500  0.23132300  0.47473900  1
  H  463  1  0.99979200  0.29724100  0.48095800  1
  H  464  1  0.98426800  0.32766300  0.48364100  1
  H  469  1  0.97418000  0.23568600  0.51855800  1
  H  470  1  0.97493800  0.27124200  0.53321500  1
  H  478  1  0.00476100  0.43663500  0.54183500  1
  H  479  1  0.03572300  0.42640100  0.50439000  1
  H  480  1  0.03593400  0.39140500  0.50523700  1
  H  481  1  0.00480000  0.43491300  0.46310600  1
  H  482  1  0.02454900  0.36452700  0.52864100  1
  H  487  1  0.97430600  0.42600800  0.50070500  1
  H  488  1  0.97441400  0.39105400  0.50182600  1
  H  489  1  0.98550000  0.36225600  0.48101800  1
  H  514  1  0.00308000  0.51371700  0.51195100  1
  H  515  1  0.00478700  0.48893700  0.48855300  1
  H  522  1  0.00352900  0.56775100  0.53736800  1
  H  523  1  0.00392500  0.56600800  0.45864700  1
  H  524  1  0.02674700  0.63731800  0.47173800  1
  H  525  1  0.03623500  0.61023800  0.49529100  1
  H  526  1  0.03501200  0.57533000  0.49667800  1
  H  531  1  0.97355600  0.57747600  0.49888900  1
  H  532  1  0.97468500  0.61243400  0.49719100  1
  H  533  1  0.98654300  0.64097300  0.51831800  1
  H  535  1  0.02909100  0.67202800  0.47102300  1
  H  542  1  0.02146200  0.76711100  0.52188800  1
  H  543  1  0.03542500  0.73085500  0.52170400  1
  H  545  1  0.98877800  0.67566300  0.51754600  1
  H  549  1  0.97706200  0.73518800  0.47695200  1
  H  551  1  0.96326400  0.77094300  0.47606300  1
  H  553  1  0.98307300  0.70527800  0.49938000  1
  H  556  1  0.01783000  0.86139000  0.48506200  1
  H  557  1  0.01402500  0.82688500  0.48425500  1
  H  559  1  0.01567000  0.79689600  0.50071800  1
  H  565  1  0.96658500  0.83124700  0.52340300  1
  H  566  1  0.96997300  0.86583400  0.52359000  1
  H  580  1  0.06538300  0.95968600  0.50359900  1
  H  581  1  0.03827500  0.93425600  0.50378300  1
  H  582  1  0.00044500  0.92579800  0.47309500  1
  H  583  1  0.10983900  0.99620200  0.53597400  1
  H  584  1  0.07493200  0.99758200  0.53486300  1
  H  585  1  0.11185200  0.99835200  0.47420900  1
  H  591  1  0.13692300  0.97283100  0.52648500  1
  H  592  1  0.17162400  0.97210900  0.52877200  1
  H  596  1  0.32673800  0.98519200  0.51377500  1
  H  600  1  0.23484500  0.97799900  0.47631900  1
  H  601  1  0.27058400  0.97709700  0.46250500  1
  H  606  1  0.42573000  0.97416400  0.50024100  1
  H  607  1  0.39082000  0.97442600  0.49806400  1
  H  608  1  0.36124800  0.98604900  0.51754200  1
  H  612  1  0.64011100  0.98628500  0.47981400  1
  H  613  1  0.61230300  0.97443300  0.50166600  1
  H  614  1  0.57732100  0.97360100  0.50061100  1
  H  617  1  0.67481600  0.98815200  0.47930700  1
  H  621  1  0.73499900  0.97413900  0.51764700  1
  H  623  1  0.77078900  0.97572000  0.53305400  1
  H  625  1  0.70487400  0.98178800  0.49653000  1
  H  627  1  0.79745600  0.99764300  0.48085500  1
  H  630  1  0.86221000  0.98096800  0.48575900  1
  H  631  1  0.82749200  0.98050900  0.48746800  1
  H  635  1  0.99838700  0.89089200  0.47343600  1
  H  644  1  0.98850800  0.98972400  0.50338500  1
  H  645  1  0.93445400  0.96433300  0.50364800  1
  H  646  1  0.95981500  0.93735900  0.50362100  1
  H  647  1  0.99634400  0.92675300  0.53469300  1
  H  648  1  0.99433600  0.89181100  0.53513600  1
  H  655  1  0.53850000  0.00454300  0.56655700  1
  H  656  1  0.45977600  0.00495100  0.56484200  1
  H  657  1  0.47077300  0.02470500  0.63575100  1
  H  658  1  0.49522200  0.03601600  0.60984300  1
  H  659  1  0.49699600  0.03562400  0.57488100  1
  H  667  1  0.02595000  0.52795500  0.63767800  1
  H  668  1  0.03584700  0.50581800  0.60961800  1
  H  669  1  0.03492800  0.50513500  0.57467000  1
  H  670  1  0.00355600  0.54237300  0.56435600  1
  H  671  1  0.00419000  0.46367500  0.56734200  1
  H  676  1  0.98616300  0.48091500  0.63903100  1
  H  677  1  0.97433400  0.50274300  0.61124800  1
  H  678  1  0.97352100  0.50174300  0.57625700  1
  H  683  1  0.50073600  0.97421500  0.57569200  1
  H  684  1  0.49869400  0.97450800  0.61061700  1
  H  685  1  0.51832800  0.98578100  0.64025800  1
  H  687  1  0.46722100  0.02442300  0.67031900  1
  H  693  1  0.52198600  0.02186600  0.73475400  1
  H  695  1  0.53578400  0.02138100  0.77103200  1
  H  697  1  0.51601100  0.00090000  0.70490500  1
  H  699  1  0.02789700  0.52730300  0.67242600  1
  H  705  1  0.01820200  0.47375600  0.76630000  1
  H  706  1  0.03351700  0.47512000  0.73045800  1
  H  708  1  0.98799100  0.48033300  0.67374500  1
  H  712  1  0.97385700  0.51846200  0.73400800  1
  H  714  1  0.97531200  0.53380000  0.76983900  1
  H  716  1  0.98160400  0.49744200  0.70387000  1
  H  718  1  0.51435300  0.98488900  0.67475400  1
  H  723  1  0.47646000  0.97786000  0.76636500  1
  H  724  1  0.46280600  0.97729900  0.73053700  1
  H  727  1  0.48614700  0.01830700  0.86090000  1
  H  728  1  0.48852600  0.01771700  0.82621400  1
  H  729  1  0.48275800  0.99989500  0.79640200  1
  H  735  1  0.02806200  0.52589200  0.86259400  1
  H  736  1  0.02728000  0.52795200  0.82785600  1
  H  740  1  0.99742300  0.48161500  0.79646600  1
  H  743  1  0.98104900  0.48610600  0.86130800  1
  H  744  1  0.98033700  0.48804800  0.82659600  1
  H  750  1  0.52844900  0.97090100  0.82975000  1
  H  751  1  0.52595300  0.97142600  0.86445700  1
  H  758  1  0.47335900  0.07726300  0.99883000  1
  H  767  1  0.50337100  0.06504800  0.95818700  1
  H  768  1  0.50315600  0.03766800  0.93303900  1
  H  769  1  0.53637300  0.10965600  0.99442100  1
  H  770  1  0.53496200  0.07475400  0.99576500  1
  H  771  1  0.47466600  0.11220700  0.99716200  1
  H  777  1  0.52696800  0.13704400  0.97137200  1
  H  778  1  0.52945000  0.17173800  0.97084900  1
  H  782  1  0.48345900  0.20507100  0.99960500  1
  H  785  1  0.51455000  0.32687400  0.98416300  1
  H  790  1  0.47710500  0.23494000  0.97728400  1
  H  791  1  0.46324400  0.27065000  0.97651500  1
  H  796  1  0.50093200  0.42586300  0.97320200  1
  H  797  1  0.49877900  0.39095300  0.97348200  1
  H  798  1  0.51829600  0.36138800  0.98498500  1
  H  799  1  0.00609100  0.53574600  0.89083500  1
  H  800  1  0.00285000  0.47404100  0.88887600  1
  H  810  1  0.06853800  0.50378900  0.96287600  1
  H  811  1  0.04326800  0.50353900  0.93560700  1
  H  812  1  0.00571400  0.53462400  0.92578600  1
  H  815  1  0.00216700  0.47302500  0.92386800  1
  H  817  1  0.20472700  0.48199500  0.99703700  1
  H  820  1  0.17465200  0.48811200  0.97976700  1
  H  821  1  0.13995500  0.48615600  0.98037400  1
  H  823  1  0.32736200  0.48043400  0.98738800  1
  H  827  1  0.26713200  0.51848400  0.97284600  1
  H  829  1  0.23132000  0.53386100  0.97411400  1
  H  831  1  0.29726500  0.49751800  0.98086300  1
  H  836  1  0.42493900  0.50168600  0.97263600  1
  H  837  1  0.38995000  0.50250200  0.97345800  1
  H  838  1  0.36207600  0.48084900  0.98553800  1
  H  842  1  0.57649900  0.50089400  0.97329700  1
  H  843  1  0.61141700  0.49886500  0.97360800  1
  H  844  1  0.64104800  0.51850600  0.98488400  1
  H  848  1  0.67554100  0.51455300  0.98403400  1
  H  853  1  0.76720500  0.47678500  0.97718500  1
  H  854  1  0.73142000  0.46305600  0.97660600  1
  H  860  1  0.83051500  0.52889500  0.97027800  1
  H  861  1  0.86521300  0.52642000  0.97081500  1
  H  865  1  0.79721600  0.48317400  0.99944000  1
  H  868  1  0.92502300  0.47315300  0.99887300  1
  H  869  1  0.89008100  0.47438300  0.99703900  1
  H  879  1  0.98978500  0.50270700  0.98748100  1
  H  880  1  0.96477800  0.50345500  0.93324700  1
  H  881  1  0.93762000  0.50337600  0.95841500  1
  H  882  1  0.92742700  0.53474300  0.99543900  1
  H  883  1  0.89253100  0.53607800  0.99392000  1
  H  887  1  0.48046900  0.64028900  0.98551000  1
  H  888  1  0.50223200  0.61246600  0.97351000  1
  H  889  1  0.50118600  0.57748500  0.97267500  1
  H  892  1  0.48000000  0.67499700  0.98737600  1
  H  896  1  0.51813500  0.73519700  0.97300300  1
  H  898  1  0.53348500  0.77102200  0.97436700  1
  H  900  1  0.49712700  0.70506700  0.98090500  1
  H  902  1  0.48147900  0.79762100  0.99695500  1
  H  905  1  0.48589100  0.86247900  0.98069300  1
  H  906  1  0.48780900  0.82778100  0.97989000  1
  H  907  1  0.47393100  0.99762700  0.88935100  1
  H  911  1  0.47274700  0.99958600  0.92429900  1
  H  920  1  0.50255600  0.98851800  0.98906500  1
  H  921  1  0.50329900  0.93419400  0.96426400  1
  H  922  1  0.50304900  0.95924900  0.93700400  1
  H  923  1  0.53434800  0.99626600  0.92662600  1
  H  924  1  0.53563500  0.99461600  0.89172600  1
  H  934  1  0.65210900  0.12223000  0.19149500  1
  H  935  1  0.62105000  0.15964600  0.18096000  1
  H  936  1  0.62093700  0.18471400  0.15368200  1
  H  937  1  0.61991200  0.13038900  0.12890800  1
  H  940  1  0.59048000  0.11930500  0.19353500  1
  H  941  1  0.65328300  0.12294400  0.22644100  1
  H  944  1  0.60605400  0.29224000  0.13428700  1
  H  945  1  0.60369500  0.25756100  0.13488200  1
  H  947  1  0.58397900  0.44808800  0.14022800  1
  H  952  1  0.63930500  0.38395500  0.13823700  1
  H  954  1  0.65331700  0.34777000  0.13795600  1
  H  955  1  0.63318100  0.41371000  0.11718200  1
  H  963  1  0.57688200  0.55432300  0.12038900  1
  H  964  1  0.65557100  0.55139600  0.12102600  1
  H  965  1  0.61333400  0.54367500  0.15155000  1
  H  966  1  0.61144500  0.50873000  0.15193500  1
  H  967  1  0.58730800  0.48266800  0.14043700  1
  H  977  1  0.19229900  0.65199100  0.12083300  1
  H  978  1  0.18187500  0.62094300  0.15833800  1
  H  979  1  0.15469700  0.62102300  0.18351300  1
  H  980  1  0.12971500  0.62008800  0.12927400  1
  H  981  1  0.22723400  0.65313000  0.12155700  1
  H  984  1  0.19427200  0.59035600  0.11803800  1
  H  990  1  0.29013500  0.64574400  0.14303500  1
  H  991  1  0.25540300  0.64366200  0.14372100  1
  H  994  1  0.22924100  0.59139100  0.11908800  1
  H  996  1  0.44585700  0.64482100  0.14373600  1
  H  1002  1  0.35185200  0.59143300  0.13490800  1
  H  1003  1  0.38770600  0.59299500  0.15014900  1
  H  1011  1  0.55314300  0.65997900  0.11959800  1
  H  1012  1  0.54349400  0.62267300  0.15100500  1
  H  1013  1  0.50855300  0.62318700  0.15193400  1
  H  1014  1  0.55147800  0.58125700  0.12005000  1
  H  1015  1  0.48059200  0.64530200  0.14176800  1
  H  1040  1  0.63028500  0.63014800  0.11995500  1
  H  1041  1  0.60548000  0.60674000  0.11987100  1
  H  1048  1  0.68428400  0.65563200  0.12056500  1
  H  1049  1  0.68260300  0.57690700  0.12101000  1
  H  1050  1  0.75348700  0.58794200  0.14084000  1
  H  1051  1  0.72756800  0.61239200  0.15211800  1
  H  1052  1  0.69261400  0.61415800  0.15170700  1
  H  1055  1  0.78804800  0.58440900  0.14059400  1
  H  1060  1  0.85242700  0.63926300  0.13809300  1
  H  1062  1  0.88866000  0.65313400  0.13763900  1
  H  1063  1  0.82262300  0.63320900  0.11707800  1
  H  1066  1  0.97862600  0.60358500  0.13470500  1
  H  1067  1  0.94394400  0.60594000  0.13410000  1
  H  1072  1  0.11654600  0.59064100  0.19318000  1
  H  1080  1  0.07620480  0.62086800  0.18112600  1
  H  1081  1  0.05093780  0.62067300  0.15385700  1
  H  1082  1  0.11282400  0.65373300  0.22552000  1
  H  1083  1  0.11410900  0.65227300  0.19060700  1
  H  1090  1  0.64472600  0.75572000  0.14197800  1
  H  1091  1  0.62248500  0.72774700  0.15201100  1
  H  1092  1  0.62174100  0.69280900  0.15107300  1
  H  1093  1  0.65887200  0.68257300  0.12006000  1
  H  1094  1  0.58017900  0.68548600  0.11968900  1
  H  1097  1  0.64419600  0.79045900  0.14395900  1
  H  1103  1  0.59074900  0.88441200  0.13472800  1
  H  1104  1  0.59223000  0.84856400  0.15000900  1
  H  1110  1  0.64297200  0.98060300  0.14441800  1
  H  1111  1  0.64500800  0.94587100  0.14354600  1
  H  1123  1  0.62098400  0.08120880  0.18490200  1
  H  1124  1  0.62068600  0.05383480  0.15974900  1
  H  1125  1  0.65157300  0.04382980  0.12201800  1
  H  1126  1  0.65267900  0.00888684  0.12243000  1
  H  1129  1  0.58995100  0.04193580  0.11886000  1
  H  1130  1  0.59095500  0.00695484  0.11958300  1
  H  1136  1  0.64582000  0.14428400  0.28943900  1
  H  1137  1  0.64375000  0.14504600  0.25469600  1
  H  1140  1  0.59155200  0.12034000  0.22851000  1
  H  1143  1  0.13527800  0.60628400  0.29116400  1
  H  1144  1  0.13586900  0.60394000  0.25647300  1
  H  1145  1  0.11719300  0.60069500  0.32086200  1
  H  1146  1  0.11493700  0.59200200  0.22813300  1
  H  1152  1  0.08963880  0.64450400  0.25291900  1
  H  1153  1  0.08911480  0.64696600  0.28763000  1
  H  1158  1  0.59907500  0.11505200  0.32084600  1
  H  1161  1  0.60534000  0.09783880  0.29078100  1
  H  1162  1  0.60338900  0.09852580  0.25607700  1
  H  1164  1  0.64470400  0.14469900  0.44507300  1
  H  1170  1  0.59137300  0.13586000  0.35104000  1
  H  1171  1  0.59278900  0.15102500  0.38694300  1
  H  1173  1  0.14095400  0.58406500  0.44691200  1
  H  1179  1  0.13951000  0.63925300  0.38285700  1
  H  1181  1  0.13945700  0.65326300  0.34664700  1
  H  1183  1  0.11830000  0.63341800  0.41256100  1
  H  1185  1  0.10212700  0.63179800  0.44263000  1
  H  1189  1  0.09497580  0.59461300  0.35072800  1
  H  1190  1  0.09400380  0.58076500  0.38647600  1
  H  1192  1  0.59729600  0.10531800  0.44352400  1
  H  1196  1  0.63548500  0.09090580  0.38330700  1
  H  1198  1  0.65095300  0.09231080  0.34753900  1
  H  1200  1  0.61441400  0.09880180  0.41342200  1
  H  1208  1  0.65986000  0.12049400  0.55237400  1
  H  1209  1  0.62250400  0.15193500  0.54271800  1
  H  1210  1  0.62302800  0.15286700  0.50776900  1
  H  1211  1  0.58114100  0.12094300  0.55067300  1
  H  1212  1  0.64519000  0.14272100  0.47981600  1
  H  1220  1  0.12155200  0.57724200  0.55312600  1
  H  1221  1  0.12151800  0.65592800  0.55013100  1
  H  1222  1  0.15250300  0.61364600  0.54243800  1
  H  1223  1  0.15285400  0.61168700  0.50748600  1
  H  1224  1  0.14120400  0.58743500  0.48150300  1
  H  1229  1  0.09115180  0.61824600  0.54163300  1
  H  1230  1  0.09139880  0.61602900  0.50671600  1
  H  1231  1  0.10299100  0.63558000  0.47714800  1
  H  1236  1  0.61858200  0.09055780  0.54111400  1
  H  1237  1  0.61940800  0.09138380  0.50611700  1
  H  1238  1  0.59771400  0.10345700  0.47824500  1
  H  1248  1  0.12156800  0.19291200  0.65180700  1
  H  1249  1  0.15880600  0.18215200  0.62078400  1
  H  1250  1  0.18418200  0.15516400  0.62062200  1
  H  1251  1  0.13012800  0.12978600  0.62031500  1
  H  1252  1  0.19385000  0.11680400  0.59018200  1
  H  1255  1  0.11827700  0.19357600  0.59014600  1
  H  1258  1  0.29218200  0.13519500  0.60503900  1
  H  1259  1  0.25748800  0.13598600  0.60287100  1
  H  1260  1  0.32189300  0.11716500  0.59947100  1
  H  1262  1  0.44797800  0.14090400  0.58296100  1
  H  1268  1  0.38383400  0.13930600  0.63819400  1
  H  1270  1  0.34763100  0.13916300  0.65217000  1
  H  1272  1  0.41356200  0.11816700  0.63230100  1
  H  1281  1  0.55419600  0.12127200  0.57607100  1
  H  1282  1  0.55123500  0.12194400  0.65477800  1
  H  1283  1  0.54353100  0.15244700  0.61237400  1
  H  1284  1  0.50858600  0.15281500  0.61045400  1
  H  1285  1  0.48255500  0.14114700  0.58631900  1
  H  1310  1  0.62999500  0.12081800  0.62951800  1
  H  1311  1  0.60660100  0.12083400  0.60470000  1
  H  1318  1  0.75557200  0.14302500  0.64385400  1
  H  1319  1  0.72759600  0.15291300  0.62155800  1
  H  1320  1  0.69265800  0.15197800  0.62081000  1
  H  1321  1  0.68241000  0.12100400  0.65813600  1
  H  1322  1  0.68535700  0.12056100  0.57942800  1
  H  1325  1  0.79031300  0.14500800  0.64328000  1
  H  1331  1  0.88424200  0.13538000  0.58984900  1
  H  1332  1  0.84835400  0.15062800  0.59112700  1
  H  1338  1  0.98052400  0.14503400  0.64242200  1
  H  1339  1  0.94577800  0.14451100  0.64424700  1
  H  1351  1  0.08033580  0.18523600  0.62096200  1
  H  1352  1  0.05323280  0.15980000  0.62076900  1
  H  1353  1  0.04340580  0.12227900  0.65177900  1
  H  1354  1  0.00845584  0.12281300  0.65258800  1
  H  1357  1  0.04201680  0.11869400  0.59015000  1
  H  1358  1  0.00702584  0.11952700  0.59085600  1
  H  1364  1  0.14823200  0.28953700  0.64070100  1
  H  1365  1  0.14610500  0.25485100  0.64110400  1
  H  1366  1  0.12264600  0.22790000  0.65216800  1
  H  1369  1  0.11964300  0.22852300  0.59040500  1
  H  1372  1  0.10158200  0.29185100  0.60044600  1
  H  1373  1  0.09901580  0.25725200  0.60146500  1
  H  1375  1  0.09869980  0.32215900  0.61611600  1
  H  1377  1  0.14088900  0.44680900  0.64782100  1
  H  1382  1  0.13610100  0.38376300  0.59067900  1
  H  1384  1  0.15089200  0.34828000  0.59172400  1
  H  1387  1  0.11674900  0.41419800  0.59794300  1
  H  1388  1  0.10122500  0.44462000  0.60062600  1
  H  1393  1  0.09113680  0.35264300  0.63554300  1
  H  1394  1  0.09189480  0.38819900  0.65020000  1
  H  1402  1  0.12171800  0.55359200  0.65882000  1
  H  1403  1  0.15268000  0.54335800  0.62137500  1
  H  1404  1  0.15289100  0.50836200  0.62222200  1
  H  1405  1  0.12175700  0.55187000  0.58009100  1
  H  1406  1  0.14150600  0.48148400  0.64562600  1
  H  1411  1  0.09126280  0.54296500  0.61769000  1
  H  1412  1  0.09137080  0.50801100  0.61881100  1
  H  1413  1  0.10245700  0.47921300  0.59800300  1
  H  1438  1  0.12003700  0.63067400  0.62893600  1
  H  1439  1  0.12174400  0.60589400  0.60553800  1
  H  1446  1  0.12048600  0.68470800  0.65435300  1
  H  1447  1  0.12088200  0.68296500  0.57563200  1
  H  1448  1  0.14370400  0.75427500  0.58872300  1
  H  1449  1  0.15319200  0.72719500  0.61227600  1
  H  1450  1  0.15196900  0.69228700  0.61366300  1
  H  1455  1  0.09051280  0.69443300  0.61587400  1
  H  1456  1  0.09164180  0.72939100  0.61417600  1
  H  1457  1  0.10350000  0.75793000  0.63530300  1
  H  1459  1  0.14604800  0.78898500  0.58800800  1
  H  1466  1  0.13841900  0.88406800  0.63887300  1
  H  1467  1  0.15238200  0.84781200  0.63868900  1
  H  1469  1  0.10573500  0.79262000  0.63453100  1
  H  1473  1  0.09401880  0.85214500  0.59393700  1
  H  1475  1  0.08022080  0.88790000  0.59304800  1
  H  1477  1  0.10003000  0.82223500  0.61636500  1
  H  1480  1  0.13478700  0.97834700  0.60204700  1
  H  1481  1  0.13098200  0.94384200  0.60124000  1
  H  1483  1  0.13262700  0.91385300  0.61770300  1
  H  1489  1  0.08354180  0.94820400  0.64038800  1
  H  1490  1  0.08692980  0.98279100  0.64057500  1
  H  1504  1  0.18234000  0.07664280  0.62058400  1
  H  1505  1  0.15523200  0.05121280  0.62076800  1
  H  1506  1  0.11740200  0.04275480  0.59008000  1
  H  1507  1  0.22679600  0.11315900  0.65295900  1
  H  1508  1  0.19188900  0.11453900  0.65184800  1
  H  1509  1  0.22880900  0.11530900  0.59119400  1
  H  1515  1  0.25388000  0.08978780  0.64347000  1
  H  1516  1  0.28858100  0.08906580  0.64575700  1
  H  1520  1  0.44369500  0.10214900  0.63076000  1
  H  1524  1  0.35180200  0.09495580  0.59330400  1
  H  1525  1  0.38754100  0.09405380  0.57949000  1
  H  1530  1  0.54268700  0.09112080  0.61722600  1
  H  1531  1  0.50777700  0.09138280  0.61504900  1
  H  1532  1  0.47820500  0.10300600  0.63452700  1
  H  1536  1  0.75706800  0.10324200  0.59679900  1
  H  1537  1  0.72926000  0.09138980  0.61865100  1
  H  1538  1  0.69427800  0.09055780  0.61759600  1
  H  1541  1  0.79177300  0.10510900  0.59629200  1
  H  1545  1  0.85195600  0.09109580  0.63463200  1
  H  1547  1  0.88774600  0.09267680  0.65003900  1
  H  1549  1  0.82183100  0.09874480  0.61351500  1
  H  1551  1  0.91441300  0.11460000  0.59784000  1
  H  1554  1  0.97916700  0.09792480  0.60274400  1
  H  1555  1  0.94444900  0.09746580  0.60445300  1
  H  1559  1  0.11534400  0.00784884  0.59042100  1
  H  1568  1  0.10546500  0.10668100  0.62037000  1
  H  1569  1  0.05141080  0.08128980  0.62063300  1
  H  1570  1  0.07677180  0.05431580  0.62060600  1
  H  1571  1  0.11330100  0.04370980  0.65167800  1
  H  1572  1  0.11129300  0.00876784  0.65212100  1
  H  1579  1  0.65545700  0.12150000  0.68354200  1
  H  1580  1  0.57673300  0.12190800  0.68182700  1
  H  1581  1  0.58773000  0.14166200  0.75273600  1
  H  1582  1  0.61217900  0.15297300  0.72682800  1
  H  1583  1  0.61395300  0.15258100  0.69186600  1
  H  1591  1  0.14290700  0.64491200  0.75466300  1
  H  1592  1  0.15280400  0.62277500  0.72660300  1
  H  1593  1  0.15188500  0.62209200  0.69165500  1
  H  1594  1  0.12051300  0.65933000  0.68134100  1
  H  1595  1  0.12114700  0.58063200  0.68432700  1
  H  1600  1  0.10312000  0.59787200  0.75601600  1
  H  1601  1  0.09129080  0.61970000  0.72823300  1
  H  1602  1  0.09047780  0.61870000  0.69324200  1
  H  1607  1  0.61769300  0.09117180  0.69267700  1
  H  1608  1  0.61565100  0.09146480  0.72760200  1
  H  1609  1  0.63528500  0.10273800  0.75724300  1
  H  1611  1  0.58417800  0.14138000  0.78730400  1
  H  1617  1  0.63894300  0.13882300  0.85173900  1
  H  1619  1  0.65274100  0.13833800  0.88801700  1
  H  1621  1  0.63296800  0.11785700  0.82189000  1
  H  1623  1  0.14485400  0.64426000  0.78941100  1
  H  1629  1  0.13515900  0.59071300  0.88328500  1
  H  1630  1  0.15047400  0.59207700  0.84744300  1
  H  1632  1  0.10494800  0.59729000  0.79073000  1
  H  1636  1  0.09081380  0.63541900  0.85099300  1
  H  1638  1  0.09226880  0.65075700  0.88682400  1
  H  1640  1  0.09856080  0.61439900  0.82085500  1
  H  1642  1  0.63131000  0.10184600  0.79173900  1
  H  1647  1  0.59341700  0.09481680  0.88335000  1
  H  1648  1  0.57976300  0.09425580  0.84752200  1
  H  1651  1  0.60310400  0.13526400  0.97788500  1
  H  1652  1  0.60548300  0.13467400  0.94319900  1
  H  1653  1  0.59971500  0.11685200  0.91338700  1
  H  1659  1  0.14501900  0.64284900  0.97957900  1
  H  1660  1  0.14423700  0.64490900  0.94484100  1
  H  1664  1  0.11438000  0.59857200  0.91345100  1
  H  1667  1  0.09800580  0.60306300  0.97829300  1
  H  1668  1  0.09729380  0.60500500  0.94358100  1
  H  1674  1  0.64540600  0.08785780  0.94673500  1
  H  1675  1  0.64291000  0.08838280  0.98144200  1
  H  1682  1  0.59031600  0.19422000  0.11581500  1
  H  1691  1  0.62032800  0.18200500  0.07517210  1
  H  1692  1  0.62011300  0.15462500  0.05002410  1
  H  1693  1  0.65333000  0.22661300  0.11140600  1
  H  1694  1  0.65191900  0.19171100  0.11275000  1
  H  1695  1  0.59162300  0.22916400  0.11414700  1
  H  1701  1  0.64392500  0.25400100  0.08835710  1
  H  1702  1  0.64640700  0.28869500  0.08783410  1
  H  1706  1  0.60041600  0.32202800  0.11659000  1
  H  1709  1  0.63150700  0.44383100  0.10114800  1
  H  1714  1  0.59406200  0.35189700  0.09426910  1
  H  1715  1  0.58020100  0.38760700  0.09350010  1
  H  1720  1  0.61788900  0.54282000  0.09018710  1
  H  1721  1  0.61573600  0.50791000  0.09046710  1
  H  1722  1  0.63525300  0.47834500  0.10197000  1
  H  1723  1  0.12304800  0.65270300  0.00782006  1
  H  1724  1  0.11980700  0.59099800  0.00586106  1
  H  1734  1  0.18549500  0.62074600  0.07986110  1
  H  1735  1  0.16022500  0.62049600  0.05259210  1
  H  1736  1  0.12267100  0.65158100  0.04277110  1
  H  1739  1  0.11912400  0.58998200  0.04085310  1
  H  1741  1  0.32168400  0.59895200  0.11402200  1
  H  1744  1  0.29160900  0.60506900  0.09675210  1
  H  1745  1  0.25691200  0.60311300  0.09735910  1
  H  1747  1  0.44431900  0.59739100  0.10437300  1
  H  1751  1  0.38408900  0.63544100  0.08983110  1
  H  1753  1  0.34827700  0.65081800  0.09109910  1
  H  1755  1  0.41422200  0.61447500  0.09784810  1
  H  1760  1  0.54189600  0.61864300  0.08962110  1
  H  1761  1  0.50690700  0.61945900  0.09044310  1
  H  1762  1  0.47903300  0.59780600  0.10252300  1
  H  1766  1  0.69345600  0.61785100  0.09028210  1
  H  1767  1  0.72837400  0.61582200  0.09059310  1
  H  1768  1  0.75800500  0.63546300  0.10186900  1
  H  1772  1  0.79249800  0.63151000  0.10101900  1
  H  1777  1  0.88416200  0.59374200  0.09417010  1
  H  1778  1  0.84837700  0.58001300  0.09359110  1
  H  1784  1  0.94747200  0.64585200  0.08726310  1
  H  1785  1  0.98217000  0.64337700  0.08780010  1
  H  1789  1  0.91417300  0.60013100  0.11642500  1
  H  1792  1  0.04197980  0.59011000  0.11585800  1
  H  1793  1  0.00703784  0.59134000  0.11402400  1
  H  1803  1  0.10674200  0.61966400  0.10446600  1
  H  1804  1  0.08173480  0.62041200  0.05023210  1
  H  1805  1  0.05457680  0.62033300  0.07540010  1
  H  1806  1  0.04438380  0.65170000  0.11242400  1
  H  1807  1  0.00948784  0.65303500  0.11090500  1
  H  1811  1  0.59742600  0.75724600  0.10249500  1
  H  1812  1  0.61918900  0.72942300  0.09049510  1
  H  1813  1  0.61814300  0.69444200  0.08966010  1
  H  1816  1  0.59695700  0.79195400  0.10436100  1
  H  1820  1  0.63509200  0.85215400  0.08998810  1
  H  1822  1  0.65044200  0.88797900  0.09135210  1
  H  1824  1  0.61408400  0.82202400  0.09789010  1
  H  1826  1  0.59843600  0.91457800  0.11394000  1
  H  1829  1  0.60284800  0.97943600  0.09767810  1
  H  1830  1  0.60476600  0.94473800  0.09687510  1
  H  1831  1  0.59088800  0.11458400  0.00633606  1
  H  1835  1  0.58970400  0.11654300  0.04128410  1
  H  1844  1  0.61951300  0.10547500  0.10605000  1
  H  1845  1  0.62025600  0.05115080  0.08124910  1
  H  1846  1  0.62000600  0.07620580  0.05398910  1
  H  1847  1  0.65130500  0.11322300  0.04361110  1
  H  1848  1  0.65259200  0.11157300  0.00871106  1
  C  1  1  0.50379500  0.03931300  0.04941800  1
  C  2  1  0.50372100  0.05297100  0.03455600  1
  C  3  1  0.50335600  0.04301600  0.01670900  1
  C  5  1  0.50351700  0.02069500  0.04099700  1
  C  6  1  0.50363400  0.00279600  0.05159100  1
  C  7  1  0.50423200  0.00381800  0.07236700  1
  C  8  1  0.52232300  0.00500800  0.08221700  1
  C  9  1  0.52294900  0.00557200  0.10276700  1
  C  14  1  0.48680200  0.00323800  0.08339900  1
  C  15  1  0.48749500  0.00370500  0.10395400  1
  C  18  1  0.49545000  0.14696500  0.00752400  1
  C  19  1  0.49681800  0.16748800  0.00713400  1
  C  22  1  0.49064300  0.32531000  0.00383300  1
  C  24  1  0.48801600  0.30459800  0.00320200  1
  C  26  1  0.51287500  0.26032700  0.01178200  1
  C  27  1  0.51178400  0.23974000  0.01159000  1
  C  32  1  0.49887600  0.42945200  0.00375100  1
  C  33  1  0.49698800  0.41926100  0.02160000  1
  C  34  1  0.49574800  0.39873100  0.02176300  1
  C  35  1  0.49648500  0.38785500  0.00415200  1
  C  36  1  0.49477900  0.36706000  0.00428200  1
  C  37  1  0.48006000  0.35768000  0.01537800  1
  C  38  1  0.47795700  0.33722500  0.01505000  1
  C  44  1  0.05035100  0.50374300  0.03803100  1
  C  45  1  0.03554400  0.50379200  0.05174700  1
  C  46  1  0.01766300  0.50351200  0.04185500  1
  C  48  1  0.04186000  0.50349800  0.01944100  1
  C  49  1  0.05238500  0.50354300  0.00149800  1
  C  50  1  0.07316400  0.50411300  0.00244200  1
  C  51  1  0.08303300  0.52219500  0.00359300  1
  C  52  1  0.10357800  0.52280100  0.00416400  1
  C  58  1  0.08417700  0.48667200  0.00189900  1
  C  59  1  0.10473000  0.48734500  0.00237900  1
  C  61  1  0.11480200  0.50540700  0.00350400  1
  C  62  1  0.13566200  0.50612900  0.00359800  1
  C  63  1  0.17750100  0.50842000  0.00294800  1
  C  64  1  0.16640600  0.51968300  0.01629200  1
  C  65  1  0.14587700  0.51849000  0.01667500  1
  C  68  1  0.19824000  0.51024200  0.00215800  1
  C  71  1  0.32454200  0.50429700  0.00693100  1
  C  73  1  0.30380000  0.50360700  0.00875900  1
  C  75  1  0.24162000  0.48409600  0.00864300  1
  C  76  1  0.26221900  0.48498100  0.00830700  1
  C  80  1  0.33565700  0.51786300  0.01790400  1
  C  81  1  0.42890400  0.50365900  0.00314200  1
  C  82  1  0.38725400  0.50450400  0.00417900  1
  C  83  1  0.39837400  0.50552500  0.02162600  1
  C  84  1  0.41892200  0.50507200  0.02114700  1
  C  85  1  0.36639200  0.50470400  0.00478400  1
  C  86  1  0.35619100  0.51812600  0.01677900  1
  C  92  1  0.53872400  0.55101900  0.00309000  1
  C  93  1  0.55257000  0.53634200  0.00334700  1
  C  94  1  0.54284200  0.51837200  0.00330800  1
  C  96  1  0.52021500  0.54235700  0.00293700  1
  C  97  1  0.50218100  0.55271800  0.00276400  1
  C  98  1  0.48338100  0.54392800  0.00261300  1
  C  100  1  0.45957600  0.52147000  0.00260700  1
  C  101  1  0.45080100  0.53991400  0.00257700  1
  C  102  1  0.46547800  0.55375800  0.00261900  1
  C  103  1  0.44970500  0.50321700  0.00271100  1
  C  104  1  0.45900400  0.48461100  0.00284400  1
  C  106  1  0.48163700  0.46061800  0.00323100  1
  C  107  1  0.46312600  0.45196100  0.00321000  1
  C  108  1  0.44927900  0.46663900  0.00303300  1
  C  109  1  0.49967000  0.45024600  0.00350800  1
  C  110  1  0.51846200  0.45904000  0.00358600  1
  C  112  1  0.54225900  0.48150700  0.00365100  1
  C  113  1  0.55103200  0.46306100  0.00387100  1
  C  114  1  0.53636100  0.44920900  0.00386900  1
  C  115  1  0.55212800  0.49976700  0.00360500  1
  C  118  1  0.57292600  0.49930300  0.00387600  1
  C  119  1  0.58311800  0.49771400  0.02175400  1
  C  120  1  0.60364800  0.49653600  0.02193400  1
  C  121  1  0.61451300  0.49702700  0.00430900  1
  C  122  1  0.63529200  0.49523600  0.00444900  1
  C  123  1  0.64460200  0.48057000  0.01567400  1
  C  129  1  0.66504100  0.47833900  0.01531900  1
  C  130  1  0.67699900  0.49084000  0.00394700  1
  C  132  1  0.69768400  0.48808700  0.00329600  1
  C  134  1  0.74207400  0.51277100  0.01165300  1
  C  135  1  0.76265400  0.51160000  0.01139500  1
  C  140  1  0.83478100  0.49660600  0.00687300  1
  C  141  1  0.85530200  0.49523500  0.00726400  1
  C  144  1  0.99917700  0.50360900  0.05097300  1
  C  145  1  0.99852600  0.50437100  0.07175600  1
  C  146  1  0.99800700  0.48788800  0.10347200  1
  C  147  1  0.99883300  0.48702700  0.08293100  1
  C  149  1  0.95876500  0.50319400  0.01694200  1
  C  151  1  0.98100900  0.50342300  0.04094400  1
  C  152  1  0.96248800  0.50362800  0.04955400  1
  C  153  1  0.94877100  0.50351400  0.03475400  1
  C  154  1  0.99734900  0.52255100  0.08143900  1
  C  155  1  0.99643300  0.52334700  0.10196500  1
  C  160  1  0.50295200  0.57350500  0.00319400  1
  C  161  1  0.50433100  0.58347100  0.02121000  1
  C  162  1  0.50492000  0.60401600  0.02169700  1
  C  163  1  0.50405000  0.61514000  0.00424500  1
  C  164  1  0.50424300  0.63599700  0.00486200  1
  C  165  1  0.51759000  0.64620300  0.01693500  1
  C  171  1  0.50376500  0.67783400  0.00703900  1
  C  172  1  0.51729400  0.66673400  0.01807100  1
  C  174  1  0.50304600  0.69857400  0.00884900  1
  C  176  1  0.48347500  0.76072400  0.00853200  1
  C  177  1  0.48437200  0.74012600  0.00822100  1
  C  181  1  0.50496000  0.88744800  0.00416000  1
  C  182  1  0.50566400  0.86659300  0.00411800  1
  C  183  1  0.51789100  0.85628600  0.01724700  1
  C  184  1  0.51905700  0.83575900  0.01675300  1
  C  185  1  0.50790300  0.82476200  0.00323800  1
  C  188  1  0.50968900  0.80402700  0.00235500  1
  C  190  1  0.50348500  0.98408800  0.04305100  1
  C  192  1  0.50328300  0.95998500  0.02091200  1
  C  193  1  0.50358400  0.95145300  0.03946800  1
  C  194  1  0.50373500  0.96631400  0.05311800  1
  C  195  1  0.50315900  0.94987700  0.00278800  1
  C  196  1  0.50370500  0.92908900  0.00347100  1
  C  197  1  0.52236000  0.89864700  0.00501700  1
  C  198  1  0.52177400  0.91919500  0.00462400  1
  C  203  1  0.48625800  0.91809800  0.00272100  1
  C  204  1  0.48691000  0.89754100  0.00301500  1
  C  207  1  0.50556800  0.00485300  0.11400800  1
  C  208  1  0.50630900  0.00488400  0.13486800  1
  C  209  1  0.50858800  0.00413700  0.17670900  1
  C  210  1  0.51980600  0.01755000  0.16565200  1
  C  211  1  0.51862000  0.01797700  0.14511700  1
  C  214  1  0.51037200  0.00331800  0.19745200  1
  C  217  1  0.00862100  0.49578600  0.14585400  1
  C  218  1  0.00823200  0.49714400  0.16637900  1
  C  223  1  0.99671900  0.50604700  0.11334900  1
  C  224  1  0.99590800  0.50695800  0.13418300  1
  C  225  1  0.99508800  0.50969400  0.17598800  1
  C  226  1  0.98213200  0.52081900  0.16431600  1
  C  227  1  0.98247000  0.51940800  0.14380000  1
  C  230  1  0.99523000  0.51184700  0.19670700  1
  C  235  1  0.49510800  0.99166500  0.14592800  1
  C  236  1  0.49622600  0.99129700  0.16646700  1
  C  239  1  0.50419700  0.00790900  0.32372700  1
  C  241  1  0.50350700  0.00974200  0.30298300  1
  C  243  1  0.48405100  0.00964500  0.24078900  1
  C  244  1  0.48488100  0.00926700  0.26139300  1
  C  248  1  0.00471100  0.49082500  0.32410600  1
  C  250  1  0.00406100  0.48820400  0.30340100  1
  C  252  1  0.00049400  0.50112500  0.27064100  1
  C  253  1  0.01296600  0.51295400  0.25918300  1
  C  254  1  0.01279000  0.51186200  0.23859500  1
  C  260  1  0.99993900  0.49873800  0.22906000  1
  C  262  1  0.98766300  0.48691000  0.24047300  1
  C  263  1  0.98777900  0.48806200  0.26107400  1
  C  267  1  0.49649600  0.99794600  0.22940300  1
  C  269  1  0.49771400  0.99636000  0.27097800  1
  C  270  1  0.50949600  0.98379900  0.25959100  1
  C  271  1  0.50929600  0.98479900  0.23899200  1
  C  277  1  0.51775900  0.01888200  0.33484300  1
  C  278  1  0.50354500  0.00410300  0.42809500  1
  C  279  1  0.50440000  0.00514500  0.38644100  1
  C  280  1  0.50539200  0.02259000  0.39756200  1
  C  281  1  0.50493200  0.02210800  0.41811500  1
  C  282  1  0.50460300  0.00575300  0.36557800  1
  C  283  1  0.51802200  0.01775200  0.35538000  1
  C  289  1  0.01586300  0.47808900  0.33602100  1
  C  290  1  0.00474200  0.49922600  0.42820000  1
  C  291  1  0.02257900  0.49730000  0.41800200  1
  C  292  1  0.02272200  0.49601800  0.39747400  1
  C  293  1  0.00510100  0.49674600  0.38662200  1
  C  294  1  0.00520900  0.49500800  0.36583700  1
  C  295  1  0.01621300  0.48021000  0.35647500  1
  C  301  1  0.99393700  0.50564000  0.33351900  1
  C  302  1  0.98751500  0.49885700  0.39700300  1
  C  303  1  0.98730400  0.50002900  0.41753600  1
  C  304  1  0.99416100  0.50767900  0.35398800  1
  C  308  1  0.49086200  0.99601600  0.33391500  1
  C  309  1  0.50259100  0.98682200  0.41718300  1
  C  310  1  0.50295000  0.98737200  0.39661700  1
  C  311  1  0.49106400  0.99495600  0.35446200  1
  C  315  1  0.03863500  0.05060300  0.50363800  1
  C  316  1  0.05246100  0.03590200  0.50354900  1
  C  317  1  0.04270400  0.01794900  0.50339800  1
  C  319  1  0.02011000  0.04197300  0.50359600  1
  C  320  1  0.00208800  0.05235600  0.50375100  1
  C  321  1  0.00288500  0.07313700  0.50396100  1
  C  322  1  0.00420100  0.08338000  0.52183100  1
  C  323  1  0.00494000  0.10393200  0.52198400  1
  C  329  1  0.00222500  0.08376200  0.48628600  1
  C  330  1  0.00287100  0.10430800  0.48650400  1
  C  332  1  0.14688000  0.00870000  0.49465500  1
  C  333  1  0.16740900  0.00818900  0.49590700  1
  C  337  1  0.32518800  0.00469500  0.48972400  1
  C  339  1  0.30448400  0.00404200  0.48708200  1
  C  341  1  0.27169700  0.00039700  0.49993600  1
  C  342  1  0.26021000  0.01280100  0.51181100  1
  C  343  1  0.23962600  0.01261100  0.51069700  1
  C  349  1  0.23011300  0.99981600  0.49749900  1
  C  350  1  0.33710800  0.01583100  0.47697400  1
  C  351  1  0.42931100  0.00469700  0.49804300  1
  C  352  1  0.41911800  0.02253000  0.49606200  1
  C  353  1  0.39859000  0.02268300  0.49481000  1
  C  354  1  0.38772100  0.00507600  0.49562300  1
  C  355  1  0.36693000  0.00519200  0.49390100  1
  C  356  1  0.35756000  0.01618900  0.47909800  1
  C  362  1  0.55085600  0.00403200  0.53795300  1
  C  363  1  0.53617300  0.00428800  0.55179500  1
  C  364  1  0.51820800  0.00422900  0.54205600  1
  C  366  1  0.54220000  0.00386100  0.51943700  1
  C  367  1  0.55256700  0.00369500  0.50140400  1
  C  368  1  0.54378800  0.00354700  0.48259600  1
  C  370  1  0.52134200  0.00355800  0.45877600  1
  C  371  1  0.53978900  0.00351100  0.45000600  1
  C  372  1  0.55362800  0.00354500  0.46469200  1
  C  373  1  0.50309300  0.00367300  0.44889800  1
  C  374  1  0.48448200  0.00381200  0.45819000  1
  C  376  1  0.46048100  0.00419300  0.48081400  1
  C  377  1  0.45183200  0.00416100  0.46229400  1
  C  378  1  0.46651600  0.00397800  0.44845200  1
  C  379  1  0.45010300  0.00446100  0.49884600  1
  C  380  1  0.45888600  0.00452800  0.51764900  1
  C  382  1  0.48134300  0.00457700  0.54145800  1
  C  383  1  0.46289300  0.00479900  0.55022600  1
  C  384  1  0.44904800  0.00480900  0.53554700  1
  C  385  1  0.49959700  0.00452700  0.55133500  1
  C  388  1  0.57335200  0.00412400  0.50218300  1
  C  389  1  0.58331900  0.02214300  0.50345100  1
  C  390  1  0.60386300  0.02262900  0.50403200  1
  C  391  1  0.61498100  0.00517200  0.50328700  1
  C  392  1  0.63583600  0.00578500  0.50347200  1
  C  393  1  0.64604900  0.01794500  0.51673500  1
  C  399  1  0.66658100  0.01908100  0.51641600  1
  C  400  1  0.67766800  0.00796100  0.50294900  1
  C  402  1  0.69840500  0.00976500  0.50219800  1
  C  404  1  0.76054700  0.00930700  0.48263100  1
  C  405  1  0.73994800  0.00898000  0.48349600  1
  C  409  1  0.88727400  0.00435200  0.50480700  1
  C  410  1  0.86641800  0.00453300  0.50533600  1
  C  411  1  0.85616200  0.01789400  0.51735000  1
  C  412  1  0.83562600  0.01760800  0.51839200  1
  C  413  1  0.82457500  0.00408100  0.50730900  1
  C  416  1  0.80383000  0.00336500  0.50903600  1
  C  418  1  0.98347400  0.04362300  0.50368600  1
  C  420  1  0.95961600  0.02123800  0.50358700  1
  C  421  1  0.95088400  0.03969900  0.50372000  1
  C  422  1  0.96559700  0.05350300  0.50382400  1
  C  423  1  0.94970900  0.00301000  0.50353400  1
  C  424  1  0.92891400  0.00348800  0.50390900  1
  C  425  1  0.89832600  0.00525100  0.52230200  1
  C  426  1  0.91887400  0.00478500  0.52189100  1
  C  431  1  0.91806900  0.00263800  0.48637100  1
  C  432  1  0.89750800  0.00300200  0.48684800  1
  C  435  1  0.00425600  0.11475100  0.50433900  1
  C  436  1  0.00518500  0.13558300  0.50446000  1
  C  437  1  0.00785900  0.17742200  0.50379600  1
  C  438  1  0.02070700  0.16604800  0.51537900  1
  C  439  1  0.01931900  0.14553400  0.51581300  1
  C  443  1  0.00988900  0.19817500  0.50288700  1
  C  446  1  0.99255300  0.14690400  0.49285500  1
  C  447  1  0.99385500  0.16742400  0.49254500  1
  C  452  1  0.00417400  0.32507300  0.50726900  1
  C  454  1  0.00314000  0.30432900  0.50933800  1
  C  456  1  0.00992100  0.26032500  0.48353600  1
  C  457  1  0.00936900  0.23974400  0.48467900  1
  C  461  1  0.99839300  0.27204000  0.49584400  1
  C  465  1  0.98408500  0.24216900  0.50940400  1
  C  466  1  0.98514500  0.26275400  0.50877700  1
  C  467  1  0.99656400  0.23045600  0.49784600  1
  C  471  1  0.01572100  0.33640900  0.52018400  1
  C  472  1  0.00489600  0.42935600  0.50245100  1
  C  473  1  0.00509300  0.38773200  0.50356400  1
  C  474  1  0.02277400  0.39847500  0.50441600  1
  C  475  1  0.02271100  0.41903200  0.50379900  1
  C  476  1  0.00511100  0.36690100  0.50450200  1
  C  477  1  0.01628700  0.35691600  0.51875400  1
  C  483  1  0.99330700  0.33510500  0.49294000  1
  C  484  1  0.98739600  0.41880600  0.50159700  1
  C  485  1  0.98752700  0.39825400  0.50209400  1
  C  486  1  0.99375300  0.35561900  0.49159000  1
  C  490  1  0.00338000  0.53916200  0.54976100  1
  C  491  1  0.00337500  0.55298800  0.53505700  1
  C  492  1  0.00330000  0.54323200  0.51709700  1
  C  494  1  0.00338100  0.52064200  0.54112000  1
  C  495  1  0.00361600  0.50262300  0.55150700  1
  C  496  1  0.00391000  0.48382100  0.54272600  1
  C  498  1  0.00448800  0.46001600  0.52027200  1
  C  499  1  0.00451900  0.45124700  0.53872200  1
  C  500  1  0.00420300  0.46592400  0.55256700  1
  C  501  1  0.00475200  0.45014900  0.50201500  1
  C  502  1  0.00469800  0.45942100  0.48339500  1
  C  504  1  0.00460400  0.48201900  0.45938100  1
  C  505  1  0.00464200  0.46350100  0.45073600  1
  C  506  1  0.00474100  0.44967300  0.46543100  1
  C  507  1  0.00452000  0.50003700  0.44899200  1
  C  508  1  0.00419000  0.51883100  0.45776400  1
  C  510  1  0.00368400  0.54262000  0.48021300  1
  C  511  1  0.00392300  0.55139400  0.46176300  1
  C  512  1  0.00425400  0.53672400  0.44791800  1
  C  513  1  0.00347400  0.55248800  0.49847000  1
  C  516  1  0.00407400  0.57326400  0.49797900  1
  C  517  1  0.02219500  0.58306100  0.49684700  1
  C  518  1  0.02285100  0.60357600  0.49586200  1
  C  519  1  0.00546600  0.61482500  0.49602300  1
  C  520  1  0.00625000  0.63563700  0.49505700  1
  C  521  1  0.01860700  0.64521100  0.48150500  1
  C  527  1  0.01995100  0.66572100  0.48105600  1
  C  528  1  0.98757600  0.60484400  0.49731200  1
  C  529  1  0.98685600  0.58430600  0.49820100  1
  C  530  1  0.99527800  0.64732000  0.50795500  1
  C  534  1  0.00884400  0.67740800  0.49401000  1
  C  536  1  0.01097500  0.69811700  0.49408500  1
  C  538  1  0.01213100  0.76046700  0.51225900  1
  C  539  1  0.01101200  0.73988800  0.51201600  1
  C  540  1  0.00033000  0.77196800  0.49980400  1
  C  544  1  0.99657300  0.66783800  0.50745800  1
  C  546  1  0.99809500  0.73042300  0.49911500  1
  C  547  1  0.98630700  0.74187800  0.48663200  1
  C  548  1  0.98749100  0.76246700  0.48681400  1
  C  554  1  0.00484700  0.83477400  0.49303500  1
  C  555  1  0.00690500  0.85523200  0.49322900  1
  C  560  1  0.99621400  0.88786800  0.50433100  1
  C  561  1  0.99446800  0.86709800  0.50449500  1
  C  562  1  0.97969500  0.85777200  0.51556300  1
  C  563  1  0.97755300  0.83732300  0.51523900  1
  C  564  1  0.99025900  0.82539700  0.50406800  1
  C  567  1  0.98762600  0.80470500  0.50344800  1
  C  569  1  0.05196400  0.99953500  0.50339500  1
  C  570  1  0.07275600  0.99901500  0.50393500  1
  C  571  1  0.10430500  0.99841200  0.48713000  1
  C  572  1  0.08376100  0.99931300  0.48647700  1
  C  573  1  0.01819400  0.95891900  0.50347900  1
  C  575  1  0.04205100  0.98130400  0.50338200  1
  C  576  1  0.05077700  0.96283700  0.50351100  1
  C  577  1  0.03606500  0.94903200  0.50360600  1
  C  578  1  0.08262000  0.99780700  0.52201800  1
  C  579  1  0.10314300  0.99682200  0.52260600  1
  C  586  1  0.11435800  0.99705600  0.50519100  1
  C  587  1  0.13519200  0.99607600  0.50591200  1
  C  588  1  0.17700700  0.99501000  0.50843200  1
  C  589  1  0.16531400  0.98211100  0.51960200  1
  C  590  1  0.14479900  0.98256500  0.51829200  1
  C  593  1  0.19773000  0.99508800  0.51057100  1
  C  597  1  0.24155200  0.98760800  0.48562500  1
  C  598  1  0.26215000  0.98773700  0.48680100  1
  C  602  1  0.33460600  0.99394500  0.50455400  1
  C  603  1  0.39809600  0.98749600  0.49780800  1
  C  604  1  0.41862900  0.98727500  0.49893700  1
  C  605  1  0.35507500  0.99416800  0.50659100  1
  C  609  1  0.58426100  0.98683100  0.50151800  1
  C  610  1  0.60481600  0.98738200  0.50201400  1
  C  611  1  0.64692300  0.99485200  0.49002000  1
  C  615  1  0.77191800  0.99775400  0.49522600  1
  C  616  1  0.66746100  0.99592700  0.48975600  1
  C  618  1  0.73036000  0.99627100  0.49652700  1
  C  619  1  0.74173400  0.98385000  0.50846800  1
  C  620  1  0.76232900  0.98480600  0.50822600  1
  C  628  1  0.83482300  0.99100700  0.49519900  1
  C  629  1  0.85536700  0.99123400  0.49422700  1
  C  632  1  0.99958300  0.95019100  0.50358900  1
  C  633  1  0.99826300  0.89819500  0.48649700  1
  C  634  1  0.99944900  0.91871800  0.48622900  1
  C  636  1  0.95897400  0.98460100  0.50346400  1
  C  638  1  0.98156500  0.96058100  0.50352000  1
  C  639  1  0.96303900  0.95195000  0.50355500  1
  C  640  1  0.94921600  0.96664700  0.50355200  1
  C  641  1  0.99874300  0.92941500  0.50386100  1
  C  642  1  0.99688500  0.91927100  0.52173900  1
  C  643  1  0.99558000  0.89875200  0.52193800  1
  C  649  1  0.49912800  0.00478900  0.57213600  1
  C  650  1  0.49752100  0.02265600  0.58233700  1
  C  651  1  0.49634000  0.02282500  0.60287100  1
  C  652  1  0.49684000  0.00519800  0.61372700  1
  C  653  1  0.49503900  0.00532200  0.63450900  1
  C  654  1  0.48036100  0.01652600  0.64382300  1
  C  660  1  0.47811700  0.01614900  0.66426500  1
  C  661  1  0.00403800  0.50341600  0.57230000  1
  C  662  1  0.02204700  0.50471800  0.58228400  1
  C  663  1  0.02252200  0.50527100  0.60283600  1
  C  664  1  0.00506500  0.50444400  0.61395200  1
  C  665  1  0.00566700  0.50457400  0.63481800  1
  C  666  1  0.01782000  0.51780400  0.64508000  1
  C  672  1  0.01893400  0.51744200  0.66561900  1
  C  673  1  0.98674400  0.50268300  0.58320400  1
  C  674  1  0.98728500  0.50314100  0.60376900  1
  C  675  1  0.99472400  0.49110300  0.64587300  1
  C  679  1  0.99577200  0.49079900  0.66641900  1
  C  680  1  0.49868200  0.98758400  0.60334300  1
  C  681  1  0.49975800  0.98734800  0.58280600  1
  C  682  1  0.50748200  0.99406300  0.64639800  1
  C  686  1  0.49061800  0.00477200  0.67621800  1
  C  688  1  0.48785300  0.00409500  0.69690500  1
  C  690  1  0.50049600  0.00017400  0.72973400  1
  C  691  1  0.51244800  0.01239600  0.74133100  1
  C  692  1  0.51123400  0.01211800  0.76191200  1
  C  698  1  0.00779600  0.50396100  0.67667400  1
  C  700  1  0.00958000  0.50317200  0.69742000  1
  C  702  1  0.00907500  0.48351100  0.75956200  1
  C  703  1  0.00878600  0.48441500  0.73896000  1
  C  707  1  0.99746600  0.49604600  0.77094300  1
  C  709  1  0.99606000  0.49742300  0.72936700  1
  C  710  1  0.98358400  0.50930500  0.74074600  1
  C  711  1  0.98449900  0.50902400  0.76134800  1
  C  717  1  0.50532200  0.99381200  0.66685600  1
  C  719  1  0.48589600  0.98740200  0.75974300  1
  C  720  1  0.48717100  0.98761700  0.73915100  1
  C  721  1  0.49785500  0.99963000  0.77129700  1
  C  725  1  0.49612900  0.00746100  0.83400800  1
  C  726  1  0.49477100  0.00786600  0.85453300  1
  C  730  1  0.00460200  0.50499300  0.88634000  1
  C  731  1  0.00459800  0.50570800  0.86548000  1
  C  732  1  0.01783800  0.51784100  0.85520800  1
  C  733  1  0.01739500  0.51902400  0.83467500  1
  C  734  1  0.00382300  0.50797900  0.82364200  1
  C  737  1  0.00299800  0.50978600  0.80290200  1
  C  741  1  0.99084400  0.49578400  0.83390900  1
  C  742  1  0.99123800  0.49465300  0.85444900  1
  C  745  1  0.50489700  0.99585700  0.88703600  1
  C  746  1  0.50572900  0.99496900  0.86620400  1
  C  747  1  0.51795900  0.98133100  0.85658900  1
  C  748  1  0.51939400  0.98099700  0.83607500  1
  C  749  1  0.50850100  0.99414900  0.82440400  1
  C  752  1  0.51074600  0.99433600  0.80369300  1
  C  755  1  0.50330900  0.05206600  0.99818400  1
  C  756  1  0.48751700  0.10454800  0.99704800  1
  C  757  1  0.48668800  0.08401000  0.99791600  1
  C  759  1  0.50281900  0.01785200  0.95791900  1
  C  761  1  0.50307400  0.04195400  0.98006000  1
  C  762  1  0.50316400  0.05047800  0.96149300  1
  C  763  1  0.50304200  0.03561700  0.94784200  1
  C  764  1  0.50403700  0.07284800  0.99744800  1
  C  765  1  0.52219200  0.08255500  0.99607100  1
  C  766  1  0.52295500  0.10307700  0.99512000  1
  C  772  1  0.50565000  0.11444900  0.99557200  1
  C  773  1  0.50653600  0.13528600  0.99474000  1
  C  774  1  0.50929400  0.17709800  0.99392000  1
  C  775  1  0.52031800  0.16541900  0.98087900  1
  C  776  1  0.51889100  0.14490700  0.98121500  1
  C  779  1  0.51149800  0.19781600  0.99407800  1
  C  783  1  0.50087400  0.27180900  0.99970300  1
  C  786  1  0.48649100  0.24165300  0.98681300  1
  C  787  1  0.48764000  0.26225100  0.98694300  1
  C  788  1  0.49848600  0.23021600  0.99911800  1
  C  792  1  0.50539500  0.33473600  0.99299000  1
  C  793  1  0.49856900  0.39823200  0.98655400  1
  C  794  1  0.49968900  0.41876500  0.98632300  1
  C  795  1  0.50740400  0.35520800  0.99317800  1
  C  801  1  0.04376300  0.50339000  0.98282400  1
  C  803  1  0.02151900  0.50323300  0.95881400  1
  C  804  1  0.04003500  0.50343900  0.95019900  1
  C  805  1  0.05375000  0.50356200  0.96500100  1
  C  806  1  0.00335400  0.50317500  0.94878400  1
  C  807  1  0.00395500  0.50372300  0.92798800  1
  C  808  1  0.00557200  0.52238300  0.89754700  1
  C  809  1  0.00519800  0.52179000  0.91810000  1
  C  813  1  0.00307200  0.48628600  0.91698900  1
  C  814  1  0.00333800  0.48694700  0.89642700  1
  C  818  1  0.14676000  0.49487100  0.99045700  1
  C  819  1  0.16729700  0.49599500  0.99013700  1
  C  822  1  0.23022800  0.49645700  0.99686200  1
  C  824  1  0.27180000  0.49778300  0.99536300  1
  C  825  1  0.26040700  0.50948200  0.98272700  1
  C  826  1  0.23981000  0.50922900  0.98368200  1
  C  832  1  0.33473600  0.49094700  0.99505700  1
  C  833  1  0.41799400  0.50267200  0.98585900  1
  C  834  1  0.39743100  0.50302800  0.98640600  1
  C  835  1  0.35528000  0.49115700  0.99399100  1
  C  839  1  0.60413900  0.49885000  0.98668300  1
  C  840  1  0.58360400  0.49991900  0.98643700  1
  C  841  1  0.64718400  0.50767000  0.99318300  1
  C  845  1  0.73051100  0.50077800  0.99964300  1
  C  847  1  0.66763900  0.50552500  0.99295600  1
  C  849  1  0.76055900  0.48622200  0.98670900  1
  C  850  1  0.73996700  0.48745300  0.98690500  1
  C  851  1  0.77207600  0.49822300  0.99893100  1
  C  855  1  0.88779900  0.50535000  0.99522700  1
  C  856  1  0.86696900  0.50620100  0.99436900  1
  C  857  1  0.85735100  0.51842900  0.98072800  1
  C  858  1  0.83684100  0.51985300  0.98038700  1
  C  859  1  0.82517300  0.50895200  0.99354000  1
  C  862  1  0.80446300  0.51117200  0.99370300  1
  C  866  1  0.89772100  0.48724400  0.99685000  1
  C  867  1  0.91825600  0.48645900  0.99781100  1
  C  870  1  0.98487300  0.50303100  0.95791500  1
  C  872  1  0.96068200  0.50303600  0.98033000  1
  C  873  1  0.95218700  0.50318500  0.96174100  1
  C  874  1  0.96698700  0.50321700  0.94802600  1
  C  875  1  0.95015200  0.50316000  0.99827000  1
  C  876  1  0.92938100  0.50383000  0.99728700  1
  C  877  1  0.91965200  0.52195800  0.99575200  1
  C  878  1  0.89913500  0.52267400  0.99470100  1
  C  884  1  0.50217200  0.58442000  0.98590300  1
  C  885  1  0.50265700  0.60497800  0.98645800  1
  C  886  1  0.49073300  0.64709600  0.99400900  1
  C  890  1  0.49591500  0.77210700  0.99682500  1
  C  891  1  0.49048200  0.66763400  0.99509800  1
  C  893  1  0.49727400  0.73054300  0.99537600  1
  C  894  1  0.50905500  0.74192700  0.98280900  1
  C  895  1  0.50878300  0.76252400  0.98374200  1
  C  903  1  0.49561800  0.83506300  0.99036600  1
  C  904  1  0.49452100  0.85559600  0.99079800  1
  C  908  1  0.50280200  0.99914600  0.94938600  1
  C  909  1  0.48680200  0.99748500  0.89697700  1
  C  910  1  0.48604500  0.99852000  0.91751400  1
  C  912  1  0.50289800  0.95893500  0.98427000  1
  C  914  1  0.50274900  0.98125000  0.95998800  1
  C  915  1  0.50289100  0.96263200  0.95156100  1
  C  916  1  0.50301500  0.94897900  0.96641800  1
  C  917  1  0.50343300  0.99807600  0.92861600  1
  C  918  1  0.52155000  0.99652800  0.91886500  1
  C  919  1  0.52224000  0.99539800  0.89834700  1
  C  925  1  0.62075200  0.15627000  0.16640300  1
  C  926  1  0.62067800  0.16992800  0.15154100  1
  C  927  1  0.62031300  0.15997300  0.13369400  1
  C  929  1  0.62047400  0.13765200  0.15798200  1
  C  930  1  0.62059100  0.11975300  0.16857600  1
  C  931  1  0.62118900  0.12077500  0.18935200  1
  C  932  1  0.63928000  0.12196500  0.19920200  1
  C  933  1  0.63990600  0.12252900  0.21975200  1
  C  938  1  0.60375900  0.12019500  0.20038400  1
  C  939  1  0.60445200  0.12066200  0.22093900  1
  C  942  1  0.61240700  0.26392200  0.12450900  1
  C  943  1  0.61377500  0.28444500  0.12411900  1
  C  946  1  0.60760000  0.44226700  0.12081800  1
  C  948  1  0.60497300  0.42155500  0.12018700  1
  C  950  1  0.62983200  0.37728400  0.12876700  1
  C  951  1  0.62874100  0.35669700  0.12857500  1
  C  956  1  0.61583300  0.54640900  0.12073600  1
  C  957  1  0.61394500  0.53621800  0.13858500  1
  C  958  1  0.61270500  0.51568800  0.13874800  1
  C  959  1  0.61344200  0.50481200  0.12113700  1
  C  960  1  0.61173600  0.48401700  0.12126700  1
  C  961  1  0.59701700  0.47463700  0.13236300  1
  C  962  1  0.59491400  0.45418200  0.13203500  1
  C  968  1  0.16730800  0.62070000  0.15501600  1
  C  969  1  0.15250100  0.62074900  0.16873200  1
  C  970  1  0.13462000  0.62046900  0.15884000  1
  C  972  1  0.15881700  0.62045500  0.13642600  1
  C  973  1  0.16934200  0.62050000  0.11848300  1
  C  974  1  0.19012100  0.62107000  0.11942700  1
  C  975  1  0.19999000  0.63915200  0.12057800  1
  C  976  1  0.22053500  0.63975800  0.12114900  1
  C  982  1  0.20113400  0.60362900  0.11888400  1
  C  983  1  0.22168700  0.60430200  0.11936400  1
  C  985  1  0.23175900  0.62236400  0.12048900  1
  C  986  1  0.25261900  0.62308600  0.12058300  1
  C  987  1  0.29445800  0.62537700  0.11993300  1
  C  988  1  0.28336300  0.63664000  0.13327700  1
  C  989  1  0.26283400  0.63544700  0.13366000  1
  C  992  1  0.31519700  0.62719900  0.11914300  1
  C  995  1  0.44149900  0.62125400  0.12391600  1
  C  997  1  0.42075700  0.62056400  0.12574400  1
  C  999  1  0.35857700  0.60105300  0.12562800  1
  C  1000  1  0.37917600  0.60193800  0.12529200  1
  C  1004  1  0.45261400  0.63482000  0.13488900  1
  C  1005  1  0.54586100  0.62061600  0.12012700  1
  C  1006  1  0.50421100  0.62146100  0.12116400  1
  C  1007  1  0.51533100  0.62248200  0.13861100  1
  C  1008  1  0.53587900  0.62202900  0.13813200  1
  C  1009  1  0.48334900  0.62166100  0.12176900  1
  C  1010  1  0.47314800  0.63508300  0.13376400  1
  C  1016  1  0.65568100  0.66797600  0.12007500  1
  C  1017  1  0.66952700  0.65329900  0.12033200  1
  C  1018  1  0.65979900  0.63532900  0.12029300  1
  C  1020  1  0.63717200  0.65931400  0.11992200  1
  C  1021  1  0.61913800  0.66967500  0.11974900  1
  C  1022  1  0.60033800  0.66088500  0.11959800  1
  C  1024  1  0.57653300  0.63842700  0.11959200  1
  C  1025  1  0.56775800  0.65687100  0.11956200  1
  C  1026  1  0.58243500  0.67071500  0.11960400  1
  C  1027  1  0.56666200  0.62017400  0.11969600  1
  C  1028  1  0.57596100  0.60156800  0.11982900  1
  C  1030  1  0.59859400  0.57757500  0.12021600  1
  C  1031  1  0.58008300  0.56891800  0.12019500  1
  C  1032  1  0.56623600  0.58359600  0.12001800  1
  C  1033  1  0.61662700  0.56720300  0.12049300  1
  C  1034  1  0.63541900  0.57599700  0.12057100  1
  C  1036  1  0.65921600  0.59846400  0.12063600  1
  C  1037  1  0.66798900  0.58001800  0.12085600  1
  C  1038  1  0.65331800  0.56616600  0.12085400  1
  C  1039  1  0.66908500  0.61672400  0.12059000  1
  C  1042  1  0.68988300  0.61626000  0.12086100  1
  C  1043  1  0.70007500  0.61467100  0.13873900  1
  C  1044  1  0.72060500  0.61349300  0.13891900  1
  C  1045  1  0.73147000  0.61398400  0.12129400  1
  C  1046  1  0.75224900  0.61219300  0.12143400  1
  C  1047  1  0.76155900  0.59752700  0.13265900  1
  C  1053  1  0.78199800  0.59529600  0.13230400  1
  C  1054  1  0.79395600  0.60779700  0.12093200  1
  C  1056  1  0.81464100  0.60504400  0.12028100  1
  C  1058  1  0.85903100  0.62972800  0.12863800  1
  C  1059  1  0.87961100  0.62855700  0.12838000  1
  C  1064  1  0.95173800  0.61356300  0.12385800  1
  C  1065  1  0.97225900  0.61219200  0.12424900  1
  C  1068  1  0.11613400  0.62056600  0.16795800  1
  C  1069  1  0.11548300  0.62132800  0.18874100  1
  C  1070  1  0.11496400  0.60484500  0.22045700  1
  C  1071  1  0.11579000  0.60398400  0.19991600  1
  C  1073  1  0.07572180  0.62015100  0.13392700  1
  C  1075  1  0.09796580  0.62038000  0.15792900  1
  C  1076  1  0.07944480  0.62058500  0.16653900  1
  C  1077  1  0.06572780  0.62047100  0.15173900  1
  C  1078  1  0.11430600  0.63950800  0.19842400  1
  C  1079  1  0.11339000  0.64030400  0.21895000  1
  C  1084  1  0.61990900  0.69046200  0.12017900  1
  C  1085  1  0.62128800  0.70042800  0.13819500  1
  C  1086  1  0.62187700  0.72097300  0.13868200  1
  C  1087  1  0.62100700  0.73209700  0.12123000  1
  C  1088  1  0.62120000  0.75295400  0.12184700  1
  C  1089  1  0.63454700  0.76316000  0.13392000  1
  C  1095  1  0.62072200  0.79479100  0.12402400  1
  C  1096  1  0.63425100  0.78369100  0.13505600  1
  C  1098  1  0.62000300  0.81553100  0.12583400  1
  C  1100  1  0.60043200  0.87768100  0.12551700  1
  C  1101  1  0.60132900  0.85708300  0.12520600  1
  C  1105  1  0.62191700  0.00440484  0.12114500  1
  C  1106  1  0.62262100  0.98355000  0.12110300  1
  C  1107  1  0.63484800  0.97324300  0.13423200  1
  C  1108  1  0.63601400  0.95271600  0.13373800  1
  C  1109  1  0.62486000  0.94171900  0.12022300  1
  C  1112  1  0.62664600  0.92098400  0.11934000  1
  C  1114  1  0.62044200  0.10104500  0.16003600  1
  C  1116  1  0.62024000  0.07694180  0.13789700  1
  C  1117  1  0.62054100  0.06840980  0.15645300  1
  C  1118  1  0.62069200  0.08327080  0.17010300  1
  C  1119  1  0.62011600  0.06683380  0.11977300  1
  C  1120  1  0.62066200  0.04604580  0.12045600  1
  C  1121  1  0.63931700  0.01560380  0.12200200  1
  C  1122  1  0.63873100  0.03615180  0.12160900  1
  C  1127  1  0.60321500  0.03505480  0.11970600  1
  C  1128  1  0.60386700  0.01449780  0.12000000  1
  C  1131  1  0.62252500  0.12181000  0.23099300  1
  C  1132  1  0.62326600  0.12184100  0.25185300  1
  C  1133  1  0.62554500  0.12109400  0.29369400  1
  C  1134  1  0.63676300  0.13450700  0.28263700  1
  C  1135  1  0.63557700  0.13493400  0.26210200  1
  C  1138  1  0.62732900  0.12027500  0.31443700  1
  C  1141  1  0.12557800  0.61274300  0.26283900  1
  C  1142  1  0.12518900  0.61410100  0.28336400  1
  C  1147  1  0.11367600  0.62300400  0.23033400  1
  C  1148  1  0.11286500  0.62391500  0.25116800  1
  C  1149  1  0.11204500  0.62665100  0.29297300  1
  C  1150  1  0.09908880  0.63777600  0.28130100  1
  C  1151  1  0.09942680  0.63636500  0.26078500  1
  C  1154  1  0.11218700  0.62880400  0.31369200  1
  C  1159  1  0.61206500  0.10862200  0.26291300  1
  C  1160  1  0.61318300  0.10825400  0.28345200  1
  C  1163  1  0.62115400  0.12486600  0.44071200  1
  C  1165  1  0.62046400  0.12669900  0.41996800  1
  C  1167  1  0.60100800  0.12660200  0.35777400  1
  C  1168  1  0.60183800  0.12622400  0.37837800  1
  C  1172  1  0.12166800  0.60778200  0.44109100  1
  C  1174  1  0.12101800  0.60516100  0.42038600  1
  C  1176  1  0.11745100  0.61808200  0.38762600  1
  C  1177  1  0.12992300  0.62991100  0.37616800  1
  C  1178  1  0.12974700  0.62881900  0.35558000  1
  C  1184  1  0.11689600  0.61569500  0.34604500  1
  C  1186  1  0.10462000  0.60386700  0.35745800  1
  C  1187  1  0.10473600  0.60501900  0.37805900  1
  C  1191  1  0.61345300  0.11490300  0.34638800  1
  C  1193  1  0.61467100  0.11331700  0.38796300  1
  C  1194  1  0.62645300  0.10075600  0.37657600  1
  C  1195  1  0.62625300  0.10175600  0.35597700  1
  C  1201  1  0.63471600  0.13583900  0.45182800  1
  C  1202  1  0.62050200  0.12106000  0.54508000  1
  C  1203  1  0.62135700  0.12210200  0.50342600  1
  C  1204  1  0.62234900  0.13954700  0.51454700  1
  C  1205  1  0.62188900  0.13906500  0.53510000  1
  C  1206  1  0.62156000  0.12271000  0.48256300  1
  C  1207  1  0.63497900  0.13470900  0.47236500  1
  C  1213  1  0.13282000  0.59504600  0.45300600  1
  C  1214  1  0.12169900  0.61618300  0.54518500  1
  C  1215  1  0.13953600  0.61425700  0.53498700  1
  C  1216  1  0.13967900  0.61297500  0.51445900  1
  C  1217  1  0.12205800  0.61370300  0.50360700  1
  C  1218  1  0.12216600  0.61196500  0.48282200  1
  C  1219  1  0.13317000  0.59716700  0.47346000  1
  C  1225  1  0.11089400  0.62259700  0.45050400  1
  C  1226  1  0.10447200  0.61581400  0.51398800  1
  C  1227  1  0.10426100  0.61698600  0.53452100  1
  C  1228  1  0.11111800  0.62463600  0.47097300  1
  C  1232  1  0.60781900  0.11297300  0.45090000  1
  C  1233  1  0.61954800  0.10377900  0.53416800  1
  C  1234  1  0.61990700  0.10432900  0.51360200  1
  C  1235  1  0.60802100  0.11191300  0.47144700  1
  C  1239  1  0.15559200  0.16756000  0.62062300  1
  C  1240  1  0.16941800  0.15285900  0.62053400  1
  C  1241  1  0.15966100  0.13490600  0.62038300  1
  C  1243  1  0.13706700  0.15893000  0.62058100  1
  C  1244  1  0.11904500  0.16931300  0.62073600  1
  C  1245  1  0.11984200  0.19009400  0.62094600  1
  C  1246  1  0.12115800  0.20033700  0.63881600  1
  C  1247  1  0.12189700  0.22088900  0.63896900  1
  C  1253  1  0.11918200  0.20071900  0.60327100  1
  C  1254  1  0.11982800  0.22126500  0.60348900  1
  C  1256  1  0.26383700  0.12565700  0.61164000  1
  C  1257  1  0.28436600  0.12514600  0.61289200  1
  C  1261  1  0.44214500  0.12165200  0.60670900  1
  C  1263  1  0.42144100  0.12099900  0.60406700  1
  C  1265  1  0.38865400  0.11735400  0.61692100  1
  C  1266  1  0.37716700  0.12975800  0.62879600  1
  C  1267  1  0.35658300  0.12956800  0.62768200  1
  C  1273  1  0.34707000  0.11677300  0.61448400  1
  C  1274  1  0.45406500  0.13278800  0.59395900  1
  C  1275  1  0.54626800  0.12165400  0.61502800  1
  C  1276  1  0.53607500  0.13948700  0.61304700  1
  C  1277  1  0.51554700  0.13964000  0.61179500  1
  C  1278  1  0.50467800  0.12203300  0.61260800  1
  C  1279  1  0.48388700  0.12214900  0.61088600  1
  C  1280  1  0.47451700  0.13314600  0.59608300  1
  C  1286  1  0.66781300  0.12098900  0.65493800  1
  C  1287  1  0.65313000  0.12124500  0.66878000  1
  C  1288  1  0.63516500  0.12118600  0.65904100  1
  C  1290  1  0.65915700  0.12081800  0.63642200  1
  C  1291  1  0.66952400  0.12065200  0.61838900  1
  C  1292  1  0.66074500  0.12050400  0.59958100  1
  C  1294  1  0.63829900  0.12051500  0.57576100  1
  C  1295  1  0.65674600  0.12046800  0.56699100  1
  C  1296  1  0.67058500  0.12050200  0.58167700  1
  C  1297  1  0.62005000  0.12063000  0.56588300  1
  C  1298  1  0.60143900  0.12076900  0.57517500  1
  C  1300  1  0.57743800  0.12115000  0.59779900  1
  C  1301  1  0.56878900  0.12111800  0.57927900  1
  C  1302  1  0.58347300  0.12093500  0.56543700  1
  C  1303  1  0.56706000  0.12141800  0.61583100  1
  C  1304  1  0.57584300  0.12148500  0.63463400  1
  C  1306  1  0.59830000  0.12153400  0.65844300  1
  C  1307  1  0.57985000  0.12175600  0.66721100  1
  C  1308  1  0.56600500  0.12176600  0.65253200  1
  C  1309  1  0.61655400  0.12148400  0.66832000  1
  C  1312  1  0.69030900  0.12108100  0.61916800  1
  C  1313  1  0.70027600  0.13910000  0.62043600  1
  C  1314  1  0.72082000  0.13958600  0.62101700  1
  C  1315  1  0.73193800  0.12212900  0.62027200  1
  C  1316  1  0.75279300  0.12274200  0.62045700  1
  C  1317  1  0.76300600  0.13490200  0.63372000  1
  C  1323  1  0.78353800  0.13603800  0.63340100  1
  C  1324  1  0.79462500  0.12491800  0.61993400  1
  C  1326  1  0.81536200  0.12672200  0.61918300  1
  C  1328  1  0.87750400  0.12626400  0.59961600  1
  C  1329  1  0.85690500  0.12593700  0.60048100  1
  C  1333  1  0.00423084  0.12130900  0.62179200  1
  C  1334  1  0.98337500  0.12149000  0.62232100  1
  C  1335  1  0.97311900  0.13485100  0.63433500  1
  C  1336  1  0.95258300  0.13456500  0.63537700  1
  C  1337  1  0.94153200  0.12103800  0.62429400  1
  C  1340  1  0.92078700  0.12032200  0.62602100  1
  C  1342  1  0.10043100  0.16058000  0.62067100  1
  C  1344  1  0.07657280  0.13819500  0.62057200  1
  C  1345  1  0.06784080  0.15665600  0.62070500  1
  C  1346  1  0.08255380  0.17046000  0.62080900  1
  C  1347  1  0.06666580  0.11996700  0.62051900  1
  C  1348  1  0.04587080  0.12044500  0.62089400  1
  C  1349  1  0.01528280  0.12220800  0.63928700  1
  C  1350  1  0.03583080  0.12174200  0.63887600  1
  C  1355  1  0.03502580  0.11959500  0.60335600  1
  C  1356  1  0.01446480  0.11995900  0.60383300  1
  C  1359  1  0.12121300  0.23170800  0.62132400  1
  C  1360  1  0.12214200  0.25254000  0.62144500  1
  C  1361  1  0.12481600  0.29437900  0.62078100  1
  C  1362  1  0.13766400  0.28300500  0.63236400  1
  C  1363  1  0.13627600  0.26249100  0.63279800  1
  C  1367  1  0.12684600  0.31513200  0.61987200  1
  C  1370  1  0.10951000  0.26386100  0.60984000  1
  C  1371  1  0.11081200  0.28438100  0.60953000  1
  C  1376  1  0.12113100  0.44203000  0.62425400  1
  C  1378  1  0.12009700  0.42128600  0.62632300  1
  C  1380  1  0.12687800  0.37728200  0.60052100  1
  C  1381  1  0.12632600  0.35670100  0.60166400  1
  C  1385  1  0.11535000  0.38899700  0.61282900  1
  C  1389  1  0.10104200  0.35912600  0.62638900  1
  C  1390  1  0.10210200  0.37971100  0.62576200  1
  C  1391  1  0.11352100  0.34741300  0.61483100  1
  C  1395  1  0.13267800  0.45336600  0.63716900  1
  C  1396  1  0.12185300  0.54631300  0.61943600  1
  C  1397  1  0.12205000  0.50468900  0.62054900  1
  C  1398  1  0.13973100  0.51543200  0.62140100  1
  C  1399  1  0.13966800  0.53598900  0.62078400  1
  C  1400  1  0.12206800  0.48385800  0.62148700  1
  C  1401  1  0.13324400  0.47387300  0.63573900  1
  C  1407  1  0.11026400  0.45206200  0.60992500  1
  C  1408  1  0.10435300  0.53576300  0.61858200  1
  C  1409  1  0.10448400  0.51521100  0.61907900  1
  C  1410  1  0.11071000  0.47257600  0.60857500  1
  C  1414  1  0.12033700  0.65611900  0.66674600  1
  C  1415  1  0.12033200  0.66994500  0.65204200  1
  C  1416  1  0.12025700  0.66018900  0.63408200  1
  C  1418  1  0.12033800  0.63759900  0.65810500  1
  C  1419  1  0.12057300  0.61958000  0.66849200  1
  C  1420  1  0.12086700  0.60077800  0.65971100  1
  C  1422  1  0.12144500  0.57697300  0.63725700  1
  C  1423  1  0.12147600  0.56820400  0.65570700  1
  C  1424  1  0.12116000  0.58288100  0.66955200  1
  C  1425  1  0.12170900  0.56710600  0.61900000  1
  C  1426  1  0.12165500  0.57637800  0.60038000  1
  C  1428  1  0.12156100  0.59897600  0.57636600  1
  C  1429  1  0.12159900  0.58045800  0.56772100  1
  C  1430  1  0.12169800  0.56663000  0.58241600  1
  C  1431  1  0.12147700  0.61699400  0.56597700  1
  C  1432  1  0.12114700  0.63578800  0.57474900  1
  C  1434  1  0.12064100  0.65957700  0.59719800  1
  C  1435  1  0.12088000  0.66835100  0.57874800  1
  C  1436  1  0.12121100  0.65368100  0.56490300  1
  C  1437  1  0.12043100  0.66944500  0.61545500  1
  C  1440  1  0.12103100  0.69022100  0.61496400  1
  C  1441  1  0.13915200  0.70001800  0.61383200  1
  C  1442  1  0.13980800  0.72053300  0.61284700  1
  C  1443  1  0.12242300  0.73178200  0.61300800  1
  C  1444  1  0.12320700  0.75259400  0.61204200  1
  C  1445  1  0.13556400  0.76216800  0.59849000  1
  C  1451  1  0.13690800  0.78267800  0.59804100  1
  C  1452  1  0.10453300  0.72180100  0.61429700  1
  C  1453  1  0.10381300  0.70126300  0.61518600  1
  C  1454  1  0.11223500  0.76427700  0.62494000  1
  C  1458  1  0.12580100  0.79436500  0.61099500  1
  C  1460  1  0.12793200  0.81507400  0.61107000  1
  C  1462  1  0.12908800  0.87742400  0.62924400  1
  C  1463  1  0.12796900  0.85684500  0.62900100  1
  C  1464  1  0.11728700  0.88892500  0.61678900  1
  C  1468  1  0.11353000  0.78479500  0.62444300  1
  C  1470  1  0.11505200  0.84738000  0.61610000  1
  C  1471  1  0.10326400  0.85883500  0.60361700  1
  C  1472  1  0.10444800  0.87942400  0.60379900  1
  C  1478  1  0.12180400  0.95173100  0.61002000  1
  C  1479  1  0.12386200  0.97218900  0.61021400  1
  C  1484  1  0.11317100  0.00482484  0.62131600  1
  C  1485  1  0.11142500  0.98405500  0.62148000  1
  C  1486  1  0.09665180  0.97472900  0.63254800  1
  C  1487  1  0.09450980  0.95428000  0.63222400  1
  C  1488  1  0.10721600  0.94235400  0.62105300  1
  C  1491  1  0.10458300  0.92166200  0.62043300  1
  C  1493  1  0.16892100  0.11649200  0.62038000  1
  C  1494  1  0.18971300  0.11597200  0.62092000  1
  C  1495  1  0.22126200  0.11536900  0.60411500  1
  C  1496  1  0.20071800  0.11627000  0.60346200  1
  C  1497  1  0.13515100  0.07587580  0.62046400  1
  C  1499  1  0.15900800  0.09826080  0.62036700  1
  C  1500  1  0.16773400  0.07979380  0.62049600  1
  C  1501  1  0.15302200  0.06598880  0.62059100  1
  C  1502  1  0.19957700  0.11476400  0.63900300  1
  C  1503  1  0.22010000  0.11377900  0.63959100  1
  C  1510  1  0.23131500  0.11401300  0.62217600  1
  C  1511  1  0.25214900  0.11303300  0.62289700  1
  C  1512  1  0.29396400  0.11196700  0.62541700  1
  C  1513  1  0.28227100  0.09906780  0.63658700  1
  C  1514  1  0.26175600  0.09952180  0.63527700  1
  C  1517  1  0.31468700  0.11204500  0.62755600  1
  C  1521  1  0.35850900  0.10456500  0.60261000  1
  C  1522  1  0.37910700  0.10469400  0.60378600  1
  C  1526  1  0.45156300  0.11090200  0.62153900  1
  C  1527  1  0.51505300  0.10445300  0.61479300  1
  C  1528  1  0.53558600  0.10423200  0.61592200  1
  C  1529  1  0.47203200  0.11112500  0.62357600  1
  C  1533  1  0.70121800  0.10378800  0.61850300  1
  C  1534  1  0.72177300  0.10433900  0.61899900  1
  C  1535  1  0.76388000  0.11180900  0.60700500  1
  C  1539  1  0.88887500  0.11471100  0.61221100  1
  C  1540  1  0.78441800  0.11288400  0.60674100  1
  C  1542  1  0.84731700  0.11322800  0.61351200  1
  C  1543  1  0.85869100  0.10080700  0.62545300  1
  C  1544  1  0.87928600  0.10176300  0.62521100  1
  C  1552  1  0.95178000  0.10796400  0.61218400  1
  C  1553  1  0.97232400  0.10819100  0.61121200  1
  C  1556  1  0.11654000  0.06714780  0.62057400  1
  C  1557  1  0.11522000  0.01515180  0.60348200  1
  C  1558  1  0.11640600  0.03567480  0.60321400  1
  C  1560  1  0.07593080  0.10155800  0.62044900  1
  C  1562  1  0.09852180  0.07753780  0.62050500  1
  C  1563  1  0.07999580  0.06890680  0.62054000  1
  C  1564  1  0.06617280  0.08360380  0.62053700  1
  C  1565  1  0.11570000  0.04637180  0.62084600  1
  C  1566  1  0.11384200  0.03622780  0.63872400  1
  C  1567  1  0.11253700  0.01570880  0.63892300  1
  C  1573  1  0.61608500  0.12174600  0.68912100  1
  C  1574  1  0.61447800  0.13961300  0.69932200  1
  C  1575  1  0.61329700  0.13978200  0.71985600  1
  C  1576  1  0.61379700  0.12215500  0.73071200  1
  C  1577  1  0.61199600  0.12227900  0.75149400  1
  C  1578  1  0.59731800  0.13348300  0.76080800  1
  C  1584  1  0.59507400  0.13310600  0.78125000  1
  C  1585  1  0.12099500  0.62037300  0.68928500  1
  C  1586  1  0.13900400  0.62167500  0.69926900  1
  C  1587  1  0.13947900  0.62222800  0.71982100  1
  C  1588  1  0.12202200  0.62140100  0.73093700  1
  C  1589  1  0.12262400  0.62153100  0.75180300  1
  C  1590  1  0.13477700  0.63476100  0.76206500  1
  C  1596  1  0.13589100  0.63439900  0.78260400  1
  C  1597  1  0.10370100  0.61964000  0.70018900  1
  C  1598  1  0.10424200  0.62009800  0.72075400  1
  C  1599  1  0.11168100  0.60806000  0.76285800  1
  C  1603  1  0.11272900  0.60775600  0.78340400  1
  C  1604  1  0.61563900  0.10454100  0.72032800  1
  C  1605  1  0.61671500  0.10430500  0.69979100  1
  C  1606  1  0.62443900  0.11102000  0.76338300  1
  C  1610  1  0.60757500  0.12172900  0.79320300  1
  C  1612  1  0.60481000  0.12105200  0.81389000  1
  C  1614  1  0.61745300  0.11713100  0.84671900  1
  C  1615  1  0.62940500  0.12935300  0.85831600  1
  C  1616  1  0.62819100  0.12907500  0.87889700  1
  C  1622  1  0.12475300  0.62091800  0.79365900  1
  C  1624  1  0.12653700  0.62012900  0.81440500  1
  C  1626  1  0.12603200  0.60046800  0.87654700  1
  C  1627  1  0.12574300  0.60137200  0.85594500  1
  C  1631  1  0.11442300  0.61300300  0.88792800  1
  C  1633  1  0.11301700  0.61438000  0.84635200  1
  C  1634  1  0.10054100  0.62626200  0.85773100  1
  C  1635  1  0.10145600  0.62598100  0.87833300  1
  C  1641  1  0.62227900  0.11076900  0.78384100  1
  C  1643  1  0.60285300  0.10435900  0.87672800  1
  C  1644  1  0.60412800  0.10457400  0.85613600  1
  C  1645  1  0.61481200  0.11658700  0.88828200  1
  C  1649  1  0.61308600  0.12441800  0.95099300  1
  C  1650  1  0.61172800  0.12482300  0.97151800  1
  C  1654  1  0.12155900  0.62195000  0.00332506  1
  C  1655  1  0.12155500  0.62266500  0.98246500  1
  C  1656  1  0.13479500  0.63479800  0.97219300  1
  C  1657  1  0.13435200  0.63598100  0.95166000  1
  C  1658  1  0.12078000  0.62493600  0.94062700  1
  C  1661  1  0.11995500  0.62674300  0.91988700  1
  C  1665  1  0.10780100  0.61274100  0.95089400  1
  C  1666  1  0.10819500  0.61161000  0.97143400  1
  C  1669  1  0.62185400  0.11281400  0.00402106  1
  C  1670  1  0.62268600  0.11192600  0.98318900  1
  C  1671  1  0.63491600  0.09828780  0.97357400  1
  C  1672  1  0.63635100  0.09795380  0.95306000  1
  C  1673  1  0.62545800  0.11110600  0.94138900  1
  C  1676  1  0.62770300  0.11129300  0.92067800  1
  C  1679  1  0.62026600  0.16902300  0.11516900  1
  C  1680  1  0.60447400  0.22150500  0.11403300  1
  C  1681  1  0.60364500  0.20096700  0.11490100  1
  C  1683  1  0.61977600  0.13480900  0.07490410  1
  C  1685  1  0.62003100  0.15891100  0.09704510  1
  C  1686  1  0.62012100  0.16743500  0.07847810  1
  C  1687  1  0.61999900  0.15257400  0.06482710  1
  C  1688  1  0.62099400  0.18980500  0.11443300  1
  C  1689  1  0.63914900  0.19951200  0.11305600  1
  C  1690  1  0.63991200  0.22003400  0.11210500  1
  C  1696  1  0.62260700  0.23140600  0.11255700  1
  C  1697  1  0.62349300  0.25224300  0.11172500  1
  C  1698  1  0.62625100  0.29405500  0.11090500  1
  C  1699  1  0.63727500  0.28237600  0.09786410  1
  C  1700  1  0.63584800  0.26186400  0.09820010  1
  C  1703  1  0.62845500  0.31477300  0.11106300  1
  C  1707  1  0.61783100  0.38876600  0.11668800  1
  C  1710  1  0.60344800  0.35861000  0.10379800  1
  C  1711  1  0.60459700  0.37920800  0.10392800  1
  C  1712  1  0.61544300  0.34717300  0.11610300  1
  C  1716  1  0.62235200  0.45169300  0.10997500  1
  C  1717  1  0.61552600  0.51518900  0.10353900  1
  C  1718  1  0.61664600  0.53572200  0.10330800  1
  C  1719  1  0.62436100  0.47216500  0.11016300  1
  C  1725  1  0.16072000  0.62034700  0.09980910  1
  C  1727  1  0.13847600  0.62019000  0.07579910  1
  C  1728  1  0.15699200  0.62039600  0.06718410  1
  C  1729  1  0.17070700  0.62051900  0.08198610  1
  C  1730  1  0.12031100  0.62013200  0.06576910  1
  C  1731  1  0.12091200  0.62068000  0.04497310  1
  C  1732  1  0.12252900  0.63934000  0.01453210  1
  C  1733  1  0.12215500  0.63874700  0.03508510  1
  C  1737  1  0.12002900  0.60324300  0.03397410  1
  C  1738  1  0.12029500  0.60390400  0.01341210  1
  C  1742  1  0.26371700  0.61182800  0.10744200  1
  C  1743  1  0.28425400  0.61295200  0.10712200  1
  C  1746  1  0.34718500  0.61341400  0.11384700  1
  C  1748  1  0.38875700  0.61474000  0.11234800  1
  C  1749  1  0.37736400  0.62643900  0.09971210  1
  C  1750  1  0.35676700  0.62618600  0.10066700  1
  C  1756  1  0.45169300  0.60790400  0.11204200  1
  C  1757  1  0.53495100  0.61962900  0.10284400  1
  C  1758  1  0.51438800  0.61998500  0.10339100  1
  C  1759  1  0.47223700  0.60811400  0.11097600  1
  C  1763  1  0.72109600  0.61580700  0.10366800  1
  C  1764  1  0.70056100  0.61687600  0.10342200  1
  C  1765  1  0.76414100  0.62462700  0.11016800  1
  C  1769  1  0.84746800  0.61773500  0.11662800  1
  C  1771  1  0.78459600  0.62248200  0.10994100  1
  C  1773  1  0.87751600  0.60317900  0.10369400  1
  C  1774  1  0.85692400  0.60441000  0.10389000  1
  C  1775  1  0.88903300  0.61518000  0.11591600  1
  C  1779  1  0.00475584  0.62230700  0.11221200  1
  C  1780  1  0.98392600  0.62315800  0.11135400  1
  C  1781  1  0.97430800  0.63538600  0.09771310  1
  C  1782  1  0.95379800  0.63681000  0.09737210  1
  C  1783  1  0.94213000  0.62590900  0.11052500  1
  C  1786  1  0.92142000  0.62812900  0.11068800  1
  C  1790  1  0.01467780  0.60420100  0.11383500  1
  C  1791  1  0.03521280  0.60341600  0.11479600  1
  C  1794  1  0.10183000  0.61998800  0.07490010  1
  C  1796  1  0.07763880  0.61999300  0.09731510  1
  C  1797  1  0.06914380  0.62014200  0.07872610  1
  C  1798  1  0.08394380  0.62017400  0.06501110  1
  C  1799  1  0.06710880  0.62011700  0.11525500  1
  C  1800  1  0.04633780  0.62078700  0.11427200  1
  C  1801  1  0.03660880  0.63891500  0.11273700  1
  C  1802  1  0.01609180  0.63963100  0.11168600  1
  C  1808  1  0.61912900  0.70137700  0.10288800  1
  C  1809  1  0.61961400  0.72193500  0.10344300  1
  C  1810  1  0.60769000  0.76405300  0.11099400  1
  C  1814  1  0.61287200  0.88906400  0.11381000  1
  C  1815  1  0.60743900  0.78459100  0.11208300  1
  C  1817  1  0.61423100  0.84750000  0.11236100  1
  C  1818  1  0.62601200  0.85888400  0.09979410  1
  C  1819  1  0.62574000  0.87948100  0.10072700  1
  C  1827  1  0.61257500  0.95202000  0.10735100  1
  C  1828  1  0.61147800  0.97255300  0.10778300  1
  C  1832  1  0.61975900  0.11610300  0.06637110  1
  C  1833  1  0.60375900  0.11444200  0.01396210  1
  C  1834  1  0.60300200  0.11547700  0.03449910  1
  C  1836  1  0.61985500  0.07589180  0.10125500  1
  C  1838  1  0.61970600  0.09820680  0.07697310  1
  C  1839  1  0.61984800  0.07958880  0.06854610  1
  C  1840  1  0.61997200  0.06593580  0.08340310  1
  C  1841  1  0.62039000  0.11503300  0.04560110  1
  C  1842  1  0.63850700  0.11348500  0.03585010  1
  C  1843  1  0.63919700  0.11235500  0.01533210  1
  N  4  1  0.50318200  0.02376300  0.02141500  1
  N  47  1  0.02229300  0.50327100  0.02258300  1
  N  95  1  0.52353200  0.52281900  0.00301800  1
  N  99  1  0.47906700  0.52465700  0.00258500  1
  N  105  1  0.47831700  0.48015600  0.00293300  1
  N  111  1  0.52277200  0.47831300  0.00347200  1
  N  150  1  0.97799700  0.50312900  0.02142500  1
  N  191  1  0.50320800  0.97951600  0.02383700  1
  N  232  1  0.99986700  0.49697400  0.20913900  1
  N  233  1  0.49522200  0.99866500  0.20945600  1
  N  258  1  0.00077400  0.50312800  0.29058200  1
  N  275  1  0.49826400  0.99497100  0.29092900  1
  N  318  1  0.02339800  0.02243300  0.50337900  1
  N  347  1  0.29163600  0.00068300  0.50197000  1
  N  365  1  0.52266300  0.00392600  0.52274500  1
  N  369  1  0.52451900  0.00353400  0.47827100  1
  N  375  1  0.48002000  0.00391300  0.47750400  1
  N  381  1  0.47815800  0.00440800  0.52196500  1
  N  419  1  0.97911400  0.02436600  0.50354800  1
  N  450  1  0.99496200  0.21051600  0.49883900  1
  N  462  1  0.99932500  0.29198300  0.49419600  1
  N  493  1  0.00318600  0.52393000  0.52157400  1
  N  497  1  0.00409400  0.47950300  0.52345100  1
  N  503  1  0.00464000  0.47872600  0.47892800  1
  N  509  1  0.00382800  0.52313500  0.47703700  1
  N  552  1  0.99631600  0.71052000  0.49878200  1
  N  558  1  0.00233900  0.79188700  0.50018100  1
  N  574  1  0.02255500  0.97817600  0.50333600  1
  N  595  1  0.21019300  0.99971500  0.49572000  1
  N  624  1  0.71041900  0.99490800  0.49710800  1
  N  626  1  0.79186200  0.99843400  0.49395000  1
  N  637  1  0.97828000  0.98012000  0.50340700  1
  N  696  1  0.50263700  0.00051800  0.70980800  1
  N  715  1  0.99472400  0.49802300  0.70941300  1
  N  739  1  0.99810100  0.49472000  0.79089200  1
  N  754  1  0.49600500  0.99921500  0.79120500  1
  N  760  1  0.50282700  0.02242400  0.97713500  1
  N  781  1  0.49670100  0.21029100  0.99883600  1
  N  784  1  0.50289000  0.29175300  0.99998800  1
  N  802  1  0.02453200  0.50318000  0.97833600  1
  N  816  1  0.21028300  0.49511600  0.99751800  1
  N  830  1  0.29174900  0.49835600  0.99398600  1
  N  846  1  0.71058400  0.50288100  0.99997700  1
  N  864  1  0.79198500  0.49640600  0.99853600  1
  N  871  1  0.98024900  0.50283500  0.97718800  1
  N  899  1  0.49787500  0.71059800  0.99402600  1
  N  901  1  0.49459100  0.79205200  0.99746600  1
  N  913  1  0.50264400  0.97818600  0.97957000  1
  N  928  1  0.62013900  0.14072000  0.13840000  1
  N  971  1  0.13925000  0.62022800  0.13956800  1
  N  1019  1  0.64048900  0.63977600  0.12000300  1
  N  1023  1  0.59602400  0.64161400  0.11957000  1
  N  1029  1  0.59527400  0.59711300  0.11991800  1
  N  1035  1  0.63972900  0.59527000  0.12045700  1
  N  1074  1  0.09495380  0.62008600  0.13841000  1
  N  1115  1  0.62016500  0.09647280  0.14082200  1
  N  1156  1  0.11682400  0.61393100  0.32612400  1
  N  1157  1  0.61217900  0.11562200  0.32644100  1
  N  1182  1  0.11773100  0.62008500  0.40756700  1
  N  1199  1  0.61522100  0.11192800  0.40791400  1
  N  1242  1  0.14035500  0.13939000  0.62036400  1
  N  1271  1  0.40859300  0.11764000  0.61895500  1
  N  1289  1  0.63962000  0.12088300  0.63973000  1
  N  1293  1  0.64147600  0.12049100  0.59525600  1
  N  1299  1  0.59697700  0.12087000  0.59448900  1
  N  1305  1  0.59511500  0.12136500  0.63895000  1
  N  1343  1  0.09607080  0.14132300  0.62053300  1
  N  1374  1  0.11191900  0.32747300  0.61582400  1
  N  1386  1  0.11628200  0.40894000  0.61118100  1
  N  1417  1  0.12014300  0.64088700  0.63855900  1
  N  1421  1  0.12105100  0.59646000  0.64043600  1
  N  1427  1  0.12159700  0.59568300  0.59591300  1
  N  1433  1  0.12078500  0.64009200  0.59402200  1
  N  1476  1  0.11327300  0.82747700  0.61576700  1
  N  1482  1  0.11929600  0.90884400  0.61716600  1
  N  1498  1  0.13951200  0.09513280  0.62032100  1
  N  1519  1  0.32715000  0.11667200  0.61270500  1
  N  1548  1  0.82737600  0.11186500  0.61409300  1
  N  1550  1  0.90881900  0.11539100  0.61093500  1
  N  1561  1  0.09523680  0.09707680  0.62039200  1
  N  1620  1  0.61959400  0.11747500  0.82679300  1
  N  1639  1  0.11168100  0.61498000  0.82639800  1
  N  1663  1  0.11505800  0.61167700  0.90787700  1
  N  1678  1  0.61296200  0.11617200  0.90819000  1
  N  1684  1  0.61978400  0.13938100  0.09412010  1
  N  1705  1  0.61365800  0.32724800  0.11582100  1
  N  1708  1  0.61984700  0.40871000  0.11697300  1
  N  1726  1  0.14148900  0.62013700  0.09532110  1
  N  1740  1  0.32724000  0.61207300  0.11450300  1
  N  1754  1  0.40870600  0.61531300  0.11097100  1
  N  1770  1  0.82754100  0.61983800  0.11696200  1
  N  1788  1  0.90894200  0.61336300  0.11552100  1
  N  1795  1  0.09720580  0.61979200  0.09417310  1
  N  1823  1  0.61483200  0.82755500  0.11101100  1
  N  1825  1  0.61154800  0.90900900  0.11445100  1
  N  1837  1  0.61960100  0.09514280  0.09655510  1
  O  25  1  0.47001300  0.29744600  0.00740400  1
  O  29  1  0.52254700  0.22920200  0.02463000  1
  O  69  1  0.20618500  0.52765700  0.00730100  1
  O  74  1  0.29586100  0.50923700  0.02603000  1
  O  77  1  0.27276200  0.47226100  0.01943400  1
  O  133  1  0.70474800  0.47007000  0.00757900  1
  O  137  1  0.77328200  0.52237300  0.02435400  1
  O  175  1  0.50857200  0.70653300  0.02614400  1
  O  178  1  0.47158600  0.72958400  0.01927100  1
  O  189  1  0.52704300  0.79602300  0.00761700  1
  O  215  1  0.52773900  0.00854500  0.20545100  1
  O  231  1  0.98988200  0.52940200  0.20419900  1
  O  242  1  0.50908400  0.02703100  0.29505100  1
  O  245  1  0.47209800  0.02032400  0.27193200  1
  O  251  1  0.00808200  0.47016200  0.29624100  1
  O  256  1  0.02598200  0.52244600  0.22806700  1
  O  264  1  0.97430800  0.47777500  0.27155400  1
  O  273  1  0.52020100  0.97189500  0.22843800  1
  O  340  1  0.29734400  0.00808200  0.46903300  1
  O  345  1  0.22908000  0.02574500  0.52133700  1
  O  403  1  0.70636400  0.02711100  0.50755400  1
  O  406  1  0.72941300  0.01988300  0.47057700  1
  O  417  1  0.79580100  0.00886100  0.52630800  1
  O  444  1  0.02763400  0.20591000  0.50715700  1
  O  455  1  0.00724300  0.29661400  0.52713600  1
  O  459  1  0.02006200  0.22893600  0.47179600  1
  O  468  1  0.97211900  0.27355600  0.51930100  1
  O  537  1  0.02851700  0.70561400  0.48870100  1
  O  541  1  0.02156200  0.72930800  0.52519400  1
  O  550  1  0.97723700  0.77300600  0.47336000  1
  O  568  1  0.96957200  0.79755800  0.50743600  1
  O  594  1  0.20521000  0.98966400  0.52811200  1
  O  599  1  0.27265000  0.97431500  0.47646600  1
  O  622  1  0.77287100  0.97204600  0.51930700  1
  O  689  1  0.46982600  0.00835000  0.70396200  1
  O  694  1  0.52197300  0.02507300  0.77258000  1
  O  701  1  0.02691500  0.50851800  0.70540800  1
  O  704  1  0.01974000  0.47154200  0.72842100  1
  O  713  1  0.97168200  0.52003800  0.77188900  1
  O  722  1  0.47674100  0.97436000  0.72853500  1
  O  738  1  0.00842100  0.52709800  0.79491600  1
  O  753  1  0.52823100  0.98869800  0.79625200  1
  O  780  1  0.52900000  0.20527800  0.98852400  1
  O  789  1  0.47717400  0.27274300  0.97361500  1
  O  828  1  0.22925900  0.52004600  0.97070400  1
  O  852  1  0.72938800  0.47698200  0.97365100  1
  O  863  1  0.79700700  0.52864300  0.98804600  1
  O  897  1  0.51969800  0.77307200  0.97084300  1
  O  949  1  0.58697000  0.41440300  0.12438900  1
  O  953  1  0.63950400  0.34615900  0.14161500  1
  O  993  1  0.32314200  0.64461400  0.12428600  1
  O  998  1  0.41281800  0.62619400  0.14301500  1
  O  1001  1  0.38971900  0.58921800  0.13641900  1
  O  1057  1  0.82170500  0.58702700  0.12456400  1
  O  1061  1  0.89023900  0.63933000  0.14133900  1
  O  1099  1  0.62552900  0.82349000  0.14312900  1
  O  1102  1  0.58854300  0.84654100  0.13625600  1
  O  1113  1  0.64400000  0.91298000  0.12460200  1
  O  1139  1  0.64469600  0.12550200  0.32243600  1
  O  1155  1  0.10683900  0.64635900  0.32118400  1
  O  1166  1  0.62604100  0.14398800  0.41203600  1
  O  1169  1  0.58905500  0.13728100  0.38891700  1
  O  1175  1  0.12503900  0.58711900  0.41322600  1
  O  1180  1  0.14293900  0.63940300  0.34505200  1
  O  1188  1  0.09126480  0.59473200  0.38853900  1
  O  1197  1  0.63715800  0.08885180  0.34542300  1
  O  1264  1  0.41430100  0.12503900  0.58601800  1
  O  1269  1  0.34603700  0.14270200  0.63832200  1
  O  1327  1  0.82332100  0.14406800  0.62453900  1
  O  1330  1  0.84637000  0.13684000  0.58756200  1
  O  1341  1  0.91275800  0.12581800  0.64329300  1
  O  1368  1  0.14459100  0.32286700  0.62414200  1
  O  1379  1  0.12420000  0.41357100  0.64412100  1
  O  1383  1  0.13701900  0.34589300  0.58878100  1
  O  1392  1  0.08907580  0.39051300  0.63628600  1
  O  1461  1  0.14547400  0.82257100  0.60568600  1
  O  1465  1  0.13851900  0.84626500  0.64217900  1
  O  1474  1  0.09419380  0.88996300  0.59034500  1
  O  1492  1  0.08652880  0.91451500  0.62442100  1
  O  1518  1  0.32216700  0.10662100  0.64509700  1
  O  1523  1  0.38960700  0.09127180  0.59345100  1
  O  1546  1  0.88982800  0.08900280  0.63629200  1
  O  1613  1  0.58678300  0.12530700  0.82094700  1
  O  1618  1  0.63893000  0.14203000  0.88956500  1
  O  1625  1  0.14387200  0.62547500  0.82239300  1
  O  1628  1  0.13669700  0.58849900  0.84540600  1
  O  1637  1  0.08863880  0.63699500  0.88887400  1
  O  1646  1  0.59369800  0.09131680  0.84552000  1
  O  1662  1  0.12537800  0.64405500  0.91190100  1
  O  1677  1  0.64518800  0.10565500  0.91323700  1
  O  1704  1  0.64595700  0.32223500  0.10550900  1
  O  1713  1  0.59413100  0.38970000  0.09060010  1
  O  1752  1  0.34621600  0.63700300  0.08768910  1
  O  1776  1  0.84634500  0.59393900  0.09063610  1
  O  1787  1  0.91396400  0.64560000  0.10503100  1
  O  1821  1  0.63665500  0.89002900  0.08782810  1
