# generated using pymatgen
data_H6(C3N)5
_symmetry_space_group_name_H-M   'P 1'
_cell_length_a   23.40730000
_cell_length_b   55.22720000
_cell_length_c   55.22720000
_cell_angle_alpha   90.00000000
_cell_angle_beta   90.00000000
_cell_angle_gamma   90.00000000
_symmetry_Int_Tables_number   1
_chemical_formula_structural   H6(C3N)5
_chemical_formula_sum   'H384 C960 N320'
_cell_volume   71393.28602268
_cell_formula_units_Z   64
loop_
 _symmetry_equiv_pos_site_id
 _symmetry_equiv_pos_as_xyz
  1  'x, y, z'
loop_
 _atom_site_type_symbol
 _atom_site_label
 _atom_site_symmetry_multiplicity
 _atom_site_fract_x
 _atom_site_fract_y
 _atom_site_fract_z
 _atom_site_occupancy
  C  1  1  0.14021300  0.14726600  0.37576200  1
  C  2  1  0.18169500  0.12872600  0.38062600  1
  C  3  1  0.19876600  0.11169700  0.36232200  1
  C  4  1  0.17637700  0.11518100  0.33877000  1
  C  5  1  0.13764500  0.13389800  0.33297000  1
  C  6  1  0.11765500  0.14937100  0.35182500  1
  C  7  1  0.20579800  0.12835000  0.40407600  1
  C  8  1  0.07567600  0.16724800  0.34748300  1
  C  10  1  0.12159100  0.16378300  0.39447400  1
  C  11  1  0.14703600  0.16274400  0.41799700  1
  C  12  1  0.13080600  0.17964700  0.43638100  1
  C  13  1  0.08809600  0.19708800  0.43083100  1
  C  14  1  0.06078000  0.19866500  0.40795500  1
  C  15  1  0.07905700  0.18190100  0.38962000  1
  C  16  1  0.18980400  0.14503700  0.42195000  1
  C  18  1  0.05624300  0.18264400  0.36588900  1
  C  23  1  0.11880000  0.13517900  0.30904200  1
  C  24  1  0.02281800  0.21828700  0.40332100  1
  C  25  1  0.16150400  0.18283200  0.45806800  1
  C  26  1  0.23319900  0.09093500  0.36653900  1
  C  31  1  0.14024900  0.87873000  0.60736900  1
  C  32  1  0.18176000  0.89725700  0.60250800  1
  C  33  1  0.19887300  0.91427800  0.62081400  1
  C  34  1  0.17643600  0.91081200  0.64436000  1
  C  35  1  0.13768400  0.89210200  0.65016000  1
  C  36  1  0.11767600  0.87663500  0.63130500  1
  C  37  1  0.20586300  0.89763200  0.57905700  1
  C  38  1  0.07566900  0.85876900  0.63564700  1
  C  40  1  0.12162100  0.86221300  0.58865900  1
  C  41  1  0.14709500  0.86323800  0.56514200  1
  C  42  1  0.13086500  0.84632200  0.54677200  1
  C  43  1  0.08812600  0.82889300  0.55231000  1
  C  44  1  0.06081400  0.82733000  0.57518600  1
  C  45  1  0.07906000  0.84410600  0.59351600  1
  C  46  1  0.18989000  0.88093600  0.56119100  1
  C  48  1  0.05621700  0.84338000  0.61724100  1
  C  53  1  0.11882900  0.89083100  0.67408700  1
  C  54  1  0.02277000  0.80773300  0.57981400  1
  C  55  1  0.16156500  0.84313000  0.52508400  1
  C  56  1  0.23330200  0.93503800  0.61659500  1
  C  61  1  0.91477000  0.39721400  0.85692800  1
  C  62  1  0.87363300  0.40200100  0.87561600  1
  C  63  1  0.85680000  0.38361500  0.89259100  1
  C  64  1  0.87894800  0.36006500  0.88891900  1
  C  65  1  0.91737200  0.35434700  0.87006600  1
  C  66  1  0.93724600  0.37327600  0.85465700  1
  C  67  1  0.84965800  0.42546400  0.87623500  1
  C  68  1  0.97906600  0.36901900  0.83669700  1
  C  70  1  0.93321700  0.41601100  0.84047600  1
  C  71  1  0.90773000  0.43952300  0.84166200  1
  C  72  1  0.92364400  0.45794800  0.82473700  1
  C  73  1  0.96638200  0.45250400  0.80726900  1
  C  74  1  0.99383000  0.42966000  0.80560100  1
  C  75  1  0.97564800  0.41124100  0.82229100  1
  C  76  1  0.86526400  0.44339400  0.85952800  1
  C  78  1  0.99846200  0.38751600  0.82140300  1
  C  83  1  0.93619900  0.33043100  0.86866800  1
  C  84  1  0.03192500  0.42512800  0.78599000  1
  C  85  1  0.89289600  0.47966100  0.82167900  1
  C  86  1  0.82369800  0.38782900  0.91370600  1
  C  91  1  0.91475200  0.62870100  0.12629900  1
  C  92  1  0.87350000  0.62392500  0.10765300  1
  C  93  1  0.85656200  0.64231400  0.09069600  1
  C  94  1  0.87882400  0.66585300  0.09433500  1
  C  95  1  0.91733800  0.67156600  0.11315900  1
  C  96  1  0.93727600  0.65263200  0.12854800  1
  C  97  1  0.84947400  0.60046900  0.10707500  1
  C  98  1  0.97919000  0.65688100  0.14647200  1
  C  100  1  0.93327200  0.60990100  0.14273600  1
  C  101  1  0.90778400  0.58639100  0.14156800  1
  C  102  1  0.92382000  0.56794300  0.15844800  1
  C  103  1  0.96655700  0.57340600  0.17591400  1
  C  104  1  0.99404000  0.59624400  0.17756100  1
  C  105  1  0.97578500  0.61466300  0.16088900  1
  C  106  1  0.86522600  0.58252500  0.12374100  1
  C  108  1  0.99861600  0.63838700  0.16176000  1
  C  113  1  0.93623800  0.69547500  0.11453000  1
  C  114  1  0.03208500  0.60077500  0.19718700  1
  C  115  1  0.89307600  0.54623800  0.16155400  1
  C  116  1  0.82330200  0.63811300  0.06961100  1
  C  121  1  0.66431400  0.37825000  0.37529000  1
  C  122  1  0.62366000  0.39710500  0.38011700  1
  C  123  1  0.60713600  0.41412000  0.36174200  1
  C  124  1  0.62900000  0.41037900  0.33816300  1
  C  125  1  0.66695200  0.39136300  0.33240300  1
  C  126  1  0.68662400  0.37589100  0.35133200  1
  C  127  1  0.59979200  0.39787100  0.40359100  1
  C  128  1  0.72812300  0.35780000  0.34708100  1
  C  130  1  0.68249200  0.36175500  0.39409400  1
  C  131  1  0.65708600  0.36306800  0.41761500  1
  C  132  1  0.67272400  0.34613400  0.43606200  1
  C  133  1  0.71516600  0.32854300  0.43063000  1
  C  134  1  0.74267000  0.32677000  0.40779700  1
  C  135  1  0.72464600  0.34345000  0.38933500  1
  C  136  1  0.61506800  0.38111700  0.42152100  1
  C  138  1  0.74736200  0.34248400  0.36559200  1
  C  143  1  0.68560200  0.38988400  0.30845900  1
  C  144  1  0.78113200  0.30723100  0.40347900  1
  C  145  1  0.64196200  0.34316400  0.45777500  1
  C  146  1  0.57498200  0.43543800  0.36604100  1
  C  151  1  0.66404900  0.64784000  0.60786400  1
  C  152  1  0.62328000  0.62902200  0.60304700  1
  C  153  1  0.60674200  0.61199200  0.62141300  1
  C  154  1  0.62877000  0.61569300  0.64497400  1
  C  155  1  0.66678400  0.63468700  0.65073400  1
  C  156  1  0.68645200  0.65016000  0.63180800  1
  C  157  1  0.59929600  0.62832100  0.57959100  1
  C  158  1  0.72803400  0.66821800  0.63605800  1
  C  160  1  0.68222200  0.66435000  0.58907000  1
  C  161  1  0.65672600  0.66308300  0.56556400  1
  C  162  1  0.67240600  0.68002400  0.54712900  1
  C  163  1  0.71492200  0.69758600  0.55254700  1
  C  164  1  0.74244400  0.69932800  0.57537400  1
  C  165  1  0.72445800  0.68262600  0.59382400  1
  C  166  1  0.61457300  0.64509000  0.56167600  1
  C  168  1  0.74727600  0.68354200  0.61755300  1
  C  173  1  0.68544600  0.63615400  0.67467700  1
  C  174  1  0.78103400  0.71882700  0.57969100  1
  C  175  1  0.64176100  0.68297200  0.52538300  1
  C  176  1  0.57437200  0.59071500  0.61713100  1
  C  181  1  0.89152000  0.12894900  0.85660500  1
  C  182  1  0.92691600  0.12390700  0.87723300  1
  C  183  1  0.94558000  0.14281900  0.89324900  1
  C  184  1  0.92877400  0.16675600  0.88759400  1
  C  185  1  0.89449400  0.17252800  0.86736100  1
  C  186  1  0.87492400  0.15342400  0.85206200  1
  C  187  1  0.94205200  0.09947100  0.88119500  1
  C  188  1  0.83852000  0.15798500  0.83214800  1
  C  190  1  0.87188200  0.10977300  0.84083200  1
  C  191  1  0.88922600  0.08530500  0.84516500  1
  C  192  1  0.87132200  0.06623300  0.82930400  1
  C  193  1  0.83324200  0.07210400  0.81011400  1
  C  194  1  0.81340400  0.09590700  0.80541900  1
  C  195  1  0.83438900  0.11484600  0.82087100  1
  C  196  1  0.92355400  0.08087000  0.86582200  1
  C  198  1  0.81826600  0.13929000  0.81731700  1
  C  203  1  0.87691800  0.19655500  0.86490200  1
  C  204  1  0.77777000  0.10013700  0.78494500  1
  C  205  1  0.88693600  0.04165500  0.83187100  1
  C  206  1  0.97444000  0.13899700  0.91547900  1
  C  211  1  0.89165600  0.89700400  0.12656700  1
  C  212  1  0.92704400  0.90203800  0.10593800  1
  C  213  1  0.94574300  0.88312100  0.08993800  1
  C  214  1  0.92890200  0.85918600  0.09559100  1
  C  215  1  0.89466500  0.85341500  0.11583900  1
  C  216  1  0.87505600  0.87253000  0.13111800  1
  C  217  1  0.94218000  0.92647100  0.10196600  1
  C  218  1  0.83863600  0.86797800  0.15102700  1
  C  220  1  0.87202200  0.91618600  0.14233200  1
  C  221  1  0.88938800  0.94065300  0.13799800  1
  C  222  1  0.87157000  0.95972700  0.15387700  1
  C  223  1  0.83344400  0.95386000  0.17305400  1
  C  224  1  0.81352000  0.93006700  0.17773100  1
  C  225  1  0.83451200  0.91112200  0.16229000  1
  C  226  1  0.92369400  0.94507800  0.11733200  1
  C  228  1  0.81836800  0.88668100  0.16584700  1
  C  233  1  0.87702600  0.82939200  0.11828300  1
  C  234  1  0.77790600  0.92584700  0.19821600  1
  C  235  1  0.88725700  0.98430300  0.15132900  1
  C  236  1  0.97444800  0.88693600  0.06767500  1
  C  241  1  0.64079600  0.64799600  0.87609600  1
  C  242  1  0.67774600  0.62785600  0.88117100  1
  C  243  1  0.69697000  0.61179500  0.86236300  1
  C  244  1  0.67896800  0.61700000  0.83846400  1
  C  245  1  0.64319200  0.63674300  0.83263300  1
  C  246  1  0.62316400  0.65202700  0.85166000  1
  C  247  1  0.69377000  0.62443700  0.90558500  1
  C  248  1  0.58533800  0.67144300  0.84704100  1
  C  250  1  0.62079400  0.66383400  0.89517500  1
  C  251  1  0.63893600  0.65999000  0.91963200  1
  C  252  1  0.62060600  0.67588600  0.93863200  1
  C  253  1  0.58160900  0.69471800  0.93260400  1
  C  254  1  0.56096600  0.69895500  0.90883100  1
  C  255  1  0.58208300  0.68336300  0.89002700  1
  C  256  1  0.67456700  0.63974300  0.92408800  1
  C  258  1  0.56487900  0.68634500  0.86563700  1
  C  263  1  0.62530000  0.63887900  0.80860700  1
  C  264  1  0.52448600  0.71916200  0.90444000  1
  C  265  1  0.63648000  0.67370800  0.96328500  1
  C  266  1  0.72878100  0.59022000  0.86620200  1
  C  271  1  0.64065400  0.37803800  0.10699700  1
  C  272  1  0.67738200  0.39825500  0.10192700  1
  C  273  1  0.69672000  0.41425100  0.12076800  1
  C  274  1  0.67890400  0.40895300  0.14467300  1
  C  275  1  0.64335800  0.38913300  0.15049500  1
  C  276  1  0.62332600  0.37387400  0.13144800  1
  C  277  1  0.69308200  0.40180800  0.07749300  1
  C  278  1  0.58578200  0.35435800  0.13606200  1
  C  280  1  0.62058800  0.36224400  0.08789700  1
  C  281  1  0.63846800  0.36620900  0.06343000  1
  C  282  1  0.62014400  0.35033800  0.04441500  1
  C  283  1  0.58131800  0.33144200  0.05040600  1
  C  284  1  0.56093200  0.32708700  0.07419700  1
  C  285  1  0.58212200  0.34262700  0.09303200  1
  C  286  1  0.67382800  0.38653800  0.05896400  1
  C  288  1  0.56526400  0.33949800  0.11744700  1
  C  293  1  0.62554600  0.38692700  0.17452600  1
  C  294  1  0.52456000  0.30684000  0.07855200  1
  C  295  1  0.63603000  0.35259400  0.01979000  1
  C  296  1  0.72839600  0.43586300  0.11696500  1
  C  301  1  0.41536200  0.89710200  0.35711000  1
  C  302  1  0.37366500  0.90197400  0.37555800  1
  C  303  1  0.35648300  0.88370100  0.39259700  1
  C  304  1  0.37879200  0.86013100  0.38914400  1
  C  305  1  0.41766400  0.85429700  0.37048800  1
  C  306  1  0.43794000  0.87316100  0.35508400  1
  C  307  1  0.34947100  0.92540700  0.37584800  1
  C  308  1  0.48026400  0.86883100  0.33735700  1
  C  310  1  0.43418400  0.91580600  0.34062000  1
  C  311  1  0.40861500  0.93930900  0.34156900  1
  C  312  1  0.42501600  0.95768600  0.32469200  1
  C  313  1  0.46814000  0.95217400  0.30743200  1
  C  314  1  0.49564000  0.92932000  0.30593400  1
  C  315  1  0.47712000  0.91097200  0.32265500  1
  C  316  1  0.36554100  0.94324700  0.35914600  1
  C  318  1  0.50004000  0.88725100  0.32205500  1
  C  323  1  0.43639000  0.83034100  0.36923500  1
  C  324  1  0.53481200  0.92489600  0.28664900  1
  C  325  1  0.39446700  0.97941800  0.32148100  1
  C  326  1  0.32198400  0.88798100  0.41332500  1
  C  331  1  0.41531800  0.12888700  0.62600900  1
  C  332  1  0.37363000  0.12401100  0.60755800  1
  C  333  1  0.35640100  0.14229100  0.59053500  1
  C  334  1  0.37871100  0.16586000  0.59398600  1
  C  335  1  0.41754800  0.17169900  0.61265500  1
  C  336  1  0.43785900  0.15283400  0.62804800  1
  C  337  1  0.34947500  0.10057200  0.60725500  1
  C  338  1  0.48017000  0.15716400  0.64578000  1
  C  340  1  0.43418000  0.11017900  0.64248400  1
  C  341  1  0.40866800  0.08666500  0.64151600  1
  C  342  1  0.42513600  0.06827000  0.65835700  1
  C  343  1  0.46817800  0.07380200  0.67564900  1
  C  344  1  0.49567400  0.09665900  0.67715600  1
  C  345  1  0.47709800  0.11501500  0.66045600  1
  C  346  1  0.36563300  0.08271500  0.62392500  1
  C  348  1  0.49996400  0.13874400  0.66107500  1
  C  353  1  0.43628200  0.19565400  0.61390200  1
  C  354  1  0.53475200  0.10108000  0.69647200  1
  C  355  1  0.39456800  0.04655000  0.66159600  1
  C  356  1  0.32197100  0.13800700  0.56978800  1
  C  361  1  0.16321300  0.87799500  0.87564100  1
  C  362  1  0.12762100  0.89855200  0.88072000  1
  C  363  1  0.10886700  0.91459100  0.86184700  1
  C  364  1  0.12567800  0.90901100  0.83789400  1
  C  365  1  0.16013000  0.88884500  0.83207200  1
  C  366  1  0.17989200  0.87355500  0.85115700  1
  C  367  1  0.11236900  0.90242500  0.90515400  1
  C  368  1  0.21661500  0.85375700  0.84657200  1
  C  370  1  0.18299800  0.86221300  0.89478800  1
  C  371  1  0.16548300  0.86644600  0.91925200  1
  C  372  1  0.18344200  0.85056700  0.93829700  1
  C  373  1  0.22192500  0.83152700  0.93241000  1
  C  374  1  0.24210900  0.82694400  0.90862300  1
  C  375  1  0.22087900  0.84237700  0.88970000  1
  C  376  1  0.13091600  0.88702500  0.92371900  1
  C  378  1  0.23712300  0.83896000  0.86524600  1
  C  383  1  0.17769300  0.88645500  0.80802800  1
  C  384  1  0.27878400  0.80673700  0.90447700  1
  C  385  1  0.16771300  0.85305100  0.96288300  1
  C  386  1  0.08002100  0.93681400  0.86571900  1
  C  391  1  0.16327400  0.14802800  0.10748400  1
  C  392  1  0.12762500  0.12748700  0.10241200  1
  C  393  1  0.10883700  0.11145200  0.12128600  1
  C  394  1  0.12575100  0.11701700  0.14523200  1
  C  395  1  0.16020300  0.13718300  0.15105300  1
  C  396  1  0.17998300  0.15246400  0.13196500  1
  C  397  1  0.11233900  0.12362400  0.07798000  1
  C  398  1  0.21675700  0.17224600  0.13654300  1
  C  400  1  0.18306900  0.16380800  0.08833400  1
  C  401  1  0.16551100  0.15958600  0.06387300  1
  C  402  1  0.18347100  0.17546100  0.04482300  1
  C  403  1  0.22197800  0.19449300  0.05070600  1
  C  404  1  0.24220500  0.19906500  0.07448800  1
  C  405  1  0.22099400  0.18363100  0.09341500  1
  C  406  1  0.13091500  0.13901400  0.05941200  1
  C  408  1  0.23728000  0.18703700  0.11786500  1
  C  413  1  0.17776300  0.13957700  0.17509900  1
  C  414  1  0.27895500  0.21925300  0.07862400  1
  C  415  1  0.16766600  0.17300100  0.02024100  1
  C  416  1  0.07996300  0.08923100  0.11742000  1
  C  421  1  0.39164600  0.62873400  0.35671900  1
  C  422  1  0.42785800  0.62365800  0.37709700  1
  C  423  1  0.44698800  0.64251700  0.39310900  1
  C  424  1  0.42961800  0.66644500  0.38765500  1
  C  425  1  0.39458500  0.67227800  0.36767400  1
  C  426  1  0.37469400  0.65320700  0.35240100  1
  C  427  1  0.44330200  0.59921200  0.38079400  1
  C  428  1  0.33765000  0.65781400  0.33271300  1
  C  430  1  0.37167900  0.60961500  0.34092800  1
  C  431  1  0.38924100  0.58513800  0.34506600  1
  C  432  1  0.37093600  0.56609600  0.32924700  1
  C  433  1  0.33245600  0.57204300  0.31022900  1
  C  434  1  0.31237300  0.59584600  0.30568300  1
  C  435  1  0.33358900  0.61473000  0.32117000  1
  C  436  1  0.42423000  0.58066200  0.36550500  1
  C  438  1  0.31714300  0.63917300  0.31787400  1
  C  443  1  0.37693400  0.69633300  0.36536900  1
  C  444  1  0.27570800  0.60002500  0.28548100  1
  C  445  1  0.38642100  0.54147200  0.33169500  1
  C  446  1  0.47807800  0.63869500  0.41485500  1
  C  451  1  0.39172400  0.39725200  0.62648300  1
  C  452  1  0.42803800  0.40233800  0.60614000  1
  C  453  1  0.44720200  0.38349400  0.59011900  1
  C  454  1  0.42971200  0.35956700  0.59551800  1
  C  455  1  0.39460400  0.35372400  0.61547400  1
  C  456  1  0.37467000  0.37278200  0.63074700  1
  C  457  1  0.44355000  0.42678100  0.60248800  1
  C  458  1  0.33749700  0.36816800  0.65038800  1
  C  460  1  0.37176300  0.41635800  0.64229400  1
  C  461  1  0.38942900  0.44083200  0.63821500  1
  C  462  1  0.37121200  0.45985500  0.65407600  1
  C  463  1  0.33262700  0.45389200  0.67305600  1
  C  464  1  0.31237600  0.43009800  0.67752900  1
  C  465  1  0.33357600  0.41123200  0.66201800  1
  C  466  1  0.42446900  0.44531700  0.61779000  1
  C  468  1  0.31699400  0.38679500  0.66524500  1
  C  473  1  0.37683000  0.32968200  0.61771400  1
  C  474  1  0.27567900  0.42590100  0.69772200  1
  C  475  1  0.38683600  0.48447700  0.65169700  1
  C  476  1  0.47831200  0.38733100  0.56837600  1
  C  481  1  0.85835800  0.28107400  0.41766400  1
  C  483  1  0.92090000  0.25443100  0.39496900  1
  C  484  1  0.94425600  0.24427500  0.41635800  1
  C  486  1  0.88199800  0.27095400  0.43907200  1
  C  488  1  0.86614000  0.27754800  0.46064600  1
  C  492  1  0.85824900  0.74497700  0.56547500  1
  C  494  1  0.92082000  0.77161600  0.58816300  1
  C  495  1  0.94418000  0.78176700  0.56677200  1
  C  497  1  0.88188700  0.75509600  0.54406400  1
  C  499  1  0.86603300  0.74849600  0.52249100  1
  C  503  1  0.19640500  0.43933100  0.72325800  1
  C  505  1  0.13528200  0.41671300  0.75054300  1
  C  506  1  0.11069600  0.43811600  0.76014000  1
  C  508  1  0.17158700  0.46075000  0.73283500  1
  C  510  1  0.18620500  0.48229500  0.72565500  1
  C  514  1  0.19643300  0.58657700  0.25996800  1
  C  516  1  0.13549500  0.60917800  0.23259900  1
  C  517  1  0.11073800  0.58777600  0.22308400  1
  C  519  1  0.17145100  0.56515600  0.25047100  1
  C  521  1  0.18592800  0.54361800  0.25772500  1
  C  525  1  0.61113800  0.08675900  0.72298600  1
  C  527  1  0.67628000  0.10939100  0.74854400  1
  C  528  1  0.69678600  0.08806700  0.75986100  1
  C  530  1  0.63205400  0.06540600  0.73423800  1
  C  532  1  0.61359900  0.04389800  0.72873000  1
  C  536  1  0.61121500  0.93922200  0.26014700  1
  C  538  1  0.67635200  0.91658700  0.23458900  1
  C  539  1  0.69690600  0.93790900  0.22328900  1
  C  541  1  0.63216000  0.96057400  0.24890300  1
  C  543  1  0.61370800  0.98208300  0.25440900  1
  C  547  1  0.35836900  0.78135800  0.91781800  1
  C  549  1  0.42041200  0.75442400  0.89521700  1
  C  550  1  0.44399800  0.74445400  0.91664300  1
  C  552  1  0.38227300  0.77142300  0.93926000  1
  C  554  1  0.36676600  0.77825100  0.96080800  1
  C  558  1  0.35841100  0.24466400  0.06522700  1
  C  560  1  0.42066400  0.27152200  0.08781400  1
  C  561  1  0.44400800  0.28158100  0.06638100  1
  C  563  1  0.38210600  0.25467300  0.04377800  1
  C  565  1  0.36641500  0.24790900  0.02223500  1
  C  569  1  0.19946700  0.16506900  0.49514400  1
  C  571  1  0.24503900  0.13731400  0.52302000  1
  C  572  1  0.26375000  0.15654100  0.53789500  1
  C  574  1  0.21806900  0.18437800  0.51025100  1
  C  576  1  0.20714400  0.20709200  0.50640100  1
  C  580  1  0.19959300  0.86088800  0.48800200  1
  C  582  1  0.24492300  0.88866000  0.46006900  1
  C  583  1  0.26390100  0.86943200  0.44525700  1
  C  585  1  0.21844000  0.84157800  0.47295000  1
  C  587  1  0.20782400  0.81884700  0.47685800  1
  C  591  1  0.85462200  0.51661700  0.83952000  1
  C  593  1  0.80676000  0.54395000  0.86711100  1
  C  594  1  0.79014800  0.55935100  0.84794800  1
  C  596  1  0.83820800  0.53225100  0.82027500  1
  C  598  1  0.85144400  0.52887000  0.79770500  1
  C  602  1  0.85459200  0.50932500  0.14369700  1
  C  604  1  0.80657800  0.48206300  0.11608600  1
  C  605  1  0.78997200  0.46664200  0.13523400  1
  C  607  1  0.83815200  0.49368300  0.16292800  1
  C  609  1  0.85148200  0.49702200  0.18549600  1
  C  613  1  0.60431600  0.36100500  0.49476400  1
  C  615  1  0.55519400  0.38840700  0.52186100  1
  C  616  1  0.54006200  0.36927100  0.53756900  1
  C  618  1  0.58942700  0.34179200  0.51069800  1
  C  620  1  0.60426800  0.31936100  0.50757100  1
  C  624  1  0.60411000  0.66506700  0.48843300  1
  C  626  1  0.55469000  0.63766600  0.46143800  1
  C  627  1  0.53988700  0.65676700  0.44563000  1
  C  629  1  0.58954600  0.68424600  0.47240300  1
  C  631  1  0.60474200  0.70664800  0.47543300  1
  C  635  1  0.96016400  0.01204100  0.83969200  1
  C  637  1  0.02087200  0.98733300  0.86488600  1
  C  638  1  0.01776200  0.96779700  0.84840100  1
  C  640  1  0.95718000  0.99254700  0.82301900  1
  C  642  1  0.93100400  0.99406500  0.80233500  1
  C  646  1  0.96043000  0.01390700  0.14345700  1
  C  648  1  0.02015200  0.03883500  0.11805400  1
  C  649  1  0.01797200  0.05817300  0.13479500  1
  C  651  1  0.95843200  0.03319600  0.16039200  1
  C  653  1  0.93314800  0.03146300  0.18125900  1
  C  657  1  0.70852200  0.66521800  0.99313600  1
  C  659  1  0.75727200  0.63793600  0.02027900  1
  C  660  1  0.76587600  0.65657500  0.03743200  1
  C  662  1  0.71721600  0.68398700  0.01024500  1
  C  664  1  0.70267400  0.70632400  0.00620200  1
  C  668  1  0.70846600  0.36081500  0.99006100  1
  C  670  1  0.75913400  0.38786500  0.96333200  1
  C  671  1  0.76606400  0.36942500  0.94583000  1
  C  673  1  0.71543400  0.34224600  0.97259300  1
  C  675  1  0.69894000  0.32008200  0.97622600  1
  C  679  1  0.35602000  0.01641700  0.33931100  1
  C  681  1  0.31034300  0.04421300  0.36712500  1
  C  682  1  0.29155300  0.05911400  0.34793200  1
  C  684  1  0.33735900  0.03155500  0.32003600  1
  C  686  1  0.34819500  0.02774200  0.29730800  1
  C  690  1  0.35617400  0.00954100  0.64378600  1
  C  692  1  0.31043200  0.98175000  0.61599200  1
  C  693  1  0.29170700  0.96684500  0.63519300  1
  C  695  1  0.33756200  0.99440300  0.66307000  1
  C  697  1  0.34851100  0.99821000  0.68579100  1
  C  701  1  0.09438300  0.86085300  0.99248000  1
  C  703  1  0.03378300  0.88608700  0.01720400  1
  C  704  1  0.03659900  0.86953700  0.03669200  1
  C  706  1  0.09709700  0.84412600  0.01193500  1
  C  708  1  0.12322600  0.82343100  0.01039900  1
  C  712  1  0.09420200  0.16518600  0.99068800  1
  C  714  1  0.03381000  0.13988200  0.96594800  1
  C  715  1  0.03654000  0.15643500  0.94646100  1
  C  717  1  0.09689300  0.18190500  0.97122500  1
  C  719  1  0.12289600  0.20262800  0.97276200  1
  C  723  1  0.45893400  0.51166800  0.33963300  1
  C  725  1  0.51565600  0.48605400  0.36557000  1
  C  726  1  0.51609100  0.46731500  0.34814000  1
  C  728  1  0.45949400  0.49297300  0.32203900  1
  C  730  1  0.43698800  0.49538300  0.30067300  1
  C  734  1  0.45921200  0.51426300  0.64369600  1
  C  736  1  0.51287000  0.54049800  0.61721600  1
  C  737  1  0.51627200  0.55863600  0.63521400  1
  C  739  1  0.46282000  0.53233700  0.66185900  1
  C  741  1  0.44322900  0.52928500  0.68365400  1
  C  745  1  0.14768900  0.14105500  0.21675900  1
  C  747  1  0.10400300  0.12899100  0.25426100  1
  C  748  1  0.14841900  0.13990300  0.26767400  1
  C  750  1  0.19199100  0.15233700  0.23023400  1
  C  752  1  0.23361500  0.16458800  0.22066100  1
  C  756  1  0.14763300  0.88495700  0.76636900  1
  C  758  1  0.10401000  0.89703100  0.72885800  1
  C  759  1  0.14841900  0.88610200  0.71545600  1
  C  761  1  0.19187200  0.87362000  0.75290500  1
  C  763  1  0.23345700  0.86135700  0.76249000  1
  C  767  1  0.90704600  0.23818700  0.86319300  1
  C  769  1  0.95089600  0.27570300  0.87506900  1
  C  770  1  0.90643000  0.28908600  0.86416100  1
  C  772  1  0.86269600  0.25163200  0.85191000  1
  C  774  1  0.82090600  0.24203300  0.83977800  1
  C  778  1  0.90708800  0.78774300  0.11995100  1
  C  780  1  0.95104400  0.75021800  0.10815800  1
  C  781  1  0.90652800  0.73683600  0.11903400  1
  C  783  1  0.86266600  0.77430000  0.13118700  1
  C  785  1  0.82082000  0.78389700  0.14328300  1
  C  789  1  0.65558600  0.38496800  0.21618900  1
  C  791  1  0.70035400  0.39627600  0.25369600  1
  C  792  1  0.65534200  0.38580800  0.26710400  1
  C  794  1  0.61068100  0.37411600  0.22965700  1
  C  796  1  0.56816800  0.36243400  0.22007500  1
  C  800  1  0.65532100  0.64094000  0.76694800  1
  C  802  1  0.70020000  0.62973200  0.72944000  1
  C  803  1  0.65515000  0.64017400  0.71603500  1
  C  805  1  0.61033000  0.65173300  0.75348800  1
  C  807  1  0.56773600  0.66335300  0.76308100  1
  C  811  1  0.40698000  0.73802600  0.36370300  1
  C  813  1  0.45114100  0.77554000  0.37544200  1
  C  814  1  0.40657400  0.78896300  0.36465000  1
  C  816  1  0.36251500  0.75150500  0.35254400  1
  C  818  1  0.32056200  0.74193000  0.34049700  1
  C  822  1  0.40676600  0.28797200  0.61937300  1
  C  824  1  0.45115600  0.25046400  0.60777500  1
  C  825  1  0.40639000  0.23703700  0.61840900  1
  C  827  1  0.36209200  0.27448800  0.63037600  1
  C  829  1  0.31987400  0.28405600  0.64226000  1
  C  1665  1  0.52470900  0.14726600  0.37576200  1
  C  1666  1  0.56619100  0.12872600  0.38062600  1
  C  1667  1  0.58326200  0.11169700  0.36232200  1
  C  1668  1  0.56087300  0.11518100  0.33877000  1
  C  1669  1  0.52214100  0.13389800  0.33297000  1
  C  1670  1  0.50215100  0.14937100  0.35182500  1
  C  1671  1  0.59029400  0.12835000  0.40407600  1
  C  1672  1  0.46017200  0.16724800  0.34748300  1
  C  1674  1  0.50608700  0.16378300  0.39447400  1
  C  1675  1  0.53153200  0.16274400  0.41799700  1
  C  1676  1  0.51530200  0.17964700  0.43638100  1
  C  1677  1  0.47259200  0.19708800  0.43083100  1
  C  1678  1  0.44527600  0.19866500  0.40795500  1
  C  1679  1  0.46355300  0.18190100  0.38962000  1
  C  1680  1  0.57430000  0.14503700  0.42195000  1
  C  1682  1  0.44073900  0.18264400  0.36588900  1
  C  1687  1  0.50329600  0.13517900  0.30904200  1
  C  1688  1  0.40731400  0.21828700  0.40332100  1
  C  1689  1  0.54600000  0.18283200  0.45806800  1
  C  1690  1  0.61769500  0.09093500  0.36653900  1
  C  1695  1  0.52474500  0.87873000  0.60736900  1
  C  1696  1  0.56625600  0.89725700  0.60250800  1
  C  1697  1  0.58336900  0.91427800  0.62081400  1
  C  1698  1  0.56093200  0.91081200  0.64436000  1
  C  1699  1  0.52218000  0.89210200  0.65016000  1
  C  1700  1  0.50217200  0.87663500  0.63130500  1
  C  1701  1  0.59035900  0.89763200  0.57905700  1
  C  1702  1  0.46016500  0.85876900  0.63564700  1
  C  1704  1  0.50611700  0.86221300  0.58865900  1
  C  1705  1  0.53159100  0.86323800  0.56514200  1
  C  1706  1  0.51536100  0.84632200  0.54677200  1
  C  1707  1  0.47262200  0.82889300  0.55231000  1
  C  1708  1  0.44531000  0.82733000  0.57518600  1
  C  1709  1  0.46355600  0.84410600  0.59351600  1
  C  1710  1  0.57438600  0.88093600  0.56119100  1
  C  1712  1  0.44071300  0.84338000  0.61724100  1
  C  1717  1  0.50332500  0.89083100  0.67408700  1
  C  1718  1  0.40726600  0.80773300  0.57981400  1
  C  1719  1  0.54606100  0.84313000  0.52508400  1
  C  1720  1  0.61779800  0.93503800  0.61659500  1
  C  1725  1  0.29926600  0.39721400  0.85692800  1
  C  1726  1  0.25812900  0.40200100  0.87561600  1
  C  1727  1  0.24129600  0.38361500  0.89259100  1
  C  1728  1  0.26344400  0.36006500  0.88891900  1
  C  1729  1  0.30186800  0.35434700  0.87006600  1
  C  1730  1  0.32174200  0.37327600  0.85465700  1
  C  1731  1  0.23415400  0.42546400  0.87623500  1
  C  1732  1  0.36356200  0.36901900  0.83669700  1
  C  1734  1  0.31771300  0.41601100  0.84047600  1
  C  1735  1  0.29222600  0.43952300  0.84166200  1
  C  1736  1  0.30814000  0.45794800  0.82473700  1
  C  1737  1  0.35087800  0.45250400  0.80726900  1
  C  1738  1  0.37832600  0.42966000  0.80560100  1
  C  1739  1  0.36014400  0.41124100  0.82229100  1
  C  1740  1  0.24976000  0.44339400  0.85952800  1
  C  1742  1  0.38295800  0.38751600  0.82140300  1
  C  1747  1  0.32069500  0.33043100  0.86866800  1
  C  1748  1  0.41642100  0.42512800  0.78599000  1
  C  1749  1  0.27739200  0.47966100  0.82167900  1
  C  1750  1  0.20819400  0.38782900  0.91370600  1
  C  1755  1  0.29924800  0.62870100  0.12629900  1
  C  1756  1  0.25799600  0.62392500  0.10765300  1
  C  1757  1  0.24105800  0.64231400  0.09069600  1
  C  1758  1  0.26332000  0.66585300  0.09433500  1
  C  1759  1  0.30183400  0.67156600  0.11315900  1
  C  1760  1  0.32177200  0.65263200  0.12854800  1
  C  1761  1  0.23397000  0.60046900  0.10707500  1
  C  1762  1  0.36368600  0.65688100  0.14647200  1
  C  1764  1  0.31776800  0.60990100  0.14273600  1
  C  1765  1  0.29228000  0.58639100  0.14156800  1
  C  1766  1  0.30831600  0.56794300  0.15844800  1
  C  1767  1  0.35105300  0.57340600  0.17591400  1
  C  1768  1  0.37853600  0.59624400  0.17756100  1
  C  1769  1  0.36028100  0.61466300  0.16088900  1
  C  1770  1  0.24972200  0.58252500  0.12374100  1
  C  1772  1  0.38311200  0.63838700  0.16176000  1
  C  1777  1  0.32073400  0.69547500  0.11453000  1
  C  1778  1  0.41658100  0.60077500  0.19718700  1
  C  1779  1  0.27757200  0.54623800  0.16155400  1
  C  1780  1  0.20779800  0.63811300  0.06961100  1
  C  1785  1  0.04880970  0.37825000  0.37529000  1
  C  1786  1  0.00815572  0.39710500  0.38011700  1
  C  1787  1  0.99163200  0.41412000  0.36174200  1
  C  1788  1  0.01349572  0.41037900  0.33816300  1
  C  1789  1  0.05144770  0.39136300  0.33240300  1
  C  1790  1  0.07111970  0.37589100  0.35133200  1
  C  1791  1  0.98428800  0.39787100  0.40359100  1
  C  1792  1  0.11261870  0.35780000  0.34708100  1
  C  1794  1  0.06698770  0.36175500  0.39409400  1
  C  1795  1  0.04158170  0.36306800  0.41761500  1
  C  1796  1  0.05721970  0.34613400  0.43606200  1
  C  1797  1  0.09966170  0.32854300  0.43063000  1
  C  1798  1  0.12716570  0.32677000  0.40779700  1
  C  1799  1  0.10914170  0.34345000  0.38933500  1
  C  1800  1  0.99956400  0.38111700  0.42152100  1
  C  1802  1  0.13185770  0.34248400  0.36559200  1
  C  1807  1  0.07009770  0.38988400  0.30845900  1
  C  1808  1  0.16562770  0.30723100  0.40347900  1
  C  1809  1  0.02645770  0.34316400  0.45777500  1
  C  1810  1  0.95947800  0.43543800  0.36604100  1
  C  1815  1  0.04854470  0.64784000  0.60786400  1
  C  1816  1  0.00777572  0.62902200  0.60304700  1
  C  1817  1  0.99123800  0.61199200  0.62141300  1
  C  1818  1  0.01326572  0.61569300  0.64497400  1
  C  1819  1  0.05127970  0.63468700  0.65073400  1
  C  1820  1  0.07094770  0.65016000  0.63180800  1
  C  1821  1  0.98379200  0.62832100  0.57959100  1
  C  1822  1  0.11252970  0.66821800  0.63605800  1
  C  1824  1  0.06671770  0.66435000  0.58907000  1
  C  1825  1  0.04122170  0.66308300  0.56556400  1
  C  1826  1  0.05690170  0.68002400  0.54712900  1
  C  1827  1  0.09941770  0.69758600  0.55254700  1
  C  1828  1  0.12693970  0.69932800  0.57537400  1
  C  1829  1  0.10895370  0.68262600  0.59382400  1
  C  1830  1  0.99906900  0.64509000  0.56167600  1
  C  1832  1  0.13177170  0.68354200  0.61755300  1
  C  1837  1  0.06994170  0.63615400  0.67467700  1
  C  1838  1  0.16552970  0.71882700  0.57969100  1
  C  1839  1  0.02625670  0.68297200  0.52538300  1
  C  1840  1  0.95886800  0.59071500  0.61713100  1
  C  1845  1  0.27601600  0.12894900  0.85660500  1
  C  1846  1  0.31141200  0.12390700  0.87723300  1
  C  1847  1  0.33007600  0.14281900  0.89324900  1
  C  1848  1  0.31327000  0.16675600  0.88759400  1
  C  1849  1  0.27899000  0.17252800  0.86736100  1
  C  1850  1  0.25942000  0.15342400  0.85206200  1
  C  1851  1  0.32654800  0.09947100  0.88119500  1
  C  1852  1  0.22301600  0.15798500  0.83214800  1
  C  1854  1  0.25637800  0.10977300  0.84083200  1
  C  1855  1  0.27372200  0.08530500  0.84516500  1
  C  1856  1  0.25581800  0.06623300  0.82930400  1
  C  1857  1  0.21773800  0.07210400  0.81011400  1
  C  1858  1  0.19789970  0.09590700  0.80541900  1
  C  1859  1  0.21888500  0.11484600  0.82087100  1
  C  1860  1  0.30805000  0.08087000  0.86582200  1
  C  1862  1  0.20276200  0.13929000  0.81731700  1
  C  1867  1  0.26141400  0.19655500  0.86490200  1
  C  1868  1  0.16226570  0.10013700  0.78494500  1
  C  1869  1  0.27143200  0.04165500  0.83187100  1
  C  1870  1  0.35893600  0.13899700  0.91547900  1
  C  1875  1  0.27615200  0.89700400  0.12656700  1
  C  1876  1  0.31154000  0.90203800  0.10593800  1
  C  1877  1  0.33023900  0.88312100  0.08993800  1
  C  1878  1  0.31339800  0.85918600  0.09559100  1
  C  1879  1  0.27916100  0.85341500  0.11583900  1
  C  1880  1  0.25955200  0.87253000  0.13111800  1
  C  1881  1  0.32667600  0.92647100  0.10196600  1
  C  1882  1  0.22313200  0.86797800  0.15102700  1
  C  1884  1  0.25651800  0.91618600  0.14233200  1
  C  1885  1  0.27388400  0.94065300  0.13799800  1
  C  1886  1  0.25606600  0.95972700  0.15387700  1
  C  1887  1  0.21794000  0.95386000  0.17305400  1
  C  1888  1  0.19801570  0.93006700  0.17773100  1
  C  1889  1  0.21900800  0.91112200  0.16229000  1
  C  1890  1  0.30819000  0.94507800  0.11733200  1
  C  1892  1  0.20286400  0.88668100  0.16584700  1
  C  1897  1  0.26152200  0.82939200  0.11828300  1
  C  1898  1  0.16240170  0.92584700  0.19821600  1
  C  1899  1  0.27175300  0.98430300  0.15132900  1
  C  1900  1  0.35894400  0.88693600  0.06767500  1
  C  1905  1  0.02529170  0.64799600  0.87609600  1
  C  1906  1  0.06224170  0.62785600  0.88117100  1
  C  1907  1  0.08146570  0.61179500  0.86236300  1
  C  1908  1  0.06346370  0.61700000  0.83846400  1
  C  1909  1  0.02768770  0.63674300  0.83263300  1
  C  1910  1  0.00765972  0.65202700  0.85166000  1
  C  1911  1  0.07826570  0.62443700  0.90558500  1
  C  1912  1  0.96983400  0.67144300  0.84704100  1
  C  1914  1  0.00528972  0.66383400  0.89517500  1
  C  1915  1  0.02343170  0.65999000  0.91963200  1
  C  1916  1  0.00510172  0.67588600  0.93863200  1
  C  1917  1  0.96610500  0.69471800  0.93260400  1
  C  1918  1  0.94546200  0.69895500  0.90883100  1
  C  1919  1  0.96657900  0.68336300  0.89002700  1
  C  1920  1  0.05906270  0.63974300  0.92408800  1
  C  1922  1  0.94937500  0.68634500  0.86563700  1
  C  1927  1  0.00979572  0.63887900  0.80860700  1
  C  1928  1  0.90898200  0.71916200  0.90444000  1
  C  1929  1  0.02097570  0.67370800  0.96328500  1
  C  1930  1  0.11327670  0.59022000  0.86620200  1
  C  1935  1  0.02514970  0.37803800  0.10699700  1
  C  1936  1  0.06187770  0.39825500  0.10192700  1
  C  1937  1  0.08121570  0.41425100  0.12076800  1
  C  1938  1  0.06339970  0.40895300  0.14467300  1
  C  1939  1  0.02785370  0.38913300  0.15049500  1
  C  1940  1  0.00782172  0.37387400  0.13144800  1
  C  1941  1  0.07757770  0.40180800  0.07749300  1
  C  1942  1  0.97027800  0.35435800  0.13606200  1
  C  1944  1  0.00508372  0.36224400  0.08789700  1
  C  1945  1  0.02296370  0.36620900  0.06343000  1
  C  1946  1  0.00463972  0.35033800  0.04441500  1
  C  1947  1  0.96581400  0.33144200  0.05040600  1
  C  1948  1  0.94542800  0.32708700  0.07419700  1
  C  1949  1  0.96661800  0.34262700  0.09303200  1
  C  1950  1  0.05832370  0.38653800  0.05896400  1
  C  1952  1  0.94976000  0.33949800  0.11744700  1
  C  1957  1  0.01004172  0.38692700  0.17452600  1
  C  1958  1  0.90905600  0.30684000  0.07855200  1
  C  1959  1  0.02052570  0.35259400  0.01979000  1
  C  1960  1  0.11289170  0.43586300  0.11696500  1
  C  1965  1  0.79985800  0.89710200  0.35711000  1
  C  1966  1  0.75816100  0.90197400  0.37555800  1
  C  1967  1  0.74097900  0.88370100  0.39259700  1
  C  1968  1  0.76328800  0.86013100  0.38914400  1
  C  1969  1  0.80216000  0.85429700  0.37048800  1
  C  1970  1  0.82243600  0.87316100  0.35508400  1
  C  1971  1  0.73396700  0.92540700  0.37584800  1
  C  1972  1  0.86476000  0.86883100  0.33735700  1
  C  1974  1  0.81868000  0.91580600  0.34062000  1
  C  1975  1  0.79311100  0.93930900  0.34156900  1
  C  1976  1  0.80951200  0.95768600  0.32469200  1
  C  1977  1  0.85263600  0.95217400  0.30743200  1
  C  1978  1  0.88013600  0.92932000  0.30593400  1
  C  1979  1  0.86161600  0.91097200  0.32265500  1
  C  1980  1  0.75003700  0.94324700  0.35914600  1
  C  1982  1  0.88453600  0.88725100  0.32205500  1
  C  1987  1  0.82088600  0.83034100  0.36923500  1
  C  1988  1  0.91930800  0.92489600  0.28664900  1
  C  1989  1  0.77896300  0.97941800  0.32148100  1
  C  1990  1  0.70648000  0.88798100  0.41332500  1
  C  1995  1  0.79981400  0.12888700  0.62600900  1
  C  1996  1  0.75812600  0.12401100  0.60755800  1
  C  1997  1  0.74089700  0.14229100  0.59053500  1
  C  1998  1  0.76320700  0.16586000  0.59398600  1
  C  1999  1  0.80204400  0.17169900  0.61265500  1
  C  2000  1  0.82235500  0.15283400  0.62804800  1
  C  2001  1  0.73397100  0.10057200  0.60725500  1
  C  2002  1  0.86466600  0.15716400  0.64578000  1
  C  2004  1  0.81867600  0.11017900  0.64248400  1
  C  2005  1  0.79316400  0.08666500  0.64151600  1
  C  2006  1  0.80963200  0.06827000  0.65835700  1
  C  2007  1  0.85267400  0.07380200  0.67564900  1
  C  2008  1  0.88017000  0.09665900  0.67715600  1
  C  2009  1  0.86159400  0.11501500  0.66045600  1
  C  2010  1  0.75012900  0.08271500  0.62392500  1
  C  2012  1  0.88446000  0.13874400  0.66107500  1
  C  2017  1  0.82077800  0.19565400  0.61390200  1
  C  2018  1  0.91924800  0.10108000  0.69647200  1
  C  2019  1  0.77906400  0.04655000  0.66159600  1
  C  2020  1  0.70646700  0.13800700  0.56978800  1
  C  2025  1  0.54770900  0.87799500  0.87564100  1
  C  2026  1  0.51211700  0.89855200  0.88072000  1
  C  2027  1  0.49336300  0.91459100  0.86184700  1
  C  2028  1  0.51017400  0.90901100  0.83789400  1
  C  2029  1  0.54462600  0.88884500  0.83207200  1
  C  2030  1  0.56438800  0.87355500  0.85115700  1
  C  2031  1  0.49686500  0.90242500  0.90515400  1
  C  2032  1  0.60111100  0.85375700  0.84657200  1
  C  2034  1  0.56749400  0.86221300  0.89478800  1
  C  2035  1  0.54997900  0.86644600  0.91925200  1
  C  2036  1  0.56793800  0.85056700  0.93829700  1
  C  2037  1  0.60642100  0.83152700  0.93241000  1
  C  2038  1  0.62660500  0.82694400  0.90862300  1
  C  2039  1  0.60537500  0.84237700  0.88970000  1
  C  2040  1  0.51541200  0.88702500  0.92371900  1
  C  2042  1  0.62161900  0.83896000  0.86524600  1
  C  2047  1  0.56218900  0.88645500  0.80802800  1
  C  2048  1  0.66328000  0.80673700  0.90447700  1
  C  2049  1  0.55220900  0.85305100  0.96288300  1
  C  2050  1  0.46451700  0.93681400  0.86571900  1
  C  2055  1  0.54777000  0.14802800  0.10748400  1
  C  2056  1  0.51212100  0.12748700  0.10241200  1
  C  2057  1  0.49333300  0.11145200  0.12128600  1
  C  2058  1  0.51024700  0.11701700  0.14523200  1
  C  2059  1  0.54469900  0.13718300  0.15105300  1
  C  2060  1  0.56447900  0.15246400  0.13196500  1
  C  2061  1  0.49683500  0.12362400  0.07798000  1
  C  2062  1  0.60125300  0.17224600  0.13654300  1
  C  2064  1  0.56756500  0.16380800  0.08833400  1
  C  2065  1  0.55000700  0.15958600  0.06387300  1
  C  2066  1  0.56796700  0.17546100  0.04482300  1
  C  2067  1  0.60647400  0.19449300  0.05070600  1
  C  2068  1  0.62670100  0.19906500  0.07448800  1
  C  2069  1  0.60549000  0.18363100  0.09341500  1
  C  2070  1  0.51541100  0.13901400  0.05941200  1
  C  2072  1  0.62177600  0.18703700  0.11786500  1
  C  2077  1  0.56225900  0.13957700  0.17509900  1
  C  2078  1  0.66345100  0.21925300  0.07862400  1
  C  2079  1  0.55216200  0.17300100  0.02024100  1
  C  2080  1  0.46445900  0.08923100  0.11742000  1
  C  2085  1  0.77614200  0.62873400  0.35671900  1
  C  2086  1  0.81235400  0.62365800  0.37709700  1
  C  2087  1  0.83148400  0.64251700  0.39310900  1
  C  2088  1  0.81411400  0.66644500  0.38765500  1
  C  2089  1  0.77908100  0.67227800  0.36767400  1
  C  2090  1  0.75919000  0.65320700  0.35240100  1
  C  2091  1  0.82779800  0.59921200  0.38079400  1
  C  2092  1  0.72214600  0.65781400  0.33271300  1
  C  2094  1  0.75617500  0.60961500  0.34092800  1
  C  2095  1  0.77373700  0.58513800  0.34506600  1
  C  2096  1  0.75543200  0.56609600  0.32924700  1
  C  2097  1  0.71695200  0.57204300  0.31022900  1
  C  2098  1  0.69686900  0.59584600  0.30568300  1
  C  2099  1  0.71808500  0.61473000  0.32117000  1
  C  2100  1  0.80872600  0.58066200  0.36550500  1
  C  2102  1  0.70163900  0.63917300  0.31787400  1
  C  2107  1  0.76143000  0.69633300  0.36536900  1
  C  2108  1  0.66020400  0.60002500  0.28548100  1
  C  2109  1  0.77091700  0.54147200  0.33169500  1
  C  2110  1  0.86257400  0.63869500  0.41485500  1
  C  2115  1  0.77622000  0.39725200  0.62648300  1
  C  2116  1  0.81253400  0.40233800  0.60614000  1
  C  2117  1  0.83169800  0.38349400  0.59011900  1
  C  2118  1  0.81420800  0.35956700  0.59551800  1
  C  2119  1  0.77910000  0.35372400  0.61547400  1
  C  2120  1  0.75916600  0.37278200  0.63074700  1
  C  2121  1  0.82804600  0.42678100  0.60248800  1
  C  2122  1  0.72199300  0.36816800  0.65038800  1
  C  2124  1  0.75625900  0.41635800  0.64229400  1
  C  2125  1  0.77392500  0.44083200  0.63821500  1
  C  2126  1  0.75570800  0.45985500  0.65407600  1
  C  2127  1  0.71712300  0.45389200  0.67305600  1
  C  2128  1  0.69687200  0.43009800  0.67752900  1
  C  2129  1  0.71807200  0.41123200  0.66201800  1
  C  2130  1  0.80896500  0.44531700  0.61779000  1
  C  2132  1  0.70149000  0.38679500  0.66524500  1
  C  2137  1  0.76132600  0.32968200  0.61771400  1
  C  2138  1  0.66017500  0.42590100  0.69772200  1
  C  2139  1  0.77133200  0.48447700  0.65169700  1
  C  2140  1  0.86280800  0.38733100  0.56837600  1
  C  2145  1  0.24285400  0.28107400  0.41766400  1
  C  2147  1  0.30539600  0.25443100  0.39496900  1
  C  2148  1  0.32875200  0.24427500  0.41635800  1
  C  2150  1  0.26649400  0.27095400  0.43907200  1
  C  2152  1  0.25063600  0.27754800  0.46064600  1
  C  2156  1  0.24274500  0.74497700  0.56547500  1
  C  2158  1  0.30531600  0.77161600  0.58816300  1
  C  2159  1  0.32867600  0.78176700  0.56677200  1
  C  2161  1  0.26638300  0.75509600  0.54406400  1
  C  2163  1  0.25052900  0.74849600  0.52249100  1
  C  2167  1  0.58090100  0.43933100  0.72325800  1
  C  2169  1  0.51977800  0.41671300  0.75054300  1
  C  2170  1  0.49519200  0.43811600  0.76014000  1
  C  2172  1  0.55608300  0.46075000  0.73283500  1
  C  2174  1  0.57070100  0.48229500  0.72565500  1
  C  2178  1  0.58092900  0.58657700  0.25996800  1
  C  2180  1  0.51999100  0.60917800  0.23259900  1
  C  2181  1  0.49523400  0.58777600  0.22308400  1
  C  2183  1  0.55594700  0.56515600  0.25047100  1
  C  2185  1  0.57042400  0.54361800  0.25772500  1
  C  2189  1  0.99563400  0.08675900  0.72298600  1
  C  2191  1  0.06077570  0.10939100  0.74854400  1
  C  2192  1  0.08128170  0.08806700  0.75986100  1
  C  2194  1  0.01654972  0.06540600  0.73423800  1
  C  2196  1  0.99809500  0.04389800  0.72873000  1
  C  2200  1  0.99571100  0.93922200  0.26014700  1
  C  2202  1  0.06084770  0.91658700  0.23458900  1
  C  2203  1  0.08140170  0.93790900  0.22328900  1
  C  2205  1  0.01665572  0.96057400  0.24890300  1
  C  2207  1  0.99820400  0.98208300  0.25440900  1
  C  2211  1  0.74286500  0.78135800  0.91781800  1
  C  2213  1  0.80490800  0.75442400  0.89521700  1
  C  2214  1  0.82849400  0.74445400  0.91664300  1
  C  2216  1  0.76676900  0.77142300  0.93926000  1
  C  2218  1  0.75126200  0.77825100  0.96080800  1
  C  2222  1  0.74290700  0.24466400  0.06522700  1
  C  2224  1  0.80516000  0.27152200  0.08781400  1
  C  2225  1  0.82850400  0.28158100  0.06638100  1
  C  2227  1  0.76660200  0.25467300  0.04377800  1
  C  2229  1  0.75091100  0.24790900  0.02223500  1
  C  2233  1  0.58396300  0.16506900  0.49514400  1
  C  2235  1  0.62953500  0.13731400  0.52302000  1
  C  2236  1  0.64824600  0.15654100  0.53789500  1
  C  2238  1  0.60256500  0.18437800  0.51025100  1
  C  2240  1  0.59164000  0.20709200  0.50640100  1
  C  2244  1  0.58408900  0.86088800  0.48800200  1
  C  2246  1  0.62941900  0.88866000  0.46006900  1
  C  2247  1  0.64839700  0.86943200  0.44525700  1
  C  2249  1  0.60293600  0.84157800  0.47295000  1
  C  2251  1  0.59232000  0.81884700  0.47685800  1
  C  2255  1  0.23911800  0.51661700  0.83952000  1
  C  2257  1  0.19125570  0.54395000  0.86711100  1
  C  2258  1  0.17464370  0.55935100  0.84794800  1
  C  2260  1  0.22270400  0.53225100  0.82027500  1
  C  2262  1  0.23594000  0.52887000  0.79770500  1
  C  2266  1  0.23908800  0.50932500  0.14369700  1
  C  2268  1  0.19107370  0.48206300  0.11608600  1
  C  2269  1  0.17446770  0.46664200  0.13523400  1
  C  2271  1  0.22264800  0.49368300  0.16292800  1
  C  2273  1  0.23597800  0.49702200  0.18549600  1
  C  2277  1  0.98881200  0.36100500  0.49476400  1
  C  2279  1  0.93969000  0.38840700  0.52186100  1
  C  2280  1  0.92455800  0.36927100  0.53756900  1
  C  2282  1  0.97392300  0.34179200  0.51069800  1
  C  2284  1  0.98876400  0.31936100  0.50757100  1
  C  2288  1  0.98860600  0.66506700  0.48843300  1
  C  2290  1  0.93918600  0.63766600  0.46143800  1
  C  2291  1  0.92438300  0.65676700  0.44563000  1
  C  2293  1  0.97404200  0.68424600  0.47240300  1
  C  2295  1  0.98923800  0.70664800  0.47543300  1
  C  2299  1  0.34466000  0.01204100  0.83969200  1
  C  2301  1  0.40536800  0.98733300  0.86488600  1
  C  2302  1  0.40225800  0.96779700  0.84840100  1
  C  2304  1  0.34167600  0.99254700  0.82301900  1
  C  2306  1  0.31550000  0.99406500  0.80233500  1
  C  2310  1  0.34492600  0.01390700  0.14345700  1
  C  2312  1  0.40464800  0.03883500  0.11805400  1
  C  2313  1  0.40246800  0.05817300  0.13479500  1
  C  2315  1  0.34292800  0.03319600  0.16039200  1
  C  2317  1  0.31764400  0.03146300  0.18125900  1
  C  2321  1  0.09301770  0.66521800  0.99313600  1
  C  2323  1  0.14176770  0.63793600  0.02027900  1
  C  2324  1  0.15037170  0.65657500  0.03743200  1
  C  2326  1  0.10171170  0.68398700  0.01024500  1
  C  2328  1  0.08716970  0.70632400  0.00620200  1
  C  2332  1  0.09296170  0.36081500  0.99006100  1
  C  2334  1  0.14362970  0.38786500  0.96333200  1
  C  2335  1  0.15055970  0.36942500  0.94583000  1
  C  2337  1  0.09992970  0.34224600  0.97259300  1
  C  2339  1  0.08343570  0.32008200  0.97622600  1
  C  2343  1  0.74051600  0.01641700  0.33931100  1
  C  2345  1  0.69483900  0.04421300  0.36712500  1
  C  2346  1  0.67604900  0.05911400  0.34793200  1
  C  2348  1  0.72185500  0.03155500  0.32003600  1
  C  2350  1  0.73269100  0.02774200  0.29730800  1
  C  2354  1  0.74067000  0.00954100  0.64378600  1
  C  2356  1  0.69492800  0.98175000  0.61599200  1
  C  2357  1  0.67620300  0.96684500  0.63519300  1
  C  2359  1  0.72205800  0.99440300  0.66307000  1
  C  2361  1  0.73300700  0.99821000  0.68579100  1
  C  2365  1  0.47887900  0.86085300  0.99248000  1
  C  2367  1  0.41827900  0.88608700  0.01720400  1
  C  2368  1  0.42109500  0.86953700  0.03669200  1
  C  2370  1  0.48159300  0.84412600  0.01193500  1
  C  2372  1  0.50772200  0.82343100  0.01039900  1
  C  2376  1  0.47869800  0.16518600  0.99068800  1
  C  2378  1  0.41830600  0.13988200  0.96594800  1
  C  2379  1  0.42103600  0.15643500  0.94646100  1
  C  2381  1  0.48138900  0.18190500  0.97122500  1
  C  2383  1  0.50739200  0.20262800  0.97276200  1
  C  2387  1  0.84343000  0.51166800  0.33963300  1
  C  2389  1  0.90015200  0.48605400  0.36557000  1
  C  2390  1  0.90058700  0.46731500  0.34814000  1
  C  2392  1  0.84399000  0.49297300  0.32203900  1
  C  2394  1  0.82148400  0.49538300  0.30067300  1
  C  2398  1  0.84370800  0.51426300  0.64369600  1
  C  2400  1  0.89736600  0.54049800  0.61721600  1
  C  2401  1  0.90076800  0.55863600  0.63521400  1
  C  2403  1  0.84731600  0.53233700  0.66185900  1
  C  2405  1  0.82772500  0.52928500  0.68365400  1
  C  2409  1  0.53218500  0.14105500  0.21675900  1
  C  2411  1  0.48849900  0.12899100  0.25426100  1
  C  2412  1  0.53291500  0.13990300  0.26767400  1
  C  2414  1  0.57648700  0.15233700  0.23023400  1
  C  2416  1  0.61811100  0.16458800  0.22066100  1
  C  2420  1  0.53212900  0.88495700  0.76636900  1
  C  2422  1  0.48850600  0.89703100  0.72885800  1
  C  2423  1  0.53291500  0.88610200  0.71545600  1
  C  2425  1  0.57636800  0.87362000  0.75290500  1
  C  2427  1  0.61795300  0.86135700  0.76249000  1
  C  2431  1  0.29154200  0.23818700  0.86319300  1
  C  2433  1  0.33539200  0.27570300  0.87506900  1
  C  2434  1  0.29092600  0.28908600  0.86416100  1
  C  2436  1  0.24719200  0.25163200  0.85191000  1
  C  2438  1  0.20540200  0.24203300  0.83977800  1
  C  2442  1  0.29158400  0.78774300  0.11995100  1
  C  2444  1  0.33554000  0.75021800  0.10815800  1
  C  2445  1  0.29102400  0.73683600  0.11903400  1
  C  2447  1  0.24716200  0.77430000  0.13118700  1
  C  2449  1  0.20531600  0.78389700  0.14328300  1
  C  2453  1  0.04008170  0.38496800  0.21618900  1
  C  2455  1  0.08484970  0.39627600  0.25369600  1
  C  2456  1  0.03983770  0.38580800  0.26710400  1
  C  2458  1  0.99517700  0.37411600  0.22965700  1
  C  2460  1  0.95266400  0.36243400  0.22007500  1
  C  2464  1  0.03981670  0.64094000  0.76694800  1
  C  2466  1  0.08469570  0.62973200  0.72944000  1
  C  2467  1  0.03964570  0.64017400  0.71603500  1
  C  2469  1  0.99482600  0.65173300  0.75348800  1
  C  2471  1  0.95223200  0.66335300  0.76308100  1
  C  2475  1  0.79147600  0.73802600  0.36370300  1
  C  2477  1  0.83563700  0.77554000  0.37544200  1
  C  2478  1  0.79107000  0.78896300  0.36465000  1
  C  2480  1  0.74701100  0.75150500  0.35254400  1
  C  2482  1  0.70505800  0.74193000  0.34049700  1
  C  2486  1  0.79126200  0.28797200  0.61937300  1
  C  2488  1  0.83565200  0.25046400  0.60777500  1
  C  2489  1  0.79088600  0.23703700  0.61840900  1
  C  2491  1  0.74658800  0.27448800  0.63037600  1
  C  2493  1  0.70437000  0.28405600  0.64226000  1
  H  9  1  0.18764200  0.10331100  0.32529100  1
  H  17  1  0.07815100  0.20983700  0.44367800  1
  H  19  1  0.21040400  0.14373600  0.43817600  1
  H  20  1  0.23736900  0.11634200  0.40843800  1
  H  21  1  0.02503800  0.19474500  0.36132900  1
  H  22  1  0.05788700  0.16927000  0.33068900  1
  H  27  1  0.07764600  0.13243400  0.30559400  1
  H  28  1  0.02768900  0.22706900  0.38777100  1
  H  29  1  0.18086500  0.19867600  0.46011200  1
  H  30  1  0.23375900  0.08380000  0.38301200  1
  H  39  1  0.18773700  0.92267400  0.65784300  1
  H  47  1  0.07813000  0.81616000  0.53945400  1
  H  49  1  0.21053700  0.88221400  0.54497300  1
  H  50  1  0.23751500  0.90960600  0.57470800  1
  H  51  1  0.02501600  0.83127900  0.62180600  1
  H  52  1  0.05787300  0.85675400  0.65244000  1
  H  57  1  0.07767700  0.89359100  0.67753200  1
  H  58  1  0.02758000  0.79896000  0.59537300  1
  H  59  1  0.18080500  0.82726500  0.52301600  1
  H  60  1  0.23388900  0.94217000  0.60012100  1
  H  69  1  0.86790800  0.34655800  0.90080300  1
  H  77  1  0.97628900  0.46541200  0.79457800  1
  H  79  1  0.84467600  0.45960900  0.86096000  1
  H  80  1  0.81831700  0.42973600  0.88839400  1
  H  81  1  0.02957100  0.38300700  0.80923700  1
  H  82  1  0.99682200  0.35223400  0.83455800  1
  H  87  1  0.97743400  0.32697700  0.87118500  1
  H  88  1  0.02703700  0.40963200  0.77711000  1
  H  89  1  0.87388100  0.48189500  0.80577900  1
  H  90  1  0.82571600  0.40405500  0.92135600  1
  H  99  1  0.86776800  0.67936300  0.08246000  1
  H  107  1  0.97647700  0.56049900  0.18860800  1
  H  109  1  0.84463000  0.56631000  0.12232300  1
  H  110  1  0.81810400  0.59618600  0.09493700  1
  H  111  1  0.02980600  0.64288400  0.17389100  1
  H  112  1  0.99698000  0.67366300  0.14859200  1
  H  117  1  0.97745600  0.69891100  0.11195100  1
  H  118  1  0.02723800  0.61628300  0.20604700  1
  H  119  1  0.87412400  0.54401500  0.17746900  1
  H  120  1  0.82491800  0.62184400  0.06204400  1
  H  129  1  0.61820800  0.42235400  0.32469900  1
  H  137  1  0.72491400  0.31587300  0.44358400  1
  H  139  1  0.59465200  0.38266800  0.43776300  1
  H  140  1  0.56887400  0.41022200  0.40787900  1
  H  141  1  0.77830800  0.33025600  0.36107400  1
  H  142  1  0.74579700  0.35559500  0.33028700  1
  H  147  1  0.72690600  0.39212600  0.30496900  1
  H  148  1  0.77804400  0.29862100  0.38775100  1
  H  149  1  0.62255800  0.32734200  0.46002000  1
  H  150  1  0.57869600  0.44339600  0.38207100  1
  H  159  1  0.61794000  0.60373900  0.65845100  1
  H  167  1  0.72475200  0.71023400  0.53958400  1
  H  169  1  0.59401100  0.64360200  0.54546000  1
  H  170  1  0.56820000  0.61604800  0.57532000  1
  H  171  1  0.77825700  0.69575200  0.62207000  1
  H  172  1  0.74576700  0.67039400  0.65284200  1
  H  177  1  0.72674300  0.63389300  0.67816200  1
  H  178  1  0.77809000  0.72740400  0.59544000  1
  H  179  1  0.62244400  0.69880600  0.52308700  1
  H  180  1  0.57736600  0.58292900  0.60099400  1
  H  189  1  0.93985200  0.18048300  0.89922000  1
  H  197  1  0.82010200  0.05849300  0.79875300  1
  H  199  1  0.93528000  0.06372900  0.87054200  1
  H  200  1  0.96751800  0.09464800  0.89543000  1
  H  201  1  0.79099600  0.14411900  0.80371100  1
  H  202  1  0.82538800  0.17519200  0.82816300  1
  H  207  1  0.83527400  0.19996300  0.86504000  1
  H  208  1  0.78682200  0.11437100  0.77465500  1
  H  209  1  0.85649800  0.02922300  0.82990100  1
  H  210  1  0.96487400  0.12426800  0.92492000  1
  H  219  1  0.93992000  0.84545900  0.08395400  1
  H  227  1  0.82035000  0.96746900  0.18442500  1
  H  229  1  0.93543400  0.96221600  0.11260600  1
  H  230  1  0.96763800  0.93128800  0.08772400  1
  H  231  1  0.79108600  0.88185900  0.17945100  1
  H  232  1  0.82549800  0.85077300  0.15501700  1
  H  237  1  0.83537400  0.82600300  0.11810800  1
  H  238  1  0.78697600  0.91161800  0.20851000  1
  H  239  1  0.85690400  0.99675700  0.15341000  1
  H  240  1  0.96480200  0.90165000  0.05822600  1
  H  249  1  0.69056200  0.60545200  0.82475900  1
  H  257  1  0.56828400  0.70617400  0.94609900  1
  H  259  1  0.68684400  0.63520300  0.94122300  1
  H  260  1  0.72031600  0.61059400  0.91053300  1
  H  261  1  0.53659300  0.69955800  0.86076800  1
  H  262  1  0.57135600  0.67501900  0.82986500  1
  H  267  1  0.58367400  0.63819800  0.80522700  1
  H  268  1  0.53243000  0.72910100  0.88984300  1
  H  269  1  0.60656200  0.67664100  0.97576200  1
  H  270  1  0.72447200  0.58160500  0.88184500  1
  H  279  1  0.69055400  0.42046300  0.15840300  1
  H  287  1  0.56796400  0.32002900  0.03687900  1
  H  289  1  0.68590600  0.39112600  0.04183300  1
  H  290  1  0.71943000  0.41570500  0.07255000  1
  H  291  1  0.53719600  0.32620200  0.12231800  1
  H  292  1  0.57206400  0.35067300  0.15325300  1
  H  297  1  0.58391800  0.38750700  0.17791800  1
  H  298  1  0.53267200  0.29683800  0.09308900  1
  H  299  1  0.60600300  0.34994400  0.00729700  1
  H  300  1  0.72385500  0.44456900  0.10138600  1
  H  309  1  0.36735500  0.84666100  0.40099500  1
  H  317  1  0.47839400  0.96508300  0.29479000  1
  H  319  1  0.34477700  0.95944200  0.36035200  1
  H  320  1  0.31764800  0.92975000  0.38774400  1
  H  321  1  0.53154400  0.88267000  0.31011500  1
  H  322  1  0.49814600  0.85204600  0.33541100  1
  H  327  1  0.47756800  0.82686800  0.37188400  1
  H  328  1  0.53278600  0.90894200  0.27841400  1
  H  329  1  0.37571200  0.98160000  0.30552700  1
  H  330  1  0.32141100  0.90447500  0.42041400  1
  H  339  1  0.36729500  0.17932700  0.58212800  1
  H  347  1  0.47841000  0.06089600  0.68829700  1
  H  349  1  0.34494700  0.06650400  0.62269300  1
  H  350  1  0.31773000  0.09621300  0.59532600  1
  H  351  1  0.53148000  0.14332200  0.67301300  1
  H  352  1  0.49802800  0.17395400  0.64773500  1
  H  357  1  0.47746200  0.19912300  0.61125300  1
  H  358  1  0.53269600  0.11703200  0.70471100  1
  H  359  1  0.37566500  0.04441900  0.67752500  1
  H  360  1  0.32153500  0.12152800  0.56266700  1
  H  369  1  0.11455300  0.92066300  0.82419600  1
  H  377  1  0.23519200  0.82020300  0.94602900  1
  H  379  1  0.11913500  0.89170200  0.94086500  1
  H  380  1  0.08676700  0.91661000  0.91000300  1
  H  381  1  0.26466000  0.82547600  0.86037000  1
  H  382  1  0.22985100  0.84984800  0.82936100  1
  H  387  1  0.21933200  0.88661600  0.80461100  1
  H  388  1  0.27199900  0.79684100  0.88975200  1
  H  389  1  0.19810400  0.85104500  0.97533100  1
  H  390  1  0.08945400  0.94619700  0.88049900  1
  H  399  1  0.11456200  0.10538500  0.15893800  1
  H  407  1  0.23525600  0.20581200  0.03708500  1
  H  409  1  0.11907300  0.13434800  0.04227200  1
  H  410  1  0.08667000  0.10946000  0.07313600  1
  H  411  1  0.26485200  0.20050800  0.12273900  1
  H  412  1  0.23002300  0.17614700  0.15375000  1
  H  417  1  0.21940200  0.13937700  0.17851200  1
  H  418  1  0.27228600  0.22912800  0.09337200  1
  H  419  1  0.19800200  0.17504400  0.00777500  1
  H  420  1  0.08925400  0.07988600  0.10259700  1
  H  429  1  0.44112200  0.68017200  0.39919800  1
  H  437  1  0.31906700  0.55844600  0.29890400  1
  H  439  1  0.43614600  0.56352100  0.37013300  1
  H  440  1  0.46933200  0.59428500  0.39479800  1
  H  441  1  0.28941000  0.64406500  0.30446800  1
  H  442  1  0.32423700  0.67501900  0.32889400  1
  H  447  1  0.33528800  0.69972800  0.36556500  1
  H  448  1  0.28229900  0.61482800  0.27567900  1
  H  449  1  0.35601300  0.52906400  0.32946500  1
  H  450  1  0.47251000  0.62326700  0.42372400  1
  H  459  1  0.44118200  0.34585300  0.58395500  1
  H  467  1  0.31929300  0.46747100  0.68441700  1
  H  469  1  0.43643600  0.46245500  0.61318400  1
  H  470  1  0.46963600  0.43171700  0.58850500  1
  H  471  1  0.28917300  0.38189900  0.67861500  1
  H  472  1  0.32399600  0.35096500  0.65416000  1
  H  477  1  0.33517800  0.32631600  0.61735900  1
  H  478  1  0.28219500  0.41106400  0.70748300  1
  H  479  1  0.35658000  0.49692000  0.65409800  1
  H  480  1  0.47287800  0.40278700  0.55954300  1
  H  487  1  0.93388400  0.24858600  0.37831700  1
  H  498  1  0.93377600  0.77747200  0.60481400  1
  H  509  1  0.12323300  0.40009600  0.75682800  1
  H  520  1  0.12360300  0.62578800  0.22624000  1
  H  531  1  0.69119000  0.12600700  0.75361600  1
  H  542  1  0.69126200  0.89997000  0.22951900  1
  H  553  1  0.43307400  0.74834200  0.87860400  1
  H  564  1  0.43350200  0.27754100  0.10442700  1
  H  575  1  0.25435100  0.11974000  0.52716800  1
  H  586  1  0.25406100  0.90624200  0.45588100  1
  H  597  1  0.79601600  0.54775200  0.88461700  1
  H  608  1  0.79580700  0.47828600  0.09857900  1
  H  619  1  0.54345400  0.40583600  0.52547100  1
  H  630  1  0.54270200  0.62025100  0.45790500  1
  H  641  1  0.04498500  0.98626200  0.88024400  1
  H  652  1  0.04347000  0.04007200  0.10249000  1
  H  663  1  0.77263000  0.62087700  0.02314000  1
  H  674  1  0.77598400  0.40471700  0.96078600  1
  H  685  1  0.30100900  0.04831500  0.38470700  1
  H  696  1  0.30103900  0.97765600  0.59841400  1
  H  707  1  0.00990200  0.90150700  0.01830500  1
  H  718  1  0.01007800  0.12442100  0.96483100  1
  H  729  1  0.53730600  0.48440300  0.38152600  1
  H  740  1  0.53214200  0.54263000  0.60077700  1
  H  751  1  0.07151100  0.11988300  0.26257000  1
  H  762  1  0.07161400  0.90619500  0.72054200  1
  H  773  1  0.98344000  0.28403600  0.88412600  1
  H  784  1  0.98360300  0.74188300  0.09911600  1
  H  795  1  0.73346800  0.40496500  0.26201200  1
  H  806  1  0.73341600  0.62111600  0.72111600  1
  H  817  1  0.48382400  0.78384800  0.38442700  1
  H  828  1  0.48405800  0.24216000  0.59892800  1
  H  1673  1  0.57213800  0.10331100  0.32529100  1
  H  1681  1  0.46264700  0.20983700  0.44367800  1
  H  1683  1  0.59490000  0.14373600  0.43817600  1
  H  1684  1  0.62186500  0.11634200  0.40843800  1
  H  1685  1  0.40953400  0.19474500  0.36132900  1
  H  1686  1  0.44238300  0.16927000  0.33068900  1
  H  1691  1  0.46214200  0.13243400  0.30559400  1
  H  1692  1  0.41218500  0.22706900  0.38777100  1
  H  1693  1  0.56536100  0.19867600  0.46011200  1
  H  1694  1  0.61825500  0.08380000  0.38301200  1
  H  1703  1  0.57223300  0.92267400  0.65784300  1
  H  1711  1  0.46262600  0.81616000  0.53945400  1
  H  1713  1  0.59503300  0.88221400  0.54497300  1
  H  1714  1  0.62201100  0.90960600  0.57470800  1
  H  1715  1  0.40951200  0.83127900  0.62180600  1
  H  1716  1  0.44236900  0.85675400  0.65244000  1
  H  1721  1  0.46217300  0.89359100  0.67753200  1
  H  1722  1  0.41207600  0.79896000  0.59537300  1
  H  1723  1  0.56530100  0.82726500  0.52301600  1
  H  1724  1  0.61838500  0.94217000  0.60012100  1
  H  1733  1  0.25240400  0.34655800  0.90080300  1
  H  1741  1  0.36078500  0.46541200  0.79457800  1
  H  1743  1  0.22917200  0.45960900  0.86096000  1
  H  1744  1  0.20281300  0.42973600  0.88839400  1
  H  1745  1  0.41406700  0.38300700  0.80923700  1
  H  1746  1  0.38131800  0.35223400  0.83455800  1
  H  1751  1  0.36193000  0.32697700  0.87118500  1
  H  1752  1  0.41153300  0.40963200  0.77711000  1
  H  1753  1  0.25837700  0.48189500  0.80577900  1
  H  1754  1  0.21021200  0.40405500  0.92135600  1
  H  1763  1  0.25226400  0.67936300  0.08246000  1
  H  1771  1  0.36097300  0.56049900  0.18860800  1
  H  1773  1  0.22912600  0.56631000  0.12232300  1
  H  1774  1  0.20260000  0.59618600  0.09493700  1
  H  1775  1  0.41430200  0.64288400  0.17389100  1
  H  1776  1  0.38147600  0.67366300  0.14859200  1
  H  1781  1  0.36195200  0.69891100  0.11195100  1
  H  1782  1  0.41173400  0.61628300  0.20604700  1
  H  1783  1  0.25862000  0.54401500  0.17746900  1
  H  1784  1  0.20941400  0.62184400  0.06204400  1
  H  1793  1  0.00270372  0.42235400  0.32469900  1
  H  1801  1  0.10940970  0.31587300  0.44358400  1
  H  1803  1  0.97914800  0.38266800  0.43776300  1
  H  1804  1  0.95337000  0.41022200  0.40787900  1
  H  1805  1  0.16280370  0.33025600  0.36107400  1
  H  1806  1  0.13029270  0.35559500  0.33028700  1
  H  1811  1  0.11140170  0.39212600  0.30496900  1
  H  1812  1  0.16253970  0.29862100  0.38775100  1
  H  1813  1  0.00705372  0.32734200  0.46002000  1
  H  1814  1  0.96319200  0.44339600  0.38207100  1
  H  1823  1  0.00243572  0.60373900  0.65845100  1
  H  1831  1  0.10924770  0.71023400  0.53958400  1
  H  1833  1  0.97850700  0.64360200  0.54546000  1
  H  1834  1  0.95269600  0.61604800  0.57532000  1
  H  1835  1  0.16275270  0.69575200  0.62207000  1
  H  1836  1  0.13026270  0.67039400  0.65284200  1
  H  1841  1  0.11123870  0.63389300  0.67816200  1
  H  1842  1  0.16258570  0.72740400  0.59544000  1
  H  1843  1  0.00693972  0.69880600  0.52308700  1
  H  1844  1  0.96186200  0.58292900  0.60099400  1
  H  1853  1  0.32434800  0.18048300  0.89922000  1
  H  1861  1  0.20459800  0.05849300  0.79875300  1
  H  1863  1  0.31977600  0.06372900  0.87054200  1
  H  1864  1  0.35201400  0.09464800  0.89543000  1
  H  1865  1  0.17549170  0.14411900  0.80371100  1
  H  1866  1  0.20988400  0.17519200  0.82816300  1
  H  1871  1  0.21977000  0.19996300  0.86504000  1
  H  1872  1  0.17131770  0.11437100  0.77465500  1
  H  1873  1  0.24099400  0.02922300  0.82990100  1
  H  1874  1  0.34937000  0.12426800  0.92492000  1
  H  1883  1  0.32441600  0.84545900  0.08395400  1
  H  1891  1  0.20484600  0.96746900  0.18442500  1
  H  1893  1  0.31993000  0.96221600  0.11260600  1
  H  1894  1  0.35213400  0.93128800  0.08772400  1
  H  1895  1  0.17558170  0.88185900  0.17945100  1
  H  1896  1  0.20999400  0.85077300  0.15501700  1
  H  1901  1  0.21987000  0.82600300  0.11810800  1
  H  1902  1  0.17147170  0.91161800  0.20851000  1
  H  1903  1  0.24140000  0.99675700  0.15341000  1
  H  1904  1  0.34929800  0.90165000  0.05822600  1
  H  1913  1  0.07505770  0.60545200  0.82475900  1
  H  1921  1  0.95278000  0.70617400  0.94609900  1
  H  1923  1  0.07133970  0.63520300  0.94122300  1
  H  1924  1  0.10481170  0.61059400  0.91053300  1
  H  1925  1  0.92108900  0.69955800  0.86076800  1
  H  1926  1  0.95585200  0.67501900  0.82986500  1
  H  1931  1  0.96817000  0.63819800  0.80522700  1
  H  1932  1  0.91692600  0.72910100  0.88984300  1
  H  1933  1  0.99105800  0.67664100  0.97576200  1
  H  1934  1  0.10896770  0.58160500  0.88184500  1
  H  1943  1  0.07504970  0.42046300  0.15840300  1
  H  1951  1  0.95246000  0.32002900  0.03687900  1
  H  1953  1  0.07040170  0.39112600  0.04183300  1
  H  1954  1  0.10392570  0.41570500  0.07255000  1
  H  1955  1  0.92169200  0.32620200  0.12231800  1
  H  1956  1  0.95656000  0.35067300  0.15325300  1
  H  1961  1  0.96841400  0.38750700  0.17791800  1
  H  1962  1  0.91716800  0.29683800  0.09308900  1
  H  1963  1  0.99049900  0.34994400  0.00729700  1
  H  1964  1  0.10835070  0.44456900  0.10138600  1
  H  1973  1  0.75185100  0.84666100  0.40099500  1
  H  1981  1  0.86289000  0.96508300  0.29479000  1
  H  1983  1  0.72927300  0.95944200  0.36035200  1
  H  1984  1  0.70214400  0.92975000  0.38774400  1
  H  1985  1  0.91604000  0.88267000  0.31011500  1
  H  1986  1  0.88264200  0.85204600  0.33541100  1
  H  1991  1  0.86206400  0.82686800  0.37188400  1
  H  1992  1  0.91728200  0.90894200  0.27841400  1
  H  1993  1  0.76020800  0.98160000  0.30552700  1
  H  1994  1  0.70590700  0.90447500  0.42041400  1
  H  2003  1  0.75179100  0.17932700  0.58212800  1
  H  2011  1  0.86290600  0.06089600  0.68829700  1
  H  2013  1  0.72944300  0.06650400  0.62269300  1
  H  2014  1  0.70222600  0.09621300  0.59532600  1
  H  2015  1  0.91597600  0.14332200  0.67301300  1
  H  2016  1  0.88252400  0.17395400  0.64773500  1
  H  2021  1  0.86195800  0.19912300  0.61125300  1
  H  2022  1  0.91719200  0.11703200  0.70471100  1
  H  2023  1  0.76016100  0.04441900  0.67752500  1
  H  2024  1  0.70603100  0.12152800  0.56266700  1
  H  2033  1  0.49904900  0.92066300  0.82419600  1
  H  2041  1  0.61968800  0.82020300  0.94602900  1
  H  2043  1  0.50363100  0.89170200  0.94086500  1
  H  2044  1  0.47126300  0.91661000  0.91000300  1
  H  2045  1  0.64915600  0.82547600  0.86037000  1
  H  2046  1  0.61434700  0.84984800  0.82936100  1
  H  2051  1  0.60382800  0.88661600  0.80461100  1
  H  2052  1  0.65649500  0.79684100  0.88975200  1
  H  2053  1  0.58260000  0.85104500  0.97533100  1
  H  2054  1  0.47395000  0.94619700  0.88049900  1
  H  2063  1  0.49905800  0.10538500  0.15893800  1
  H  2071  1  0.61975200  0.20581200  0.03708500  1
  H  2073  1  0.50356900  0.13434800  0.04227200  1
  H  2074  1  0.47116600  0.10946000  0.07313600  1
  H  2075  1  0.64934800  0.20050800  0.12273900  1
  H  2076  1  0.61451900  0.17614700  0.15375000  1
  H  2081  1  0.60389800  0.13937700  0.17851200  1
  H  2082  1  0.65678200  0.22912800  0.09337200  1
  H  2083  1  0.58249800  0.17504400  0.00777500  1
  H  2084  1  0.47375000  0.07988600  0.10259700  1
  H  2093  1  0.82561800  0.68017200  0.39919800  1
  H  2101  1  0.70356300  0.55844600  0.29890400  1
  H  2103  1  0.82064200  0.56352100  0.37013300  1
  H  2104  1  0.85382800  0.59428500  0.39479800  1
  H  2105  1  0.67390600  0.64406500  0.30446800  1
  H  2106  1  0.70873300  0.67501900  0.32889400  1
  H  2111  1  0.71978400  0.69972800  0.36556500  1
  H  2112  1  0.66679500  0.61482800  0.27567900  1
  H  2113  1  0.74050900  0.52906400  0.32946500  1
  H  2114  1  0.85700600  0.62326700  0.42372400  1
  H  2123  1  0.82567800  0.34585300  0.58395500  1
  H  2131  1  0.70378900  0.46747100  0.68441700  1
  H  2133  1  0.82093200  0.46245500  0.61318400  1
  H  2134  1  0.85413200  0.43171700  0.58850500  1
  H  2135  1  0.67366900  0.38189900  0.67861500  1
  H  2136  1  0.70849200  0.35096500  0.65416000  1
  H  2141  1  0.71967400  0.32631600  0.61735900  1
  H  2142  1  0.66667833  0.41106400  0.70748300  1
  H  2143  1  0.74107600  0.49692000  0.65409800  1
  H  2144  1  0.85737400  0.40278700  0.55954300  1
  H  2151  1  0.31838000  0.24858600  0.37831700  1
  H  2162  1  0.31827200  0.77747200  0.60481400  1
  H  2173  1  0.50772900  0.40009600  0.75682800  1
  H  2184  1  0.50809900  0.62578800  0.22624000  1
  H  2195  1  0.07568570  0.12600700  0.75361600  1
  H  2206  1  0.07575770  0.89997000  0.22951900  1
  H  2217  1  0.81757000  0.74834200  0.87860400  1
  H  2228  1  0.81799800  0.27754100  0.10442700  1
  H  2239  1  0.63884700  0.11974000  0.52716800  1
  H  2250  1  0.63855700  0.90624200  0.45588100  1
  H  2261  1  0.18051170  0.54775200  0.88461700  1
  H  2272  1  0.18030270  0.47828600  0.09857900  1
  H  2283  1  0.92795000  0.40583600  0.52547100  1
  H  2294  1  0.92719800  0.62025100  0.45790500  1
  H  2305  1  0.42948100  0.98626200  0.88024400  1
  H  2316  1  0.42796600  0.04007200  0.10249000  1
  H  2327  1  0.15712570  0.62087700  0.02314000  1
  H  2338  1  0.16047970  0.40471700  0.96078600  1
  H  2349  1  0.68550500  0.04831500  0.38470700  1
  H  2360  1  0.68553500  0.97765600  0.59841400  1
  H  2371  1  0.39439800  0.90150700  0.01830500  1
  H  2382  1  0.39457400  0.12442100  0.96483100  1
  H  2393  1  0.92180200  0.48440300  0.38152600  1
  H  2404  1  0.91663800  0.54263000  0.60077700  1
  H  2415  1  0.45600700  0.11988300  0.26257000  1
  H  2426  1  0.45611000  0.90619500  0.72054200  1
  H  2437  1  0.36793600  0.28403600  0.88412600  1
  H  2448  1  0.36809900  0.74188300  0.09911600  1
  H  2459  1  0.11796370  0.40496500  0.26201200  1
  H  2470  1  0.11791170  0.62111600  0.72111600  1
  H  2481  1  0.86832000  0.78384800  0.38442700  1
  H  2492  1  0.86855400  0.24216000  0.59892800  1
  N  482  1  0.87978500  0.27202900  0.39646200  1
  N  485  1  0.92255800  0.25323400  0.43741900  1
  N  489  1  0.85195800  0.28341500  0.47966600  1
  N  490  1  0.81886400  0.29912100  0.41860400  1
  N  491  1  0.98350400  0.22624900  0.41781800  1
  N  493  1  0.87967400  0.75402900  0.58667300  1
  N  496  1  0.92247200  0.77280400  0.54571300  1
  N  500  1  0.85186200  0.74262300  0.50347100  1
  N  501  1  0.81868400  0.72695500  0.56453700  1
  N  502  1  0.98347000  0.79977500  0.56530900  1
  N  504  1  0.17621800  0.41815800  0.73285800  1
  N  507  1  0.13119800  0.45915100  0.75063000  1
  N  511  1  0.19934300  0.50128400  0.71927600  1
  N  512  1  0.23521100  0.44018700  0.70494800  1
  N  513  1  0.07138800  0.43961700  0.77814800  1
  N  515  1  0.17641400  0.60774200  0.25029000  1
  N  518  1  0.13109200  0.56674400  0.23266400  1
  N  522  1  0.19893800  0.52463500  0.26417100  1
  N  523  1  0.23520400  0.58574200  0.27828500  1
  N  524  1  0.07148600  0.58626900  0.20506000  1
  N  526  1  0.63509800  0.10790100  0.73097000  1
  N  529  1  0.67254600  0.06707700  0.75197900  1
  N  533  1  0.59715100  0.02493700  0.72381400  1
  N  534  1  0.57154800  0.08575800  0.70498300  1
  N  535  1  0.73509100  0.08676400  0.77823300  1
  N  537  1  0.63516000  0.91807700  0.25216000  1
  N  540  1  0.67266600  0.95890100  0.23116900  1
  N  544  1  0.59727000  0.00104500  0.25932300  1
  N  545  1  0.57158600  0.94022500  0.27813800  1
  N  546  1  0.73521000  0.93921300  0.20491500  1
  N  548  1  0.37942700  0.77209800  0.89664200  1
  N  551  1  0.42257200  0.75359400  0.93767600  1
  N  555  1  0.35288200  0.78432900  0.97980000  1
  N  556  1  0.31955300  0.79966200  0.91868300  1
  N  557  1  0.48258400  0.72618200  0.91810200  1
  N  559  1  0.37968800  0.25384600  0.08639800  1
  N  562  1  0.42240100  0.27250700  0.04535300  1
  N  566  1  0.35236400  0.24188300  0.00324700  1
  N  567  1  0.31960600  0.22635600  0.06437100  1
  N  568  1  0.48253800  0.29987200  0.06493000  1
  N  570  1  0.21421000  0.14238000  0.50266900  1
  N  573  1  0.24883200  0.17918000  0.53055400  1
  N  577  1  0.19797200  0.22726500  0.50317600  1
  N  578  1  0.16968100  0.16626800  0.47424800  1
  N  579  1  0.29537900  0.15487600  0.55807700  1
  N  581  1  0.21411300  0.88358500  0.48042300  1
  N  584  1  0.24920100  0.84678400  0.45265000  1
  N  588  1  0.19894200  0.79865900  0.48013100  1
  N  589  1  0.16982300  0.85969100  0.50890500  1
  N  590  1  0.29552800  0.87110200  0.42507700  1
  N  592  1  0.83781100  0.52364800  0.86210400  1
  N  595  1  0.80732600  0.55254700  0.82542000  1
  N  599  1  0.86267500  0.52602900  0.77766200  1
  N  600  1  0.88442000  0.49571800  0.83833500  1
  N  601  1  0.75925000  0.57975600  0.84968300  1
  N  603  1  0.83770800  0.50233800  0.12110800  1
  N  606  1  0.80722000  0.47340500  0.15776600  1
  N  610  1  0.86279000  0.49982800  0.20553500  1
  N  611  1  0.88445000  0.53020400  0.14488900  1
  N  612  1  0.75907700  0.44624000  0.13346900  1
  N  614  1  0.58623600  0.38348900  0.50153900  1
  N  617  1  0.55857800  0.34685300  0.53102500  1
  N  621  1  0.61699100  0.29945200  0.50492700  1
  N  622  1  0.63401200  0.35984600  0.47385000  1
  N  623  1  0.50950400  0.37095900  0.55806800  1
  N  625  1  0.58573400  0.64260000  0.48175600  1
  N  628  1  0.55869800  0.67916900  0.45208200  1
  N  632  1  0.61778600  0.72653000  0.47799100  1
  N  633  1  0.63375500  0.66625000  0.50935600  1
  N  634  1  0.50935400  0.65506100  0.42512900  1
  N  636  1  0.99290600  0.00836900  0.85976000  1
  N  639  1  0.98620400  0.97171200  0.82804100  1
  N  643  1  0.90807600  0.99553300  0.78401100  1
  N  644  1  0.93813800  0.03429100  0.83658100  1
  N  645  1  0.04630600  0.94675700  0.85002200  1
  N  647  1  0.99225000  0.01777600  0.12315900  1
  N  650  1  0.98733200  0.05406100  0.15536600  1
  N  654  1  0.91102600  0.02979600  0.19974200  1
  N  655  1  0.93843000  0.99164900  0.14653700  1
  N  656  1  0.04648000  0.07922500  0.13316500  1
  N  658  1  0.73005800  0.64305800  0.99904800  1
  N  661  1  0.74557900  0.67884900  0.03121200  1
  N  665  1  0.69007000  0.72606800  0.00246500  1
  N  666  1  0.68713200  0.66818700  0.97076500  1
  N  667  1  0.79594800  0.65491100  0.05807600  1
  N  669  1  0.73177000  0.38274600  0.98452400  1
  N  672  1  0.74398200  0.34735400  0.95166500  1
  N  676  1  0.68459800  0.30048600  0.97959000  1
  N  677  1  0.68691600  0.35783100  0.01239600  1
  N  678  1  0.79602000  0.37107100  0.92515700  1
  N  680  1  0.34123100  0.02389000  0.36201400  1
  N  683  1  0.30650600  0.05182400  0.32527800  1
  N  687  1  0.35727800  0.02455700  0.27712300  1
  N  688  1  0.38576400  0.99550600  0.33809100  1
  N  689  1  0.25983700  0.07927100  0.34964500  1
  N  691  1  0.34133300  0.00207400  0.62109100  1
  N  694  1  0.30670700  0.97413100  0.65784100  1
  N  698  1  0.35770500  0.00139100  0.70596800  1
  N  699  1  0.38594700  0.03044200  0.64499900  1
  N  700  1  0.25996200  0.94669500  0.63348700  1
  N  702  1  0.06182600  0.88097000  0.99618200  1
  N  705  1  0.06805500  0.84915100  0.03276700  1
  N  709  1  0.14611300  0.80510000  0.00890900  1
  N  710  1  0.11651100  0.85777100  0.97024100  1
  N  711  1  0.00817600  0.87122500  0.05776300  1
  N  713  1  0.06183000  0.14501900  0.98697000  1
  N  716  1  0.06787200  0.17685600  0.95039200  1
  N  720  1  0.14566700  0.22098500  0.97425200  1
  N  721  1  0.11645500  0.16825800  0.01290500  1
  N  722  1  0.00808200  0.15473800  0.92539900  1
  N  724  1  0.48816000  0.50721900  0.36050500  1
  N  727  1  0.48825000  0.47206100  0.32700200  1
  N  731  1  0.41727700  0.49764300  0.28176700  1
  N  732  1  0.43742800  0.53400500  0.33659300  1
  N  733  1  0.54568400  0.44653900  0.34955200  1
  N  735  1  0.48555400  0.51928400  0.62226800  1
  N  738  1  0.49130000  0.55330400  0.65685200  1
  N  742  1  0.42611900  0.52644400  0.70293300  1
  N  743  1  0.43781200  0.49190600  0.64668500  1
  N  744  1  0.54588500  0.57939900  0.63373100  1
  N  746  1  0.10560300  0.13002300  0.22968200  1
  N  749  1  0.19041100  0.15104200  0.25483600  1
  N  753  1  0.27035500  0.17550700  0.21225100  1
  N  754  1  0.14173400  0.13998700  0.19273100  1
  N  755  1  0.15434400  0.13896300  0.29163900  1
  N  757  1  0.10560700  0.89601900  0.75343500  1
  N  760  1  0.19034100  0.87492400  0.72830300  1
  N  764  1  0.27016300  0.85042500  0.77091200  1
  N  765  1  0.14166800  0.88604400  0.79039500  1
  N  766  1  0.15435900  0.88703600  0.69149300  1
  N  768  1  0.94923400  0.25112600  0.87413100  1
  N  771  1  0.86431200  0.27623400  0.85312900  1
  N  775  1  0.78401200  0.23361100  0.82896300  1
  N  776  1  0.91296200  0.21417200  0.86438200  1
  N  777  1  0.90051400  0.31304000  0.86509400  1
  N  779  1  0.94934400  0.77479600  0.10906600  1
  N  782  1  0.86432400  0.74969600  0.12999900  1
  N  786  1  0.78387000  0.79231300  0.15406700  1
  N  787  1  0.91303100  0.81176000  0.11878500  1
  N  788  1  0.90059900  0.71288300  0.11811800  1
  N  790  1  0.69848200  0.39541900  0.22911500  1
  N  793  1  0.61253000  0.37524800  0.25426200  1
  N  797  1  0.53063400  0.35201000  0.21167100  1
  N  798  1  0.66151200  0.38606900  0.19216300  1
  N  799  1  0.64968200  0.38668300  0.29107600  1
  N  801  1  0.69831200  0.63056300  0.75401800  1
  N  804  1  0.61222800  0.65064900  0.72888000  1
  N  808  1  0.53013000  0.67372100  0.77149700  1
  N  809  1  0.66125500  0.63984100  0.79097100  1
  N  810  1  0.64952200  0.63933000  0.69206100  1
  N  812  1  0.44936400  0.75095800  0.37452000  1
  N  815  1  0.36426100  0.77611400  0.35373900  1
  N  819  1  0.28353000  0.73352600  0.32975200  1
  N  820  1  0.41288800  0.71399100  0.36482900  1
  N  821  1  0.40076400  0.81294000  0.36555900  1
  N  823  1  0.44936800  0.27504400  0.60870400  1
  N  826  1  0.36386500  0.24988100  0.62917900  1
  N  830  1  0.28260000  0.29245200  0.65286000  1
  N  831  1  0.41273400  0.31200600  0.61831100  1
  N  832  1  0.40063500  0.21305800  0.61752400  1
  N  2146  1  0.26428100  0.27202900  0.39646200  1
  N  2149  1  0.30705400  0.25323400  0.43741900  1
  N  2153  1  0.23645400  0.28341500  0.47966600  1
  N  2154  1  0.20336000  0.29912100  0.41860400  1
  N  2155  1  0.36800000  0.22624900  0.41781800  1
  N  2157  1  0.26417000  0.75402900  0.58667300  1
  N  2160  1  0.30696800  0.77280400  0.54571300  1
  N  2164  1  0.23635800  0.74262300  0.50347100  1
  N  2165  1  0.20318000  0.72695500  0.56453700  1
  N  2166  1  0.36796600  0.79977500  0.56530900  1
  N  2168  1  0.56071400  0.41815800  0.73285800  1
  N  2171  1  0.51569400  0.45915100  0.75063000  1
  N  2175  1  0.58383900  0.50128400  0.71927600  1
  N  2176  1  0.61970700  0.44018700  0.70494800  1
  N  2177  1  0.45588400  0.43961700  0.77814800  1
  N  2179  1  0.56091000  0.60774200  0.25029000  1
  N  2182  1  0.51558800  0.56674400  0.23266400  1
  N  2186  1  0.58343400  0.52463500  0.26417100  1
  N  2187  1  0.61970000  0.58574200  0.27828500  1
  N  2188  1  0.45598200  0.58626900  0.20506000  1
  N  2190  1  0.01959372  0.10790100  0.73097000  1
  N  2193  1  0.05704170  0.06707700  0.75197900  1
  N  2197  1  0.98164700  0.02493700  0.72381400  1
  N  2198  1  0.95604400  0.08575800  0.70498300  1
  N  2199  1  0.11958670  0.08676400  0.77823300  1
  N  2201  1  0.01965572  0.91807700  0.25216000  1
  N  2204  1  0.05716170  0.95890100  0.23116900  1
  N  2208  1  0.98176600  0.00104500  0.25932300  1
  N  2209  1  0.95608200  0.94022500  0.27813800  1
  N  2210  1  0.11970570  0.93921300  0.20491500  1
  N  2212  1  0.76392300  0.77209800  0.89664200  1
  N  2215  1  0.80706800  0.75359400  0.93767600  1
  N  2219  1  0.73737800  0.78432900  0.97980000  1
  N  2220  1  0.70404900  0.79966200  0.91868300  1
  N  2221  1  0.86708000  0.72618200  0.91810200  1
  N  2223  1  0.76418400  0.25384600  0.08639800  1
  N  2226  1  0.80689700  0.27250700  0.04535300  1
  N  2230  1  0.73686000  0.24188300  0.00324700  1
  N  2231  1  0.70410200  0.22635600  0.06437100  1
  N  2232  1  0.86703400  0.29987200  0.06493000  1
  N  2234  1  0.59870600  0.14238000  0.50266900  1
  N  2237  1  0.63332800  0.17918000  0.53055400  1
  N  2241  1  0.58246800  0.22726500  0.50317600  1
  N  2242  1  0.55417700  0.16626800  0.47424800  1
  N  2243  1  0.67987500  0.15487600  0.55807700  1
  N  2245  1  0.59860900  0.88358500  0.48042300  1
  N  2248  1  0.63369700  0.84678400  0.45265000  1
  N  2252  1  0.58343800  0.79865900  0.48013100  1
  N  2253  1  0.55431900  0.85969100  0.50890500  1
  N  2254  1  0.68002400  0.87110200  0.42507700  1
  N  2256  1  0.22230700  0.52364800  0.86210400  1
  N  2259  1  0.19182170  0.55254700  0.82542000  1
  N  2263  1  0.24717100  0.52602900  0.77766200  1
  N  2264  1  0.26891600  0.49571800  0.83833500  1
  N  2265  1  0.14374570  0.57975600  0.84968300  1
  N  2267  1  0.22220400  0.50233800  0.12110800  1
  N  2270  1  0.19171570  0.47340500  0.15776600  1
  N  2274  1  0.24728600  0.49982800  0.20553500  1
  N  2275  1  0.26894600  0.53020400  0.14488900  1
  N  2276  1  0.14357270  0.44624000  0.13346900  1
  N  2278  1  0.97073200  0.38348900  0.50153900  1
  N  2281  1  0.94307400  0.34685300  0.53102500  1
  N  2285  1  0.00148672  0.29945200  0.50492700  1
  N  2286  1  0.01850772  0.35984600  0.47385000  1
  N  2287  1  0.89400000  0.37095900  0.55806800  1
  N  2289  1  0.97023000  0.64260000  0.48175600  1
  N  2292  1  0.94319400  0.67916900  0.45208200  1
  N  2296  1  0.00228172  0.72653000  0.47799100  1
  N  2297  1  0.01825072  0.66625000  0.50935600  1
  N  2298  1  0.89385000  0.65506100  0.42512900  1
  N  2300  1  0.37740200  0.00836900  0.85976000  1
  N  2303  1  0.37070000  0.97171200  0.82804100  1
  N  2307  1  0.29257200  0.99553300  0.78401100  1
  N  2308  1  0.32263400  0.03429100  0.83658100  1
  N  2309  1  0.43080200  0.94675700  0.85002200  1
  N  2311  1  0.37674600  0.01777600  0.12315900  1
  N  2314  1  0.37182800  0.05406100  0.15536600  1
  N  2318  1  0.29552200  0.02979600  0.19974200  1
  N  2319  1  0.32292600  0.99164900  0.14653700  1
  N  2320  1  0.43097600  0.07922500  0.13316500  1
  N  2322  1  0.11455370  0.64305800  0.99904800  1
  N  2325  1  0.13007470  0.67884900  0.03121200  1
  N  2329  1  0.07456570  0.72606800  0.00246500  1
  N  2330  1  0.07162770  0.66818700  0.97076500  1
  N  2331  1  0.18044370  0.65491100  0.05807600  1
  N  2333  1  0.11626570  0.38274600  0.98452400  1
  N  2336  1  0.12847770  0.34735400  0.95166500  1
  N  2340  1  0.06909370  0.30048600  0.97959000  1
  N  2341  1  0.07141170  0.35783100  0.01239600  1
  N  2342  1  0.18051570  0.37107100  0.92515700  1
  N  2344  1  0.72572700  0.02389000  0.36201400  1
  N  2347  1  0.69100200  0.05182400  0.32527800  1
  N  2351  1  0.74177400  0.02455700  0.27712300  1
  N  2352  1  0.77026000  0.99550600  0.33809100  1
  N  2353  1  0.64433300  0.07927100  0.34964500  1
  N  2355  1  0.72582900  0.00207400  0.62109100  1
  N  2358  1  0.69120300  0.97413100  0.65784100  1
  N  2362  1  0.74220100  0.00139100  0.70596800  1
  N  2363  1  0.77044300  0.03044200  0.64499900  1
  N  2364  1  0.64445800  0.94669500  0.63348700  1
  N  2366  1  0.44632200  0.88097000  0.99618200  1
  N  2369  1  0.45255100  0.84915100  0.03276700  1
  N  2373  1  0.53060900  0.80510000  0.00890900  1
  N  2374  1  0.50100700  0.85777100  0.97024100  1
  N  2375  1  0.39267200  0.87122500  0.05776300  1
  N  2377  1  0.44632600  0.14501900  0.98697000  1
  N  2380  1  0.45236800  0.17685600  0.95039200  1
  N  2384  1  0.53016300  0.22098500  0.97425200  1
  N  2385  1  0.50095100  0.16825800  0.01290500  1
  N  2386  1  0.39257800  0.15473800  0.92539900  1
  N  2388  1  0.87265600  0.50721900  0.36050500  1
  N  2391  1  0.87274600  0.47206100  0.32700200  1
  N  2395  1  0.80177300  0.49764300  0.28176700  1
  N  2396  1  0.82192400  0.53400500  0.33659300  1
  N  2397  1  0.93018000  0.44653900  0.34955200  1
  N  2399  1  0.87005000  0.51928400  0.62226800  1
  N  2402  1  0.87579600  0.55330400  0.65685200  1
  N  2406  1  0.81061500  0.52644400  0.70293300  1
  N  2407  1  0.82230800  0.49190600  0.64668500  1
  N  2408  1  0.93038100  0.57939900  0.63373100  1
  N  2410  1  0.49009900  0.13002300  0.22968200  1
  N  2413  1  0.57490700  0.15104200  0.25483600  1
  N  2417  1  0.65485100  0.17550700  0.21225100  1
  N  2418  1  0.52623000  0.13998700  0.19273100  1
  N  2419  1  0.53884000  0.13896300  0.29163900  1
  N  2421  1  0.49010300  0.89601900  0.75343500  1
  N  2424  1  0.57483700  0.87492400  0.72830300  1
  N  2428  1  0.65465900  0.85042500  0.77091200  1
  N  2429  1  0.52616400  0.88604400  0.79039500  1
  N  2430  1  0.53885500  0.88703600  0.69149300  1
  N  2432  1  0.33373000  0.25112600  0.87413100  1
  N  2435  1  0.24880800  0.27623400  0.85312900  1
  N  2439  1  0.16850770  0.23361100  0.82896300  1
  N  2440  1  0.29745800  0.21417200  0.86438200  1
  N  2441  1  0.28501000  0.31304000  0.86509400  1
  N  2443  1  0.33384000  0.77479600  0.10906600  1
  N  2446  1  0.24882000  0.74969600  0.12999900  1
  N  2450  1  0.16836570  0.79231300  0.15406700  1
  N  2451  1  0.29752700  0.81176000  0.11878500  1
  N  2452  1  0.28509500  0.71288300  0.11811800  1
  N  2454  1  0.08297770  0.39541900  0.22911500  1
  N  2457  1  0.99702600  0.37524800  0.25426200  1
  N  2461  1  0.91513000  0.35201000  0.21167100  1
  N  2462  1  0.04600770  0.38606900  0.19216300  1
  N  2463  1  0.03417770  0.38668300  0.29107600  1
  N  2465  1  0.08280770  0.63056300  0.75401800  1
  N  2468  1  0.99672400  0.65064900  0.72888000  1
  N  2472  1  0.91462600  0.67372100  0.77149700  1
  N  2473  1  0.04575070  0.63984100  0.79097100  1
  N  2474  1  0.03401770  0.63933000  0.69206100  1
  N  2476  1  0.83386000  0.75095800  0.37452000  1
  N  2479  1  0.74875700  0.77611400  0.35373900  1
  N  2483  1  0.66802600  0.73352600  0.32975200  1
  N  2484  1  0.79738400  0.71399100  0.36482900  1
  N  2485  1  0.78526000  0.81294000  0.36555900  1
  N  2487  1  0.83386400  0.27504400  0.60870400  1
  N  2490  1  0.74836100  0.24988100  0.62917900  1
  N  2494  1  0.66709600  0.29245200  0.65286000  1
  N  2495  1  0.79723000  0.31200600  0.61831100  1
  N  2496  1  0.78513100  0.21305800  0.61752400  1
