# generated using pymatgen
data_H32C39N8
_symmetry_space_group_name_H-M   'P 1'
_cell_length_a   29.17380000
_cell_length_b   46.91080000
_cell_length_c   46.91090000
_cell_angle_alpha   90.00000000
_cell_angle_beta   89.99980000
_cell_angle_gamma   90.00000000
_symmetry_Int_Tables_number   1
_chemical_formula_structural   H32C39N8
_chemical_formula_sum   'H1024 C1248 N256'
_cell_volume   64200.67670342
_cell_formula_units_Z   32
loop_
 _symmetry_equiv_pos_site_id
 _symmetry_equiv_pos_as_xyz
  1  'x, y, z'
loop_
 _atom_site_type_symbol
 _atom_site_label
 _atom_site_symmetry_multiplicity
 _atom_site_fract_x
 _atom_site_fract_y
 _atom_site_fract_z
 _atom_site_occupancy
  H  25  1  0.71972900  0.18993600  0.41200200  1
  H  26  1  0.72912100  0.14136500  0.42339200  1
  H  27  1  0.81701800  0.05551700  0.43316800  1
  H  28  1  0.87664400  0.02503700  0.41890500  1
  H  29  1  0.93851800  0.09154700  0.37267600  1
  H  30  1  0.85704100  0.19401200  0.38375500  1
  H  31  1  0.81612000  0.12088000  0.34538700  1
  H  32  1  0.89793000  0.13921000  0.27382100  1
  H  33  1  0.95630400  0.15700800  0.30326600  1
  H  34  1  0.89929400  0.13577300  0.44662500  1
  H  35  1  0.02879000  0.17159700  0.39278500  1
  H  36  1  0.03612600  0.16463100  0.44230800  1
  H  39  1  0.79729900  0.10826000  0.44249000  1
  H  40  1  0.77100800  0.09703600  0.41021800  1
  H  42  1  0.99168200  0.14795200  0.35101200  1
  H  43  1  0.96644000  0.18236000  0.35326300  1
  H  68  1  0.21962900  0.31814400  0.59486500  1
  H  69  1  0.23045500  0.36671700  0.58379500  1
  H  70  1  0.31844500  0.45287800  0.57920700  1
  H  71  1  0.37764800  0.48266700  0.59515200  1
  H  72  1  0.43828100  0.41426700  0.63941700  1
  H  73  1  0.35600800  0.31263800  0.62430100  1
  H  74  1  0.31970900  0.38832000  0.66493400  1
  H  75  1  0.37871400  0.34176700  0.73231900  1
  H  76  1  0.43853400  0.32669600  0.70254300  1
  H  77  1  0.40243700  0.37460800  0.56314300  1
  H  78  1  0.52747000  0.33300000  0.61684200  1
  H  79  1  0.53848000  0.34451500  0.56839700  1
  H  82  1  0.30016600  0.40047200  0.56688200  1
  H  83  1  0.27181600  0.41038100  0.59890400  1
  H  85  1  0.48594000  0.34763200  0.66070800  1
  H  86  1  0.45768900  0.31578400  0.65013900  1
  H  111  1  0.96799300  0.84321000  0.94167600  1
  H  112  1  0.97939700  0.83140900  0.89333900  1
  H  113  1  0.06860800  0.82527000  0.80775400  1
  H  114  1  0.12820600  0.84072900  0.77801400  1
  H  115  1  0.18737600  0.88668200  0.84577900  1
  H  116  1  0.10436000  0.87262100  0.94739900  1
  H  117  1  0.06913700  0.91250100  0.87127400  1
  H  118  1  0.12829100  0.98012300  0.91743200  1
  H  119  1  0.18770500  0.95029800  0.93298400  1
  H  120  1  0.15149400  0.81068200  0.88569900  1
  H  121  1  0.27645700  0.86455300  0.92717500  1
  H  122  1  0.28765100  0.81616100  0.91556400  1
  H  125  1  0.04960500  0.81394600  0.86020000  1
  H  126  1  0.02123500  0.84576000  0.84965900  1
  H  128  1  0.23497500  0.90830000  0.91259700  1
  H  129  1  0.20637700  0.89785200  0.94436500  1
  H  154  1  0.47170100  0.66157400  0.06836200  1
  H  155  1  0.47786400  0.66930400  0.11778000  1
  H  156  1  0.55052200  0.66065300  0.20787500  1
  H  157  1  0.60846400  0.64397300  0.23829500  1
  H  158  1  0.69058600  0.62195200  0.16797700  1
  H  159  1  0.60933500  0.63374900  0.06557300  1
  H  160  1  0.56552500  0.59208900  0.13722900  1
  H  161  1  0.64589500  0.52106900  0.11497900  1
  H  162  1  0.70507200  0.55103200  0.09900700  1
  H  163  1  0.64851400  0.69379900  0.12553200  1
  H  164  1  0.77966600  0.64071700  0.09081100  1
  H  165  1  0.78631300  0.69019200  0.09812700  1
  H  168  1  0.53949200  0.68268600  0.15663600  1
  H  169  1  0.51543600  0.64810200  0.16065800  1
  H  171  1  0.74114500  0.59806600  0.11215300  1
  H  172  1  0.71779600  0.60214600  0.07739000  1
  H  197  1  0.78806400  0.31701000  0.41585200  1
  H  198  1  0.78003300  0.36639500  0.42337900  1
  H  199  1  0.70707700  0.45582600  0.40894800  1
  H  200  1  0.64861000  0.48521800  0.39115700  1
  H  201  1  0.56758200  0.41351800  0.37204800  1
  H  202  1  0.65169500  0.31242700  0.38622400  1
  H  203  1  0.68980100  0.38675100  0.34263100  1
  H  204  1  0.62747800  0.34109800  0.27584700  1
  H  205  1  0.56854800  0.32614400  0.30652400  1
  H  206  1  0.60854300  0.37558100  0.44512300  1
  H  207  1  0.48099700  0.33535100  0.39261700  1
  H  208  1  0.47128300  0.34729300  0.44102600  1
  H  211  1  0.71715100  0.40563800  0.43410000  1
  H  212  1  0.74295500  0.40823800  0.39988200  1
  H  214  1  0.52269200  0.34823100  0.34830800  1
  H  215  1  0.54974000  0.31621000  0.35953500  1
  H  240  1  0.28686600  0.19020400  0.59610800  1
  H  241  1  0.27643000  0.14157100  0.58515300  1
  H  242  1  0.18795200  0.05570800  0.57892800  1
  H  243  1  0.12831300  0.02585500  0.59411900  1
  H  244  1  0.06828100  0.09349600  0.63981600  1
  H  245  1  0.15029900  0.19540300  0.62532100  1
  H  246  1  0.18732800  0.11928900  0.66559100  1
  H  247  1  0.12790500  0.16441000  0.73381400  1
  H  248  1  0.06777100  0.17963900  0.70437500  1
  H  249  1  0.10449300  0.13470900  0.56412600  1
  H  250  1  0.97872900  0.17436600  0.61869100  1
  H  251  1  0.96804400  0.16404200  0.56993500  1
  H  254  1  0.20710500  0.10803800  0.56776000  1
  H  255  1  0.23481800  0.09774000  0.59988100  1
  H  257  1  0.02058200  0.15892200  0.66225700  1
  H  258  1  0.04802600  0.19124800  0.65232100  1
  H  283  1  0.53948500  0.66500200  0.94184100  1
  H  284  1  0.53076800  0.67214500  0.89245400  1
  H  285  1  0.45626600  0.65775800  0.80354300  1
  H  286  1  0.39733000  0.63991400  0.77451600  1
  H  287  1  0.31820200  0.61983700  0.84679300  1
  H  288  1  0.40328700  0.63518100  0.94734900  1
  H  289  1  0.44095100  0.59115800  0.87318800  1
  H  290  1  0.37988600  0.52448200  0.91965700  1
  H  291  1  0.32069600  0.55497400  0.93453800  1
  H  292  1  0.35878800  0.69342200  0.88429600  1
  H  293  1  0.23168900  0.64033200  0.92435100  1
  H  294  1  0.22138400  0.68864700  0.91223900  1
  H  297  1  0.46724500  0.68264400  0.85360400  1
  H  298  1  0.49316200  0.64846200  0.85091500  1
  H  300  1  0.27415300  0.59623900  0.91197400  1
  H  301  1  0.30096000  0.60787400  0.94393000  1
  H  326  1  0.03486000  0.84728000  0.06897900  1
  H  327  1  0.02533900  0.83549300  0.11744000  1
  H  328  1  0.93733900  0.82522700  0.20319200  1
  H  329  1  0.87793600  0.83954400  0.23379600  1
  H  330  1  0.81600000  0.88600800  0.16743900  1
  H  331  1  0.89742600  0.87529600  0.06491500  1
  H  332  1  0.93814400  0.91335000  0.13834400  1
  H  333  1  0.85695800  0.98496600  0.11909600  1
  H  334  1  0.79873100  0.95551500  0.10115100  1
  H  335  1  0.85440500  0.81211100  0.12348900  1
  H  336  1  0.72615900  0.86616000  0.08632300  1
  H  337  1  0.71817300  0.81674900  0.09359800  1
  H  340  1  0.95689400  0.81605000  0.15033100  1
  H  341  1  0.98334600  0.84818800  0.16178500  1
  H  343  1  0.76299000  0.90788400  0.11008900  1
  H  344  1  0.78897600  0.90545400  0.07590700  1
  H  369  1  0.28456800  0.81524600  0.59778300  1
  H  370  1  0.27834700  0.86464000  0.59000200  1
  H  371  1  0.20576000  0.95471900  0.59859100  1
  H  372  1  0.14773400  0.98516900  0.61509100  1
  H  373  1  0.06540900  0.91489300  0.63695100  1
  H  374  1  0.14690600  0.81242200  0.62555300  1
  H  375  1  0.19034900  0.88426000  0.66727700  1
  H  376  1  0.10866000  0.86321000  0.73806800  1
  H  377  1  0.05019700  0.84657600  0.70800300  1
  H  378  1  0.10726600  0.87289800  0.56531800  1
  H  379  1  0.97681600  0.83702800  0.61828200  1
  H  380  1  0.96980300  0.84482200  0.56894600  1
  H  383  1  0.21681500  0.90347800  0.57658100  1
  H  384  1  0.24073400  0.90750700  0.61120200  1
  H  386  1  0.01474700  0.85855400  0.66084100  1
  H  387  1  0.03888100  0.82398000  0.65692500  1
  H  412  1  0.78816700  0.68708800  0.41748500  1
  H  413  1  0.77612500  0.63868400  0.42863200  1
  H  414  1  0.68695300  0.55314700  0.43256700  1
  H  415  1  0.62772500  0.52364000  0.41620600  1
  H  416  1  0.56864800  0.59232800  0.37156700  1
  H  417  1  0.65241200  0.69361100  0.38711700  1
  H  418  1  0.68750800  0.61804700  0.34654400  1
  H  419  1  0.62857200  0.66455000  0.27907600  1
  H  420  1  0.56896700  0.67983800  0.30887800  1
  H  421  1  0.60417000  0.63165600  0.44829900  1
  H  422  1  0.47965700  0.67343500  0.39427800  1
  H  423  1  0.46812900  0.66168300  0.44260100  1
  H  426  1  0.70547600  0.60546800  0.44509500  1
  H  427  1  0.73440300  0.59537000  0.41332800  1
  H  429  1  0.52149600  0.65906100  0.35057600  1
  H  430  1  0.54986400  0.69081000  0.36132000  1
  H  455  1  0.03820300  0.16299600  0.07072600  1
  H  456  1  0.02687300  0.17399700  0.11923100  1
  H  457  1  0.93824700  0.17891900  0.20492000  1
  H  458  1  0.87866600  0.16340100  0.23460200  1
  H  459  1  0.81882100  0.11829600  0.16647200  1
  H  460  1  0.90219800  0.13292400  0.06481600  1
  H  461  1  0.93754400  0.09236700  0.14079500  1
  H  462  1  0.87701700  0.02450600  0.09563600  1
  H  463  1  0.81803600  0.05451700  0.07986400  1
  H  464  1  0.85491900  0.19432400  0.12662800  1
  H  465  1  0.73012900  0.14045100  0.08498200  1
  H  466  1  0.71891000  0.18884200  0.09648400  1
  H  469  1  0.95705500  0.19074600  0.15264700  1
  H  470  1  0.98529300  0.15874500  0.16277100  1
  H  472  1  0.77140200  0.09675500  0.09979800  1
  H  473  1  0.80006800  0.10704200  0.06800100  1
  H  498  1  0.53370200  0.34376700  0.94327800  1
  H  499  1  0.52746700  0.33585400  0.89390300  1
  H  500  1  0.45526900  0.34484100  0.80376500  1
  H  501  1  0.39779900  0.36199700  0.77328300  1
  H  502  1  0.31541000  0.38404300  0.84346600  1
  H  503  1  0.39624000  0.37193300  0.94598300  1
  H  504  1  0.44049900  0.41330100  0.87414700  1
  H  505  1  0.36078300  0.48463600  0.89626600  1
  H  506  1  0.30157400  0.45492000  0.91262000  1
  H  507  1  0.35585100  0.31195600  0.88533000  1
  H  508  1  0.22604300  0.36566200  0.92098700  1
  H  509  1  0.21822700  0.31639800  0.91295300  1
  H  512  1  0.46565500  0.32255900  0.85503200  1
  H  513  1  0.49021100  0.35700500  0.85101100  1
  H  515  1  0.26496900  0.40812500  0.89997300  1
  H  516  1  0.28888400  0.40374000  0.93454700  1
  H  541  1  0.21679000  0.68868900  0.59454700  1
  H  542  1  0.22515900  0.63927400  0.58753200  1
  H  543  1  0.29857200  0.55019500  0.60265600  1
  H  544  1  0.35735500  0.52104400  0.62041900  1
  H  545  1  0.43806800  0.59303800  0.63892500  1
  H  546  1  0.35303300  0.69389900  0.62434400  1
  H  547  1  0.31567700  0.61957500  0.66849100  1
  H  548  1  0.37868300  0.66492500  0.73525200  1
  H  549  1  0.43709100  0.68018600  0.70436800  1
  H  550  1  0.39675000  0.63060500  0.56581600  1
  H  551  1  0.52422100  0.67101500  0.61824500  1
  H  552  1  0.53404800  0.65883700  0.56992600  1
  H  555  1  0.28807800  0.60013200  0.57721600  1
  H  556  1  0.26249000  0.59776600  0.61151800  1
  H  558  1  0.48258100  0.65837400  0.66251600  1
  H  559  1  0.45533700  0.69030500  0.65122200  1
  H  584  1  0.72170300  0.81396700  0.41353100  1
  H  585  1  0.72803400  0.86325700  0.42198900  1
  H  586  1  0.80122700  0.95339600  0.41472000  1
  H  587  1  0.85914200  0.98389200  0.39804400  1
  H  588  1  0.94071200  0.91366500  0.37502800  1
  H  589  1  0.85963500  0.81128800  0.38629800  1
  H  590  1  0.81606900  0.88350600  0.34530600  1
  H  591  1  0.89661400  0.86193700  0.27417100  1
  H  592  1  0.95535800  0.84517800  0.30402500  1
  H  593  1  0.89965100  0.87192200  0.44686600  1
  H  594  1  0.02977500  0.83604300  0.39360300  1
  H  595  1  0.03725300  0.84419700  0.44286200  1
  H  598  1  0.79010000  0.90183000  0.43620800  1
  H  599  1  0.76585600  0.90636800  0.40174500  1
  H  601  1  0.99143200  0.85721300  0.35107200  1
  H  602  1  0.96716300  0.82270100  0.35517700  1
  H  627  1  0.46646400  0.34071200  0.06976200  1
  H  628  1  0.47535200  0.33354500  0.11912600  1
  H  629  1  0.54998400  0.34825000  0.20791400  1
  H  630  1  0.60892400  0.36629300  0.23680500  1
  H  631  1  0.68831000  0.38551400  0.16441600  1
  H  632  1  0.60287400  0.37011300  0.06400000  1
  H  633  1  0.56559700  0.41427100  0.13803100  1
  H  634  1  0.62737200  0.48088700  0.09184900  1
  H  635  1  0.68632200  0.45022200  0.07690900  1
  H  636  1  0.64743800  0.31183600  0.12729000  1
  H  637  1  0.77463800  0.36460400  0.08696500  1
  H  638  1  0.78482500  0.31634700  0.09927700  1
  H  641  1  0.53902200  0.32295900  0.15794600  1
  H  642  1  0.51316700  0.35716700  0.16053500  1
  H  644  1  0.73246300  0.40877300  0.09928400  1
  H  645  1  0.70550000  0.39718700  0.06736200  1
  H  670  1  0.97118400  0.16034000  0.94387400  1
  H  671  1  0.97745700  0.16847600  0.89453300  1
  H  672  1  0.04967300  0.15942600  0.80432400  1
  H  673  1  0.10758600  0.14274800  0.77389400  1
  H  674  1  0.19047600  0.12172900  0.84416500  1
  H  675  1  0.10890200  0.13270800  0.94658300  1
  H  676  1  0.06642500  0.09104100  0.87435200  1
  H  677  1  0.14830900  0.02075400  0.89675800  1
  H  678  1  0.20597600  0.05118300  0.91378800  1
  H  679  1  0.14824900  0.19338300  0.88542800  1
  H  680  1  0.27872600  0.14121700  0.92239000  1
  H  681  1  0.28557600  0.19043200  0.91382400  1
  H  684  1  0.03908400  0.18195400  0.85559800  1
  H  685  1  0.01494800  0.14739100  0.85162400  1
  H  687  1  0.24131100  0.09825600  0.90162500  1
  H  688  1  0.21638000  0.10266000  0.93591800  1
  H  696  1  0.79001100  0.24165600  0.46456200  1
  H  697  1  0.81372100  0.21595900  0.44621600  1
  H  699  1  0.69844600  0.28875000  0.44921300  1
  H  700  1  0.72324900  0.26233000  0.46583200  1
  H  702  1  0.78452300  0.20744100  0.34389900  1
  H  703  1  0.75480500  0.23201200  0.32750000  1
  H  705  1  0.72322500  0.30206700  0.34654400  1
  H  706  1  0.75158300  0.27796100  0.32865900  1
  H  714  1  0.28561800  0.26370700  0.54443700  1
  H  715  1  0.31009600  0.28996300  0.56155300  1
  H  717  1  0.19453900  0.21736100  0.56258700  1
  H  718  1  0.21852400  0.24333800  0.54484500  1
  H  720  1  0.28428100  0.30183400  0.66408500  1
  H  721  1  0.25589300  0.27745800  0.68162700  1
  H  723  1  0.22332400  0.20697400  0.66505500  1
  H  724  1  0.25238300  0.23149400  0.68195800  1
  H  732  1  0.03192800  0.79358800  0.99727200  1
  H  733  1  0.05726200  0.81013500  0.97096500  1
  H  735  1  0.94039300  0.81316600  0.04268400  1
  H  736  1  0.96446200  0.79477400  0.01717000  1
  H  738  1  0.03345600  0.91264000  0.95730500  1
  H  739  1  0.00495000  0.93076100  0.98118000  1
  H  741  1  0.96983700  0.91538700  0.05143200  1
  H  742  1  0.99989800  0.93182500  0.02704100  1
  H  750  1  0.54170200  0.71450200  0.01727400  1
  H  751  1  0.56596100  0.69626300  0.04281900  1
  H  753  1  0.45001000  0.69844600  0.97033100  1
  H  754  1  0.47513600  0.71532100  0.99646400  1
  H  756  1  0.53822300  0.59378200  0.05167800  1
  H  757  1  0.50809000  0.57722700  0.02742400  1
  H  759  1  0.47506400  0.59575100  0.95755600  1
  H  760  1  0.50402500  0.57807100  0.98152000  1
  H  768  1  0.21475200  0.76380600  0.54501300  1
  H  769  1  0.19049600  0.78945900  0.56316500  1
  H  771  1  0.30655700  0.71705600  0.56113300  1
  H  772  1  0.28154500  0.74320100  0.54420300  1
  H  774  1  0.21835400  0.79862600  0.66557800  1
  H  775  1  0.24834300  0.77432000  0.68216400  1
  H  777  1  0.28084400  0.70432700  0.66378000  1
  H  778  1  0.25180800  0.72835800  0.68134100  1
  H  786  1  0.72460700  0.74264100  0.46711100  1
  H  787  1  0.69924500  0.71652900  0.45027700  1
  H  789  1  0.81636700  0.78821000  0.44825600  1
  H  790  1  0.79192700  0.76265900  0.46640500  1
  H  792  1  0.72419200  0.70344500  0.34777700  1
  H  793  1  0.75323500  0.72733700  0.33000200  1
  H  795  1  0.78839700  0.79738700  0.34584900  1
  H  796  1  0.75815000  0.77322200  0.32921800  1
  H  804  1  0.97316500  0.21305200  0.01583300  1
  H  805  1  0.94814300  0.19594600  0.04189500  1
  H  807  1  0.06500400  0.19480100  0.97006100  1
  H  808  1  0.04047100  0.21272900  0.99574600  1
  H  810  1  0.97446500  0.09349500  0.05434300  1
  H  811  1  0.00355200  0.07598500  0.03028000  1
  H  813  1  0.03765700  0.09239600  0.96012100  1
  H  814  1  0.00789500  0.07553500  0.98435000  1
  H  822  1  0.46328300  0.29115400  0.99450000  1
  H  823  1  0.43902500  0.30943200  0.96898200  1
  H  825  1  0.55549200  0.30696500  0.04113700  1
  H  826  1  0.53001700  0.29013500  0.01510600  1
  H  828  1  0.46766300  0.41177500  0.95983700  1
  H  829  1  0.49810200  0.42828000  0.98398500  1
  H  831  1  0.53145400  0.40976000  0.05380400  1
  H  832  1  0.50250300  0.42750700  0.02988100  1
  H  840  1  0.28932200  0.74111200  0.96469500  1
  H  841  1  0.31391800  0.71548700  0.94669700  1
  H  843  1  0.19707000  0.78728900  0.94835800  1
  H  844  1  0.22189200  0.76104600  0.96523900  1
  H  846  1  0.28759000  0.70645900  0.84415800  1
  H  847  1  0.25797500  0.73079300  0.82733700  1
  H  849  1  0.22361600  0.80050400  0.84602200  1
  H  850  1  0.25281100  0.77663900  0.82829900  1
  H  858  1  0.78343000  0.76184100  0.04382300  1
  H  859  1  0.80834600  0.78818900  0.06055700  1
  H  861  1  0.69242000  0.71571700  0.06299600  1
  H  862  1  0.71668200  0.74118700  0.04465400  1
  H  864  1  0.78294300  0.80176300  0.16300200  1
  H  865  1  0.75404700  0.77784600  0.18080800  1
  H  867  1  0.72063700  0.70743600  0.16559100  1
  H  868  1  0.75063000  0.73189500  0.18194400  1
  H  876  1  0.53951600  0.29522400  0.49337400  1
  H  877  1  0.56392100  0.31313900  0.46761900  1
  H  879  1  0.44764900  0.31184500  0.53977900  1
  H  880  1  0.47223600  0.29479300  0.51354400  1
  H  882  1  0.53767500  0.41565700  0.45841000  1
  H  883  1  0.50837100  0.43258000  0.48281800  1
  H  885  1  0.47479600  0.41414300  0.55275100  1
  H  886  1  0.50368500  0.43177900  0.52869400  1
  H  894  1  0.03551800  0.21552200  0.51663600  1
  H  895  1  0.05953000  0.19778600  0.54259400  1
  H  897  1  0.94481500  0.19864100  0.46938900  1
  H  898  1  0.96910700  0.21590500  0.49557900  1
  H  900  1  0.03153100  0.09521300  0.55290700  1
  H  901  1  0.00257200  0.07828100  0.52837800  1
  H  903  1  0.97091000  0.09594300  0.45804500  1
  H  904  1  0.99950400  0.07857900  0.48242500  1
  H  912  1  0.71703500  0.26358700  0.04713700  1
  H  913  1  0.69236900  0.28928900  0.06498900  1
  H  915  1  0.80940900  0.21760400  0.06373600  1
  H  916  1  0.78455400  0.24375400  0.04672600  1
  H  918  1  0.71865300  0.29887500  0.16748200  1
  H  919  1  0.74823000  0.27460600  0.18442700  1
  H  921  1  0.78244600  0.20477100  0.16610500  1
  H  922  1  0.75318700  0.22872500  0.18367000  1
  H  930  1  0.21697800  0.24351300  0.96512000  1
  H  931  1  0.19217400  0.21765100  0.94756100  1
  H  933  1  0.30959700  0.28925100  0.94790000  1
  H  934  1  0.28410300  0.26370700  0.96547100  1
  H  936  1  0.21912500  0.20615400  0.84538900  1
  H  937  1  0.24955100  0.22983200  0.82821100  1
  H  939  1  0.28495100  0.29957900  0.84511800  1
  H  940  1  0.25495100  0.27568900  0.82797000  1
  H  948  1  0.46584300  0.71087200  0.51748200  1
  H  949  1  0.44113600  0.69291600  0.54310000  1
  H  951  1  0.55852600  0.69438700  0.47164600  1
  H  952  1  0.53346200  0.71140000  0.49773300  1
  H  954  1  0.46755000  0.59047100  0.55245400  1
  H  955  1  0.49725500  0.57356900  0.52821000  1
  H  957  1  0.53180000  0.59206600  0.45845700  1
  H  958  1  0.50262600  0.57439200  0.48235800  1
  H  966  1  0.97116400  0.79214900  0.49593800  1
  H  967  1  0.94583300  0.80953600  0.47021000  1
  H  969  1  0.06266200  0.81036500  0.54221900  1
  H  970  1  0.03782500  0.79256300  0.51658700  1
  H  972  1  0.96983400  0.91219000  0.45915100  1
  H  973  1  0.99982000  0.92959900  0.48285100  1
  H  975  1  0.03601400  0.91284400  0.55245900  1
  H  976  1  0.00554600  0.92977900  0.52864800  1
  H  984  1  0.74984200  0.18258300  0.23803900  1
  H  985  1  0.76596200  0.16833500  0.20771300  1
  H  987  1  0.77724600  0.16452500  0.31088300  1
  H  988  1  0.76258200  0.18375400  0.28312400  1
  H  990  1  0.84011800  0.07974100  0.20103000  1
  H  991  1  0.85315700  0.06058400  0.22898700  1
  H  993  1  0.83625500  0.07237100  0.30406800  1
  H  994  1  0.84531400  0.05562900  0.27390700  1
  H  1002  1  0.26063000  0.32134600  0.77970400  1
  H  1003  1  0.27638900  0.33944800  0.80796400  1
  H  1005  1  0.26553400  0.33841900  0.70468400  1
  H  1006  1  0.24933000  0.32332600  0.73456600  1
  H  1008  1  0.34118000  0.43062700  0.80363700  1
  H  1009  1  0.35120600  0.44783200  0.77389500  1
  H  1011  1  0.34118900  0.42635300  0.70035600  1
  H  1012  1  0.35475700  0.44480500  0.72867600  1
  H  1020  1  0.01123700  0.02803900  0.93733800  1
  H  1021  1  0.02722000  0.05611900  0.91902600  1
  H  1023  1  0.01453500  0.95295700  0.92048000  1
  H  1024  1  0.99854400  0.98301800  0.93530400  1
  H  1026  1  0.09234800  0.05076900  0.82788800  1
  H  1027  1  0.10229400  0.02086100  0.81095800  1
  H  1029  1  0.09111100  0.94752500  0.83300400  1
  H  1030  1  0.10531600  0.97562900  0.81439400  1
  H  1038  1  0.49803300  0.48573000  0.07390500  1
  H  1039  1  0.51435900  0.45529600  0.08776400  1
  H  1041  1  0.52482800  0.55847200  0.09286000  1
  H  1042  1  0.50944400  0.53092600  0.07354100  1
  H  1044  1  0.59338600  0.44811200  0.17562900  1
  H  1045  1  0.60755600  0.47608600  0.19439900  1
  H  1047  1  0.58711000  0.55093000  0.18405700  1
  H  1048  1  0.59635100  0.52065600  0.20051800  1
  H  1056  1  0.74692100  0.32371600  0.22506500  1
  H  1057  1  0.73117700  0.34338100  0.19785200  1
  H  1059  1  0.73980200  0.33609100  0.30100900  1
  H  1060  1  0.75572400  0.32243100  0.27040400  1
  H  1062  1  0.66967400  0.43408700  0.20646200  1
  H  1063  1  0.66068300  0.45034100  0.23689200  1
  H  1065  1  0.66290000  0.42468200  0.30919300  1
  H  1066  1  0.64920700  0.44386700  0.28140400  1
  H  1074  1  0.24483100  0.18482600  0.78143800  1
  H  1075  1  0.22885500  0.16631100  0.80938000  1
  H  1077  1  0.24125500  0.16867500  0.70617800  1
  H  1078  1  0.25691800  0.18344800  0.73633900  1
  H  1080  1  0.16611800  0.07476900  0.80354800  1
  H  1081  1  0.15713900  0.05780300  0.77353100  1
  H  1083  1  0.16573300  0.08059400  0.70037600  1
  H  1084  1  0.15127400  0.06195600  0.72842900  1
  H  1092  1  0.49725200  0.47438500  0.93764600  1
  H  1093  1  0.48173400  0.44687300  0.91832400  1
  H  1095  1  0.49277500  0.55000900  0.92336600  1
  H  1096  1  0.50898500  0.51954500  0.93722400  1
  H  1098  1  0.41910900  0.45451500  0.82719800  1
  H  1099  1  0.41001200  0.48481500  0.81075000  1
  H  1101  1  0.41393400  0.55740200  0.83556700  1
  H  1102  1  0.39973900  0.52948700  0.81672100  1
  H  1110  1  0.00523800  0.02057200  0.07624900  1
  H  1111  1  0.98984100  0.05094400  0.09067600  1
  H  1113  1  0.97774800  0.94776800  0.09474200  1
  H  1114  1  0.99345100  0.97542500  0.07570400  1
  H  1116  1  0.91563800  0.05792500  0.17931100  1
  H  1117  1  0.90173800  0.03004700  0.19834900  1
  H  1119  1  0.91701900  0.95486400  0.18639700  1
  H  1120  1  0.90796300  0.98502200  0.20310000  1
  H  1128  1  0.25777400  0.82264800  0.77480400  1
  H  1129  1  0.24140400  0.83703700  0.80501200  1
  H  1131  1  0.22914300  0.83948800  0.70185300  1
  H  1132  1  0.24429200  0.82068900  0.72980600  1
  H  1134  1  0.16524200  0.92490800  0.81100900  1
  H  1135  1  0.15141200  0.94369200  0.78295100  1
  H  1137  1  0.16746100  0.93136000  0.70789200  1
  H  1138  1  0.15805300  0.94819200  0.73794000  1
  H  1146  1  0.74486800  0.68521300  0.23140300  1
  H  1147  1  0.72890500  0.66707800  0.20320800  1
  H  1149  1  0.74203300  0.66787300  0.30637500  1
  H  1150  1  0.75784500  0.68290600  0.27638200  1
  H  1152  1  0.66530000  0.57545100  0.20801200  1
  H  1153  1  0.65581200  0.55828700  0.23784300  1
  H  1155  1  0.66666667  0.57995800  0.31128000  1
  H  1156  1  0.65292200  0.56139900  0.28306500  1
  H  1164  1  0.25955400  0.68206600  0.78659600  1
  H  1165  1  0.27529100  0.66219700  0.81365200  1
  H  1167  1  0.26621400  0.67012200  0.71059300  1
  H  1168  1  0.25058700  0.68365200  0.74131000  1
  H  1170  1  0.33742700  0.57166700  0.80440900  1
  H  1171  1  0.34621500  0.55557100  0.77387200  1
  H  1173  1  0.34274700  0.58153700  0.70165400  1
  H  1174  1  0.35640200  0.56211100  0.72927300  1
  H  1182  1  0.74861800  0.82125800  0.23834800  1
  H  1183  1  0.76473800  0.83551000  0.20805300  1
  H  1185  1  0.77540600  0.83953500  0.31127500  1
  H  1186  1  0.75978200  0.82056300  0.28355100  1
  H  1188  1  0.84311400  0.92351600  0.20166500  1
  H  1189  1  0.85752400  0.94201900  0.22977000  1
  H  1191  1  0.83820900  0.93069100  0.30462000  1
  H  1192  1  0.84743900  0.94745900  0.27451600  1
  H  1200  1  0.49937000  0.51964100  0.43470600  1
  H  1201  1  0.51504800  0.55024600  0.42085400  1
  H  1203  1  0.52734000  0.44715700  0.41534800  1
  H  1204  1  0.51176100  0.47451300  0.43487000  1
  H  1206  1  0.58995100  0.55858500  0.33261800  1
  H  1207  1  0.60378900  0.53098200  0.31316200  1
  H  1209  1  0.58804900  0.45562600  0.32390000  1
  H  1210  1  0.59699500  0.48605600  0.30762400  1
  H  1218  1  0.01111700  0.97794700  0.57357200  1
  H  1219  1  0.02685400  0.94990200  0.59201100  1
  H  1221  1  0.01503900  0.05312000  0.58999700  1
  H  1222  1  0.99915500  0.02303500  0.57518100  1
  H  1224  1  0.08983300  0.95524800  0.68356700  1
  H  1225  1  0.09897600  0.98518600  0.70062900  1
  H  1227  1  0.09070300  0.05843900  0.67812100  1
  H  1228  1  0.10483900  0.03027800  0.69667500  1
  H  1236  1  0.99663900  0.97612600  0.43804100  1
  H  1237  1  0.98122100  0.94824500  0.41925000  1
  H  1239  1  0.98990300  0.05152700  0.42290800  1
  H  1240  1  0.00627300  0.02141200  0.43743100  1
  H  1242  1  0.91615500  0.95401600  0.32857400  1
  H  1243  1  0.90631800  0.98399600  0.31173800  1
  H  1245  1  0.91171600  0.05709400  0.33498400  1
  H  1246  1  0.89764600  0.02889600  0.31651700  1
  H  1254  1  0.49467700  0.53240800  0.57644200  1
  H  1255  1  0.47890300  0.55961700  0.59609200  1
  H  1257  1  0.48986100  0.45648900  0.58944300  1
  H  1258  1  0.50489200  0.48713900  0.57545500  1
  H  1260  1  0.41779000  0.55077900  0.68730300  1
  H  1261  1  0.40856600  0.52032500  0.70345800  1
  H  1263  1  0.41758100  0.44780000  0.67851000  1
  H  1264  1  0.40424700  0.47527000  0.69826300  1
  H  1289  1  0.13105700  0.18993600  0.41200200  1
  H  1290  1  0.14044900  0.14136500  0.42339200  1
  H  1291  1  0.22834600  0.05551700  0.43316800  1
  H  1292  1  0.28797200  0.02503700  0.41890500  1
  H  1293  1  0.34984600  0.09154700  0.37267600  1
  H  1294  1  0.26836900  0.19401200  0.38375500  1
  H  1295  1  0.22744800  0.12088000  0.34538700  1
  H  1296  1  0.30925800  0.13921000  0.27382100  1
  H  1297  1  0.36763200  0.15700800  0.30326600  1
  H  1298  1  0.31062200  0.13577300  0.44662500  1
  H  1299  1  0.44011800  0.17159700  0.39278500  1
  H  1300  1  0.44745400  0.16463100  0.44230800  1
  H  1303  1  0.20862700  0.10826000  0.44249000  1
  H  1304  1  0.18233600  0.09703600  0.41021800  1
  H  1306  1  0.40301000  0.14795200  0.35101200  1
  H  1307  1  0.37776800  0.18236000  0.35326300  1
  H  1332  1  0.63095700  0.31814400  0.59486500  1
  H  1333  1  0.64178300  0.36671700  0.58379500  1
  H  1334  1  0.72977300  0.45287800  0.57920700  1
  H  1335  1  0.78897600  0.48266700  0.59515200  1
  H  1336  1  0.84960900  0.41426700  0.63941700  1
  H  1337  1  0.76733600  0.31263800  0.62430100  1
  H  1338  1  0.73103700  0.38832000  0.66493400  1
  H  1339  1  0.79004200  0.34176700  0.73231900  1
  H  1340  1  0.84986200  0.32669600  0.70254300  1
  H  1341  1  0.81376500  0.37460800  0.56314300  1
  H  1342  1  0.93879800  0.33300000  0.61684200  1
  H  1343  1  0.94980800  0.34451500  0.56839700  1
  H  1346  1  0.71149400  0.40047200  0.56688200  1
  H  1347  1  0.68314400  0.41038100  0.59890400  1
  H  1349  1  0.89726800  0.34763200  0.66070800  1
  H  1350  1  0.86901700  0.31578400  0.65013900  1
  H  1375  1  0.37932100  0.84321000  0.94167600  1
  H  1376  1  0.39072500  0.83140900  0.89333900  1
  H  1377  1  0.47993600  0.82527000  0.80775400  1
  H  1378  1  0.53953400  0.84072900  0.77801400  1
  H  1379  1  0.59870400  0.88668200  0.84577900  1
  H  1380  1  0.51568800  0.87262100  0.94739900  1
  H  1381  1  0.48046500  0.91250100  0.87127400  1
  H  1382  1  0.53961900  0.98012300  0.91743200  1
  H  1383  1  0.59903300  0.95029800  0.93298400  1
  H  1384  1  0.56282200  0.81068200  0.88569900  1
  H  1385  1  0.68778500  0.86455300  0.92717500  1
  H  1386  1  0.69897900  0.81616100  0.91556400  1
  H  1389  1  0.46093300  0.81394600  0.86020000  1
  H  1390  1  0.43256300  0.84576000  0.84965900  1
  H  1392  1  0.64630300  0.90830000  0.91259700  1
  H  1393  1  0.61770500  0.89785200  0.94436500  1
  H  1418  1  0.88302900  0.66157400  0.06836200  1
  H  1419  1  0.88919200  0.66930400  0.11778000  1
  H  1420  1  0.96185000  0.66065300  0.20787500  1
  H  1421  1  0.01979200  0.64397300  0.23829500  1
  H  1422  1  0.10191400  0.62195200  0.16797700  1
  H  1423  1  0.02066300  0.63374900  0.06557300  1
  H  1424  1  0.97685300  0.59208900  0.13722900  1
  H  1425  1  0.05722300  0.52106900  0.11497900  1
  H  1426  1  0.11640000  0.55103200  0.09900700  1
  H  1427  1  0.05984200  0.69379900  0.12553200  1
  H  1428  1  0.19099400  0.64071700  0.09081100  1
  H  1429  1  0.19764100  0.69019200  0.09812700  1
  H  1432  1  0.95082000  0.68268600  0.15663600  1
  H  1433  1  0.92676400  0.64810200  0.16065800  1
  H  1435  1  0.15247300  0.59806600  0.11215300  1
  H  1436  1  0.12912400  0.60214600  0.07739000  1
  H  1461  1  0.19939200  0.31701000  0.41585200  1
  H  1462  1  0.19136100  0.36639500  0.42337900  1
  H  1463  1  0.11840500  0.45582600  0.40894800  1
  H  1464  1  0.05993800  0.48521800  0.39115700  1
  H  1465  1  0.97891000  0.41351800  0.37204800  1
  H  1466  1  0.06302300  0.31242700  0.38622400  1
  H  1467  1  0.10112900  0.38675100  0.34263100  1
  H  1468  1  0.03880600  0.34109800  0.27584700  1
  H  1469  1  0.97987600  0.32614400  0.30652400  1
  H  1470  1  0.01987100  0.37558100  0.44512300  1
  H  1471  1  0.89232500  0.33535100  0.39261700  1
  H  1472  1  0.88261100  0.34729300  0.44102600  1
  H  1475  1  0.12847900  0.40563800  0.43410000  1
  H  1476  1  0.15428300  0.40823800  0.39988200  1
  H  1478  1  0.93402000  0.34823100  0.34830800  1
  H  1479  1  0.96106800  0.31621000  0.35953500  1
  H  1504  1  0.69819400  0.19020400  0.59610800  1
  H  1505  1  0.68775800  0.14157100  0.58515300  1
  H  1506  1  0.59928000  0.05570800  0.57892800  1
  H  1507  1  0.53964100  0.02585500  0.59411900  1
  H  1508  1  0.47960900  0.09349600  0.63981600  1
  H  1509  1  0.56162700  0.19540300  0.62532100  1
  H  1510  1  0.59865600  0.11928900  0.66559100  1
  H  1511  1  0.53923300  0.16441000  0.73381400  1
  H  1512  1  0.47909900  0.17963900  0.70437500  1
  H  1513  1  0.51582100  0.13470900  0.56412600  1
  H  1514  1  0.39005700  0.17436600  0.61869100  1
  H  1515  1  0.37937200  0.16404200  0.56993500  1
  H  1518  1  0.61843300  0.10803800  0.56776000  1
  H  1519  1  0.64614600  0.09774000  0.59988100  1
  H  1521  1  0.43191000  0.15892200  0.66225700  1
  H  1522  1  0.45935400  0.19124800  0.65232100  1
  H  1547  1  0.95081300  0.66500200  0.94184100  1
  H  1548  1  0.94209600  0.67214500  0.89245400  1
  H  1549  1  0.86759400  0.65775800  0.80354300  1
  H  1550  1  0.80865800  0.63991400  0.77451600  1
  H  1551  1  0.72953000  0.61983700  0.84679300  1
  H  1552  1  0.81461500  0.63518100  0.94734900  1
  H  1553  1  0.85227900  0.59115800  0.87318800  1
  H  1554  1  0.79121400  0.52448200  0.91965700  1
  H  1555  1  0.73202400  0.55497400  0.93453800  1
  H  1556  1  0.77011600  0.69342200  0.88429600  1
  H  1557  1  0.64301700  0.64033200  0.92435100  1
  H  1558  1  0.63271200  0.68864700  0.91223900  1
  H  1561  1  0.87857300  0.68264400  0.85360400  1
  H  1562  1  0.90449000  0.64846200  0.85091500  1
  H  1564  1  0.68548100  0.59623900  0.91197400  1
  H  1565  1  0.71228800  0.60787400  0.94393000  1
  H  1590  1  0.44618800  0.84728000  0.06897900  1
  H  1591  1  0.43666700  0.83549300  0.11744000  1
  H  1592  1  0.34866700  0.82522700  0.20319200  1
  H  1593  1  0.28926400  0.83954400  0.23379600  1
  H  1594  1  0.22732800  0.88600800  0.16743900  1
  H  1595  1  0.30875400  0.87529600  0.06491500  1
  H  1596  1  0.34947200  0.91335000  0.13834400  1
  H  1597  1  0.26828600  0.98496600  0.11909600  1
  H  1598  1  0.21005900  0.95551500  0.10115100  1
  H  1599  1  0.26573300  0.81211100  0.12348900  1
  H  1600  1  0.13748700  0.86616000  0.08632300  1
  H  1601  1  0.12950100  0.81674900  0.09359800  1
  H  1604  1  0.36822200  0.81605000  0.15033100  1
  H  1605  1  0.39467400  0.84818800  0.16178500  1
  H  1607  1  0.17431800  0.90788400  0.11008900  1
  H  1608  1  0.20030400  0.90545400  0.07590700  1
  H  1633  1  0.69589600  0.81524600  0.59778300  1
  H  1634  1  0.68967500  0.86464000  0.59000200  1
  H  1635  1  0.61708800  0.95471900  0.59859100  1
  H  1636  1  0.55906200  0.98516900  0.61509100  1
  H  1637  1  0.47673700  0.91489300  0.63695100  1
  H  1638  1  0.55823400  0.81242200  0.62555300  1
  H  1639  1  0.60167700  0.88426000  0.66727700  1
  H  1640  1  0.51998800  0.86321000  0.73806800  1
  H  1641  1  0.46152500  0.84657600  0.70800300  1
  H  1642  1  0.51859400  0.87289800  0.56531800  1
  H  1643  1  0.38814400  0.83702800  0.61828200  1
  H  1644  1  0.38113100  0.84482200  0.56894600  1
  H  1647  1  0.62814300  0.90347800  0.57658100  1
  H  1648  1  0.65206200  0.90750700  0.61120200  1
  H  1650  1  0.42607500  0.85855400  0.66084100  1
  H  1651  1  0.45020900  0.82398000  0.65692500  1
  H  1676  1  0.19949500  0.68708800  0.41748500  1
  H  1677  1  0.18745300  0.63868400  0.42863200  1
  H  1678  1  0.09828100  0.55314700  0.43256700  1
  H  1679  1  0.03905300  0.52364000  0.41620600  1
  H  1680  1  0.97997600  0.59232800  0.37156700  1
  H  1681  1  0.06374000  0.69361100  0.38711700  1
  H  1682  1  0.09883600  0.61804700  0.34654400  1
  H  1683  1  0.03990000  0.66455000  0.27907600  1
  H  1684  1  0.98029500  0.67983800  0.30887800  1
  H  1685  1  0.01549800  0.63165600  0.44829900  1
  H  1686  1  0.89098500  0.67343500  0.39427800  1
  H  1687  1  0.87945700  0.66168300  0.44260100  1
  H  1690  1  0.11680400  0.60546800  0.44509500  1
  H  1691  1  0.14573100  0.59537000  0.41332800  1
  H  1693  1  0.93282400  0.65906100  0.35057600  1
  H  1694  1  0.96119200  0.69081000  0.36132000  1
  H  1719  1  0.44953100  0.16299600  0.07072600  1
  H  1720  1  0.43820100  0.17399700  0.11923100  1
  H  1721  1  0.34957500  0.17891900  0.20492000  1
  H  1722  1  0.28999400  0.16340100  0.23460200  1
  H  1723  1  0.23014900  0.11829600  0.16647200  1
  H  1724  1  0.31352600  0.13292400  0.06481600  1
  H  1725  1  0.34887200  0.09236700  0.14079500  1
  H  1726  1  0.28834500  0.02450600  0.09563600  1
  H  1727  1  0.22936400  0.05451700  0.07986400  1
  H  1728  1  0.26624700  0.19432400  0.12662800  1
  H  1729  1  0.14145700  0.14045100  0.08498200  1
  H  1730  1  0.13023800  0.18884200  0.09648400  1
  H  1733  1  0.36838300  0.19074600  0.15264700  1
  H  1734  1  0.39662100  0.15874500  0.16277100  1
  H  1736  1  0.18273000  0.09675500  0.09979800  1
  H  1737  1  0.21139600  0.10704200  0.06800100  1
  H  1762  1  0.94503000  0.34376700  0.94327800  1
  H  1763  1  0.93879500  0.33585400  0.89390300  1
  H  1764  1  0.86659700  0.34484100  0.80376500  1
  H  1765  1  0.80912700  0.36199700  0.77328300  1
  H  1766  1  0.72673800  0.38404300  0.84346600  1
  H  1767  1  0.80756800  0.37193300  0.94598300  1
  H  1768  1  0.85182700  0.41330100  0.87414700  1
  H  1769  1  0.77211100  0.48463600  0.89626600  1
  H  1770  1  0.71290200  0.45492000  0.91262000  1
  H  1771  1  0.76717900  0.31195600  0.88533000  1
  H  1772  1  0.63737100  0.36566200  0.92098700  1
  H  1773  1  0.62955500  0.31639800  0.91295300  1
  H  1776  1  0.87698300  0.32255900  0.85503200  1
  H  1777  1  0.90153900  0.35700500  0.85101100  1
  H  1779  1  0.67629700  0.40812500  0.89997300  1
  H  1780  1  0.70021200  0.40374000  0.93454700  1
  H  1805  1  0.62811800  0.68868900  0.59454700  1
  H  1806  1  0.63648700  0.63927400  0.58753200  1
  H  1807  1  0.70990000  0.55019500  0.60265600  1
  H  1808  1  0.76868300  0.52104400  0.62041900  1
  H  1809  1  0.84939600  0.59303800  0.63892500  1
  H  1810  1  0.76436100  0.69389900  0.62434400  1
  H  1811  1  0.72700500  0.61957500  0.66849100  1
  H  1812  1  0.79001100  0.66492500  0.73525200  1
  H  1813  1  0.84841900  0.68018600  0.70436800  1
  H  1814  1  0.80807800  0.63060500  0.56581600  1
  H  1815  1  0.93554900  0.67101500  0.61824500  1
  H  1816  1  0.94537600  0.65883700  0.56992600  1
  H  1819  1  0.69940600  0.60013200  0.57721600  1
  H  1820  1  0.67381800  0.59776600  0.61151800  1
  H  1822  1  0.89390900  0.65837400  0.66251600  1
  H  1823  1  0.86666500  0.69030500  0.65122200  1
  H  1848  1  0.13303100  0.81396700  0.41353100  1
  H  1849  1  0.13936200  0.86325700  0.42198900  1
  H  1850  1  0.21255500  0.95339600  0.41472000  1
  H  1851  1  0.27047000  0.98389200  0.39804400  1
  H  1852  1  0.35204000  0.91366500  0.37502800  1
  H  1853  1  0.27096300  0.81128800  0.38629800  1
  H  1854  1  0.22739700  0.88350600  0.34530600  1
  H  1855  1  0.30794200  0.86193700  0.27417100  1
  H  1856  1  0.36668600  0.84517800  0.30402500  1
  H  1857  1  0.31097900  0.87192200  0.44686600  1
  H  1858  1  0.44110300  0.83604300  0.39360300  1
  H  1859  1  0.44858100  0.84419700  0.44286200  1
  H  1862  1  0.20142800  0.90183000  0.43620800  1
  H  1863  1  0.17718400  0.90636800  0.40174500  1
  H  1865  1  0.40276000  0.85721300  0.35107200  1
  H  1866  1  0.37849100  0.82270100  0.35517700  1
  H  1891  1  0.87779200  0.34071200  0.06976200  1
  H  1892  1  0.88668000  0.33354500  0.11912600  1
  H  1893  1  0.96131200  0.34825000  0.20791400  1
  H  1894  1  0.02025200  0.36629300  0.23680500  1
  H  1895  1  0.09963800  0.38551400  0.16441600  1
  H  1896  1  0.01420200  0.37011300  0.06400000  1
  H  1897  1  0.97692500  0.41427100  0.13803100  1
  H  1898  1  0.03870000  0.48088700  0.09184900  1
  H  1899  1  0.09765000  0.45022200  0.07690900  1
  H  1900  1  0.05876600  0.31183600  0.12729000  1
  H  1901  1  0.18596600  0.36460400  0.08696500  1
  H  1902  1  0.19615300  0.31634700  0.09927700  1
  H  1905  1  0.95035000  0.32295900  0.15794600  1
  H  1906  1  0.92449500  0.35716700  0.16053500  1
  H  1908  1  0.14379100  0.40877300  0.09928400  1
  H  1909  1  0.11682800  0.39718700  0.06736200  1
  H  1934  1  0.38251200  0.16034000  0.94387400  1
  H  1935  1  0.38878500  0.16847600  0.89453300  1
  H  1936  1  0.46100100  0.15942600  0.80432400  1
  H  1937  1  0.51891400  0.14274800  0.77389400  1
  H  1938  1  0.60180400  0.12172900  0.84416500  1
  H  1939  1  0.52023000  0.13270800  0.94658300  1
  H  1940  1  0.47775300  0.09104100  0.87435200  1
  H  1941  1  0.55963700  0.02075400  0.89675800  1
  H  1942  1  0.61730400  0.05118300  0.91378800  1
  H  1943  1  0.55957700  0.19338300  0.88542800  1
  H  1944  1  0.69005400  0.14121700  0.92239000  1
  H  1945  1  0.69690400  0.19043200  0.91382400  1
  H  1948  1  0.45041200  0.18195400  0.85559800  1
  H  1949  1  0.42627600  0.14739100  0.85162400  1
  H  1951  1  0.65263900  0.09825600  0.90162500  1
  H  1952  1  0.62770800  0.10266000  0.93591800  1
  H  1960  1  0.20133900  0.24165600  0.46456200  1
  H  1961  1  0.22504900  0.21595900  0.44621600  1
  H  1963  1  0.10977400  0.28875000  0.44921300  1
  H  1964  1  0.13457700  0.26233000  0.46583200  1
  H  1966  1  0.19585100  0.20744100  0.34389900  1
  H  1967  1  0.16613300  0.23201200  0.32750000  1
  H  1969  1  0.13455300  0.30206700  0.34654400  1
  H  1970  1  0.16291100  0.27796100  0.32865900  1
  H  1978  1  0.69694600  0.26370700  0.54443700  1
  H  1979  1  0.72142400  0.28996300  0.56155300  1
  H  1981  1  0.60586700  0.21736100  0.56258700  1
  H  1982  1  0.62985200  0.24333800  0.54484500  1
  H  1984  1  0.69560900  0.30183400  0.66408500  1
  H  1985  1  0.66722100  0.27745800  0.68162700  1
  H  1987  1  0.63465200  0.20697400  0.66505500  1
  H  1988  1  0.66371100  0.23149400  0.68195800  1
  H  1996  1  0.44325600  0.79358800  0.99727200  1
  H  1997  1  0.46859000  0.81013500  0.97096500  1
  H  1999  1  0.35172100  0.81316600  0.04268400  1
  H  2000  1  0.37579000  0.79477400  0.01717000  1
  H  2002  1  0.44478400  0.91264000  0.95730500  1
  H  2003  1  0.41627800  0.93076100  0.98118000  1
  H  2005  1  0.38116500  0.91538700  0.05143200  1
  H  2006  1  0.41122600  0.93182500  0.02704100  1
  H  2014  1  0.95303000  0.71450200  0.01727400  1
  H  2015  1  0.97728900  0.69626300  0.04281900  1
  H  2017  1  0.86133800  0.69844600  0.97033100  1
  H  2018  1  0.88646400  0.71532100  0.99646400  1
  H  2020  1  0.94955100  0.59378200  0.05167800  1
  H  2021  1  0.91941800  0.57722700  0.02742400  1
  H  2023  1  0.88639200  0.59575100  0.95755600  1
  H  2024  1  0.91535300  0.57807100  0.98152000  1
  H  2032  1  0.62608000  0.76380600  0.54501300  1
  H  2033  1  0.60182400  0.78945900  0.56316500  1
  H  2035  1  0.71788500  0.71705600  0.56113300  1
  H  2036  1  0.69287300  0.74320100  0.54420300  1
  H  2038  1  0.62968200  0.79862600  0.66557800  1
  H  2039  1  0.65967100  0.77432000  0.68216400  1
  H  2041  1  0.69217200  0.70432700  0.66378000  1
  H  2042  1  0.66313600  0.72835800  0.68134100  1
  H  2050  1  0.13593500  0.74264100  0.46711100  1
  H  2051  1  0.11057300  0.71652900  0.45027700  1
  H  2053  1  0.22769500  0.78821000  0.44825600  1
  H  2054  1  0.20325500  0.76265900  0.46640500  1
  H  2056  1  0.13552000  0.70344500  0.34777700  1
  H  2057  1  0.16456300  0.72733700  0.33000200  1
  H  2059  1  0.19972500  0.79738700  0.34584900  1
  H  2060  1  0.16947800  0.77322200  0.32921800  1
  H  2068  1  0.38449300  0.21305200  0.01583300  1
  H  2069  1  0.35947100  0.19594600  0.04189500  1
  H  2071  1  0.47633200  0.19480100  0.97006100  1
  H  2072  1  0.45179900  0.21272900  0.99574600  1
  H  2074  1  0.38579300  0.09349500  0.05434300  1
  H  2075  1  0.41488000  0.07598500  0.03028000  1
  H  2077  1  0.44898500  0.09239600  0.96012100  1
  H  2078  1  0.41922300  0.07553500  0.98435000  1
  H  2086  1  0.87461100  0.29115400  0.99450000  1
  H  2087  1  0.85035300  0.30943200  0.96898200  1
  H  2089  1  0.96682000  0.30696500  0.04113700  1
  H  2090  1  0.94134500  0.29013500  0.01510600  1
  H  2092  1  0.87899100  0.41177500  0.95983700  1
  H  2093  1  0.90943000  0.42828000  0.98398500  1
  H  2095  1  0.94278200  0.40976000  0.05380400  1
  H  2096  1  0.91383100  0.42750700  0.02988100  1
  H  2104  1  0.70065000  0.74111200  0.96469500  1
  H  2105  1  0.72524600  0.71548700  0.94669700  1
  H  2107  1  0.60839800  0.78728900  0.94835800  1
  H  2108  1  0.63322000  0.76104600  0.96523900  1
  H  2110  1  0.69891800  0.70645900  0.84415800  1
  H  2111  1  0.66930300  0.73079300  0.82733700  1
  H  2113  1  0.63494400  0.80050400  0.84602200  1
  H  2114  1  0.66413900  0.77663900  0.82829900  1
  H  2122  1  0.19475800  0.76184100  0.04382300  1
  H  2123  1  0.21967400  0.78818900  0.06055700  1
  H  2125  1  0.10374800  0.71571700  0.06299600  1
  H  2126  1  0.12801000  0.74118700  0.04465400  1
  H  2128  1  0.19427100  0.80176300  0.16300200  1
  H  2129  1  0.16537500  0.77784600  0.18080800  1
  H  2131  1  0.13196500  0.70743600  0.16559100  1
  H  2132  1  0.16195800  0.73189500  0.18194400  1
  H  2140  1  0.95084400  0.29522400  0.49337400  1
  H  2141  1  0.97524900  0.31313900  0.46761900  1
  H  2143  1  0.85897700  0.31184500  0.53977900  1
  H  2144  1  0.88356400  0.29479300  0.51354400  1
  H  2146  1  0.94900300  0.41565700  0.45841000  1
  H  2147  1  0.91969900  0.43258000  0.48281800  1
  H  2149  1  0.88612400  0.41414300  0.55275100  1
  H  2150  1  0.91501300  0.43177900  0.52869400  1
  H  2158  1  0.44684600  0.21552200  0.51663600  1
  H  2159  1  0.47085800  0.19778600  0.54259400  1
  H  2161  1  0.35614300  0.19864100  0.46938900  1
  H  2162  1  0.38043500  0.21590500  0.49557900  1
  H  2164  1  0.44285900  0.09521300  0.55290700  1
  H  2165  1  0.41390000  0.07828100  0.52837800  1
  H  2167  1  0.38223800  0.09594300  0.45804500  1
  H  2168  1  0.41083200  0.07857900  0.48242500  1
  H  2176  1  0.12836300  0.26358700  0.04713700  1
  H  2177  1  0.10369700  0.28928900  0.06498900  1
  H  2179  1  0.22073700  0.21760400  0.06373600  1
  H  2180  1  0.19588200  0.24375400  0.04672600  1
  H  2182  1  0.12998100  0.29887500  0.16748200  1
  H  2183  1  0.15955800  0.27460600  0.18442700  1
  H  2185  1  0.19377400  0.20477100  0.16610500  1
  H  2186  1  0.16451500  0.22872500  0.18367000  1
  H  2194  1  0.62830600  0.24351300  0.96512000  1
  H  2195  1  0.60350200  0.21765100  0.94756100  1
  H  2197  1  0.72092500  0.28925100  0.94790000  1
  H  2198  1  0.69543100  0.26370700  0.96547100  1
  H  2200  1  0.63045300  0.20615400  0.84538900  1
  H  2201  1  0.66087900  0.22983200  0.82821100  1
  H  2203  1  0.69627900  0.29957900  0.84511800  1
  H  2204  1  0.66627900  0.27568900  0.82797000  1
  H  2212  1  0.87717100  0.71087200  0.51748200  1
  H  2213  1  0.85246400  0.69291600  0.54310000  1
  H  2215  1  0.96985400  0.69438700  0.47164600  1
  H  2216  1  0.94479000  0.71140000  0.49773300  1
  H  2218  1  0.87887800  0.59047100  0.55245400  1
  H  2219  1  0.90858300  0.57356900  0.52821000  1
  H  2221  1  0.94312800  0.59206600  0.45845700  1
  H  2222  1  0.91395400  0.57439200  0.48235800  1
  H  2230  1  0.38249200  0.79214900  0.49593800  1
  H  2231  1  0.35716100  0.80953600  0.47021000  1
  H  2233  1  0.47399000  0.81036500  0.54221900  1
  H  2234  1  0.44915300  0.79256300  0.51658700  1
  H  2236  1  0.38116200  0.91219000  0.45915100  1
  H  2237  1  0.41114800  0.92959900  0.48285100  1
  H  2239  1  0.44734200  0.91284400  0.55245900  1
  H  2240  1  0.41687400  0.92977900  0.52864800  1
  H  2248  1  0.16117000  0.18258300  0.23803900  1
  H  2249  1  0.17729000  0.16833500  0.20771300  1
  H  2251  1  0.18857400  0.16452500  0.31088300  1
  H  2252  1  0.17391000  0.18375400  0.28312400  1
  H  2254  1  0.25144600  0.07974100  0.20103000  1
  H  2255  1  0.26448500  0.06058400  0.22898700  1
  H  2257  1  0.24758300  0.07237100  0.30406800  1
  H  2258  1  0.25664200  0.05562900  0.27390700  1
  H  2266  1  0.67195800  0.32134600  0.77970400  1
  H  2267  1  0.68771700  0.33944800  0.80796400  1
  H  2269  1  0.67686200  0.33841900  0.70468400  1
  H  2270  1  0.66065800  0.32332600  0.73456600  1
  H  2272  1  0.75250800  0.43062700  0.80363700  1
  H  2273  1  0.76253400  0.44783200  0.77389500  1
  H  2275  1  0.75251700  0.42635300  0.70035600  1
  H  2276  1  0.76608500  0.44480500  0.72867600  1
  H  2284  1  0.42256500  0.02803900  0.93733800  1
  H  2285  1  0.43854800  0.05611900  0.91902600  1
  H  2287  1  0.42586300  0.95295700  0.92048000  1
  H  2288  1  0.40987200  0.98301800  0.93530400  1
  H  2290  1  0.50367600  0.05076900  0.82788800  1
  H  2291  1  0.51362200  0.02086100  0.81095800  1
  H  2293  1  0.50243900  0.94752500  0.83300400  1
  H  2294  1  0.51664400  0.97562900  0.81439400  1
  H  2302  1  0.90936100  0.48573000  0.07390500  1
  H  2303  1  0.92568700  0.45529600  0.08776400  1
  H  2305  1  0.93615600  0.55847200  0.09286000  1
  H  2306  1  0.92077200  0.53092600  0.07354100  1
  H  2308  1  0.00471397  0.44811200  0.17562900  1
  H  2309  1  0.01888400  0.47608600  0.19439900  1
  H  2311  1  0.99843800  0.55093000  0.18405700  1
  H  2312  1  0.00767897  0.52065600  0.20051800  1
  H  2320  1  0.15824900  0.32371600  0.22506500  1
  H  2321  1  0.14250500  0.34338100  0.19785200  1
  H  2323  1  0.15113000  0.33609100  0.30100900  1
  H  2324  1  0.16705200  0.32243100  0.27040400  1
  H  2326  1  0.08100200  0.43408700  0.20646200  1
  H  2327  1  0.07201100  0.45034100  0.23689200  1
  H  2329  1  0.07422800  0.42468200  0.30919300  1
  H  2330  1  0.06053500  0.44386700  0.28140400  1
  H  2338  1  0.65615900  0.18482600  0.78143800  1
  H  2339  1  0.64018300  0.16631100  0.80938000  1
  H  2341  1  0.65258300  0.16867500  0.70617800  1
  H  2342  1  0.66824600  0.18344800  0.73633900  1
  H  2344  1  0.57744600  0.07476900  0.80354800  1
  H  2345  1  0.56846700  0.05780300  0.77353100  1
  H  2347  1  0.57706100  0.08059400  0.70037600  1
  H  2348  1  0.56260200  0.06195600  0.72842900  1
  H  2356  1  0.90858000  0.47438500  0.93764600  1
  H  2357  1  0.89306200  0.44687300  0.91832400  1
  H  2359  1  0.90410300  0.55000900  0.92336600  1
  H  2360  1  0.92031300  0.51954500  0.93722400  1
  H  2362  1  0.83043700  0.45451500  0.82719800  1
  H  2363  1  0.82134000  0.48481500  0.81075000  1
  H  2365  1  0.82526200  0.55740200  0.83556700  1
  H  2366  1  0.81106700  0.52948700  0.81672100  1
  H  2374  1  0.41656600  0.02057200  0.07624900  1
  H  2375  1  0.40116900  0.05094400  0.09067600  1
  H  2377  1  0.38907600  0.94776800  0.09474200  1
  H  2378  1  0.40477900  0.97542500  0.07570400  1
  H  2380  1  0.32696600  0.05792500  0.17931100  1
  H  2381  1  0.31306600  0.03004700  0.19834900  1
  H  2383  1  0.32834700  0.95486400  0.18639700  1
  H  2384  1  0.31929100  0.98502200  0.20310000  1
  H  2392  1  0.66910200  0.82264800  0.77480400  1
  H  2393  1  0.65273200  0.83703700  0.80501200  1
  H  2395  1  0.64047100  0.83948800  0.70185300  1
  H  2396  1  0.65562000  0.82068900  0.72980600  1
  H  2398  1  0.57657000  0.92490800  0.81100900  1
  H  2399  1  0.56274000  0.94369200  0.78295100  1
  H  2401  1  0.57878900  0.93136000  0.70789200  1
  H  2402  1  0.56938100  0.94819200  0.73794000  1
  H  2410  1  0.15619600  0.68521300  0.23140300  1
  H  2411  1  0.14023300  0.66707800  0.20320800  1
  H  2413  1  0.15336100  0.66787300  0.30637500  1
  H  2414  1  0.16917300  0.68290600  0.27638200  1
  H  2416  1  0.07662800  0.57545100  0.20801200  1
  H  2417  1  0.06714000  0.55828700  0.23784300  1
  H  2419  1  0.07801300  0.57995800  0.31128000  1
  H  2420  1  0.06425000  0.56139900  0.28306500  1
  H  2428  1  0.67088200  0.68206600  0.78659600  1
  H  2429  1  0.68661900  0.66219700  0.81365200  1
  H  2431  1  0.67754200  0.67012200  0.71059300  1
  H  2432  1  0.66191500  0.68365200  0.74131000  1
  H  2434  1  0.74875500  0.57166700  0.80440900  1
  H  2435  1  0.75754300  0.55557100  0.77387200  1
  H  2437  1  0.75407500  0.58153700  0.70165400  1
  H  2438  1  0.76773000  0.56211100  0.72927300  1
  H  2446  1  0.15994600  0.82125800  0.23834800  1
  H  2447  1  0.17606600  0.83551000  0.20805300  1
  H  2449  1  0.18673400  0.83953500  0.31127500  1
  H  2450  1  0.17111000  0.82056300  0.28355100  1
  H  2452  1  0.25444200  0.92351600  0.20166500  1
  H  2453  1  0.26885200  0.94201900  0.22977000  1
  H  2455  1  0.24953700  0.93069100  0.30462000  1
  H  2456  1  0.25876700  0.94745900  0.27451600  1
  H  2464  1  0.91069800  0.51964100  0.43470600  1
  H  2465  1  0.92637600  0.55024600  0.42085400  1
  H  2467  1  0.93866800  0.44715700  0.41534800  1
  H  2468  1  0.92308900  0.47451300  0.43487000  1
  H  2470  1  0.00127897  0.55858500  0.33261800  1
  H  2471  1  0.01511700  0.53098200  0.31316200  1
  H  2473  1  0.99937700  0.45562600  0.32390000  1
  H  2474  1  0.00832297  0.48605600  0.30762400  1
  H  2482  1  0.42244500  0.97794700  0.57357200  1
  H  2483  1  0.43818200  0.94990200  0.59201100  1
  H  2485  1  0.42636700  0.05312000  0.58999700  1
  H  2486  1  0.41048300  0.02303500  0.57518100  1
  H  2488  1  0.50116100  0.95524800  0.68356700  1
  H  2489  1  0.51030400  0.98518600  0.70062900  1
  H  2491  1  0.50203100  0.05843900  0.67812100  1
  H  2492  1  0.51616700  0.03027800  0.69667500  1
  H  2500  1  0.40796700  0.97612600  0.43804100  1
  H  2501  1  0.39254900  0.94824500  0.41925000  1
  H  2503  1  0.40123100  0.05152700  0.42290800  1
  H  2504  1  0.41760100  0.02141200  0.43743100  1
  H  2506  1  0.32748300  0.95401600  0.32857400  1
  H  2507  1  0.31764600  0.98399600  0.31173800  1
  H  2509  1  0.32304400  0.05709400  0.33498400  1
  H  2510  1  0.30897400  0.02889600  0.31651700  1
  H  2518  1  0.90600500  0.53240800  0.57644200  1
  H  2519  1  0.89023100  0.55961700  0.59609200  1
  H  2521  1  0.90118900  0.45648900  0.58944300  1
  H  2522  1  0.91622000  0.48713900  0.57545500  1
  H  2524  1  0.82911800  0.55077900  0.68730300  1
  H  2525  1  0.81989400  0.52032500  0.70345800  1
  H  2527  1  0.82890900  0.44780000  0.67851000  1
  H  2528  1  0.81557500  0.47527000  0.69826300  1
  C  1  1  0.92107400  0.14637000  0.40460700  1
  C  2  1  0.95983800  0.15706800  0.38962600  1
  C  3  1  0.92182800  0.14925600  0.34247500  1
  C  4  1  0.88168300  0.13812500  0.35556300  1
  C  5  1  0.84582500  0.12870800  0.33687300  1
  C  6  1  0.85024000  0.12957200  0.30664500  1
  C  7  1  0.89203400  0.13944600  0.29523000  1
  C  8  1  0.92678500  0.14974700  0.31264600  1
  C  9  1  0.00083100  0.16427000  0.40381000  1
  C  10  1  0.00525500  0.15989500  0.43298800  1
  C  11  1  0.96807900  0.14973000  0.44925100  1
  C  12  1  0.92608200  0.14353000  0.43491100  1
  C  13  1  0.83627500  0.15260300  0.39705700  1
  C  14  1  0.79846400  0.13816900  0.40968300  1
  C  15  1  0.84160900  0.09216700  0.41132400  1
  C  16  1  0.87763100  0.10369100  0.39454100  1
  C  17  1  0.84258600  0.06364800  0.42057400  1
  C  18  1  0.87756200  0.04555000  0.41172900  1
  C  19  1  0.91203500  0.05485900  0.39278100  1
  C  20  1  0.91260400  0.08427600  0.38541800  1
  C  21  1  0.83024900  0.18250000  0.39180900  1
  C  22  1  0.78792400  0.19682100  0.39734500  1
  C  23  1  0.75073600  0.18061300  0.40762200  1
  C  24  1  0.75630600  0.15199900  0.41453300  1
  C  37  1  0.87898200  0.13565100  0.38808200  1
  C  38  1  0.80050000  0.10836600  0.41923300  1
  C  41  1  0.96158700  0.15981200  0.35847900  1
  C  44  1  0.42161200  0.36088500  0.60474500  1
  C  45  1  0.45870700  0.34789400  0.61952600  1
  C  46  1  0.41531500  0.34841400  0.66547900  1
  C  47  1  0.38011500  0.36560000  0.65353300  1
  C  48  1  0.34519400  0.37549500  0.67264000  1
  C  49  1  0.34463200  0.36815200  0.70212500  1
  C  50  1  0.37855600  0.34900000  0.71182000  1
  C  51  1  0.41368300  0.33965700  0.69412500  1
  C  52  1  0.50079200  0.34213200  0.60594700  1
  C  53  1  0.50730500  0.34907500  0.57740600  1
  C  54  1  0.47106700  0.36022400  0.56094700  1
  C  55  1  0.42851500  0.36599000  0.57487100  1
  C  56  1  0.33660500  0.35438100  0.61112700  1
  C  57  1  0.29935600  0.36929400  0.59846700  1
  C  58  1  0.34240200  0.41535600  0.59979700  1
  C  59  1  0.37785700  0.40315800  0.61660400  1
  C  60  1  0.34351400  0.44425500  0.59186300  1
  C  61  1  0.37828200  0.46194600  0.60173500  1
  C  62  1  0.41251100  0.45191000  0.62051500  1
  C  63  1  0.41256900  0.42219000  0.62690600  1
  C  64  1  0.32983000  0.32444900  0.61591700  1
  C  65  1  0.28720900  0.31059800  0.61025600  1
  C  66  1  0.25083300  0.32712900  0.59939500  1
  C  67  1  0.25725000  0.35573900  0.59269100  1
  C  80  1  0.37908000  0.37086700  0.62132500  1
  C  81  1  0.30191100  0.39944100  0.59017300  1
  C  84  1  0.45594400  0.33909400  0.64952300  1
  C  87  1  0.17056000  0.85232100  0.89939300  1
  C  88  1  0.20764500  0.86714700  0.91234100  1
  C  89  1  0.16438800  0.91311900  0.91150100  1
  C  90  1  0.12926500  0.90112400  0.89428600  1
  C  91  1  0.09456400  0.92024100  0.88412200  1
  C  92  1  0.09416700  0.94979300  0.89121600  1
  C  93  1  0.12800700  0.95955800  0.91039300  1
  C  94  1  0.16290000  0.94184000  0.92001500  1
  C  95  1  0.24978900  0.85362600  0.91807300  1
  C  96  1  0.25642800  0.82512000  0.91103200  1
  C  97  1  0.22019900  0.80861700  0.89994300  1
  C  98  1  0.17753500  0.82244900  0.89430700  1
  C  99  1  0.08545800  0.85885900  0.90575900  1
  C  100  1  0.04834800  0.84601100  0.89086900  1
  C  101  1  0.09185300  0.84670600  0.84497500  1
  C  102  1  0.12702400  0.86384100  0.85703200  1
  C  103  1  0.09344500  0.83818400  0.81625500  1
  C  104  1  0.12845200  0.84775500  0.79858700  1
  C  105  1  0.16229900  0.86689500  0.80841400  1
  C  106  1  0.16188600  0.87391500  0.83798300  1
  C  107  1  0.07833200  0.86404100  0.93560000  1
  C  108  1  0.03553100  0.85861000  0.94935200  1
  C  109  1  0.99933600  0.84755400  0.93279300  1
  C  110  1  0.00609200  0.84042000  0.90431800  1
  C  123  1  0.12807500  0.86887400  0.88927800  1
  C  124  1  0.05124100  0.83725600  0.86086700  1
  C  127  1  0.20486500  0.89716300  0.92105300  1
  C  130  1  0.67105800  0.65197900  0.11488500  1
  C  131  1  0.71018900  0.63726400  0.10427100  1
  C  132  1  0.67133300  0.58999800  0.10894200  1
  C  133  1  0.63116600  0.60276700  0.12038000  1
  C  134  1  0.59503100  0.58385000  0.12883600  1
  C  135  1  0.59912400  0.55372500  0.12667200  1
  C  136  1  0.64044500  0.54250800  0.11585300  1
  C  137  1  0.67562800  0.56020700  0.10663100  1
  C  138  1  0.75148000  0.65156400  0.09806500  1
  C  139  1  0.75547000  0.68071900  0.10263600  1
  C  140  1  0.71767600  0.69684100  0.11212400  1
  C  141  1  0.67576500  0.68224900  0.11815400  1
  C  142  1  0.58641400  0.64479100  0.10721300  1
  C  143  1  0.54717700  0.65562700  0.12165800  1
  C  144  1  0.58515900  0.65083500  0.16918300  1
  C  145  1  0.62543200  0.63918700  0.15673500  1
  C  146  1  0.58011700  0.65296000  0.19893800  1
  C  147  1  0.61462800  0.64334400  0.21692200  1
  C  148  1  0.65615100  0.63247600  0.20608300  1
  C  149  1  0.66100500  0.63047700  0.17597000  1
  C  150  1  0.58202600  0.64131900  0.07694000  1
  C  151  1  0.54031400  0.64733000  0.06211300  1
  C  152  1  0.50241000  0.65704600  0.07799800  1
  C  153  1  0.50611900  0.66187000  0.10712100  1
  C  166  1  0.62853400  0.63511300  0.12439500  1
  C  167  1  0.54514400  0.65996500  0.15261300  1
  C  170  1  0.71180000  0.60627300  0.10006200  1
  C  173  1  0.58800800  0.36188000  0.40379400  1
  C  174  1  0.55030300  0.34910700  0.38939400  1
  C  175  1  0.59327600  0.34774300  0.34327900  1
  C  176  1  0.62919900  0.36460900  0.35479600  1
  C  177  1  0.66391200  0.37401200  0.33532500  1
  C  178  1  0.66305500  0.36700500  0.30581000  1
  C  179  1  0.62868800  0.34798600  0.29646500  1
  C  180  1  0.59407100  0.33876600  0.31466300  1
  C  181  1  0.50812800  0.34430200  0.40322500  1
  C  182  1  0.50234200  0.35159200  0.43173800  1
  C  183  1  0.53940900  0.36204800  0.44795200  1
  C  184  1  0.58182800  0.36738200  0.43364800  1
  C  185  1  0.67282000  0.35441500  0.39744100  1
  C  186  1  0.71128600  0.36944500  0.40847700  1
  C  187  1  0.67302200  0.41656200  0.40079000  1
  C  188  1  0.63310600  0.40343500  0.38940000  1
  C  189  1  0.67773600  0.44640400  0.40147200  1
  C  190  1  0.64289600  0.46379000  0.39120800  1
  C  191  1  0.60126300  0.45231300  0.38113600  1
  C  192  1  0.59715600  0.42207700  0.38001700  1
  C  193  1  0.67824600  0.32415700  0.39426500  1
  C  194  1  0.72032900  0.30989400  0.40049600  1
  C  195  1  0.75712200  0.32622500  0.41109400  1
  C  196  1  0.75230900  0.35533800  0.41576700  1
  C  209  1  0.63063500  0.37091800  0.38679300  1
  C  210  1  0.71272300  0.40058300  0.41148200  1
  C  213  1  0.55243800  0.33949100  0.35959900  1
  C  216  1  0.08500300  0.14732900  0.60601600  1
  C  217  1  0.04770600  0.15978400  0.62106200  1
  C  218  1  0.09124600  0.15872100  0.66691000  1
  C  219  1  0.12666700  0.14195200  0.65462300  1
  C  220  1  0.16173500  0.13189000  0.67352500  1
  C  221  1  0.16225600  0.13873000  0.70313000  1
  C  222  1  0.12812100  0.15754900  0.71318900  1
  C  223  1  0.09282000  0.16700300  0.69569700  1
  C  224  1  0.00554400  0.16562400  0.60760900  1
  C  225  1  0.99922000  0.15938100  0.57889500  1
  C  226  1  0.03570500  0.14885200  0.56225200  1
  C  227  1  0.07827600  0.14290700  0.57603800  1
  C  228  1  0.17005400  0.15369500  0.61227000  1
  C  229  1  0.20744300  0.13887700  0.59965100  1
  C  230  1  0.16418800  0.09290000  0.60020100  1
  C  231  1  0.12872900  0.10490100  0.61714800  1
  C  232  1  0.16286800  0.06417600  0.59168000  1
  C  233  1  0.12785200  0.04643900  0.60110000  1
  C  234  1  0.09368000  0.05621300  0.62004100  1
  C  235  1  0.09388300  0.08577400  0.62709200  1
  C  236  1  0.17663000  0.18363400  0.61705800  1
  C  237  1  0.21915600  0.19758100  0.61136000  1
  C  238  1  0.25577800  0.18111200  0.60072900  1
  C  239  1  0.24955700  0.15248600  0.59403600  1
  C  252  1  0.12760500  0.13711800  0.62235300  1
  C  253  1  0.20493800  0.10882300  0.59105100  1
  C  256  1  0.05033200  0.16797400  0.65122100  1
  C  259  1  0.33872700  0.65201500  0.89803700  1
  C  260  1  0.30116200  0.63747300  0.91081700  1
  C  261  1  0.34479300  0.59165600  0.91253900  1
  C  262  1  0.38047200  0.60322700  0.89550700  1
  C  263  1  0.41530800  0.58384400  0.88611400  1
  C  264  1  0.41482500  0.55438300  0.89334500  1
  C  265  1  0.38077000  0.54504000  0.91258400  1
  C  266  1  0.34603300  0.56313800  0.92178800  1
  C  267  1  0.25872900  0.65105800  0.91543000  1
  C  268  1  0.25262200  0.67952100  0.90808000  1
  C  269  1  0.28955800  0.69590100  0.89771500  1
  C  270  1  0.33218700  0.68181900  0.89246000  1
  C  271  1  0.42380900  0.64611500  0.90517600  1
  C  272  1  0.46204500  0.65710400  0.88987900  1
  C  273  1  0.42311600  0.64922300  0.84303500  1
  C  274  1  0.38358800  0.63762700  0.85643700  1
  C  275  1  0.42724300  0.65005200  0.81316100  1
  C  276  1  0.39218500  0.63970500  0.79600700  1
  C  277  1  0.35101100  0.62926800  0.80780000  1
  C  278  1  0.34749000  0.62800600  0.83804500  1
  C  279  1  0.42962900  0.64320500  0.93542700  1
  C  280  1  0.47187300  0.64963900  0.94941500  1
  C  281  1  0.50843600  0.66012900  0.93282400  1
  C  282  1  0.50322600  0.66456500  0.90370700  1
  C  295  1  0.38151400  0.63518400  0.88897100  1
  C  296  1  0.46300200  0.66002900  0.85873200  1
  C  299  1  0.30370300  0.60777600  0.92065200  1
  C  302  1  0.83329300  0.85413500  0.11241100  1
  C  303  1  0.79481700  0.86917600  0.10139600  1
  C  304  1  0.83288900  0.91628700  0.10934900  1
  C  305  1  0.87277700  0.90317700  0.12080300  1
  C  306  1  0.90857300  0.92187200  0.13033500  1
  C  307  1  0.90431200  0.95211000  0.12927800  1
  C  308  1  0.86273700  0.96354000  0.11908100  1
  C  309  1  0.82804900  0.94612000  0.10870600  1
  C  310  1  0.75389000  0.85507700  0.09388700  1
  C  311  1  0.74909400  0.82595200  0.09843800  1
  C  312  1  0.78585300  0.80960800  0.10904700  1
  C  313  1  0.82789100  0.82386100  0.11542800  1
  C  314  1  0.91811600  0.86174500  0.10626100  1
  C  315  1  0.95592700  0.84907000  0.12065000  1
  C  316  1  0.91274500  0.84721300  0.16662700  1
  C  317  1  0.87676400  0.86408600  0.15518000  1
  C  318  1  0.91176800  0.83784900  0.19510900  1
  C  319  1  0.87691100  0.84672500  0.21328300  1
  C  320  1  0.84252100  0.86578500  0.20406800  1
  C  321  1  0.84187300  0.87320300  0.17465600  1
  C  322  1  0.92421400  0.86720500  0.07640400  1
  C  323  1  0.96660800  0.86185400  0.06209800  1
  C  324  1  0.00379400  0.85153400  0.07828500  1
  C  325  1  0.99814700  0.84437800  0.10683500  1
  C  338  1  0.87538600  0.87063900  0.12323500  1
  C  339  1  0.95381600  0.83931300  0.15038400  1
  C  342  1  0.79330500  0.90031400  0.09851400  1
  C  345  1  0.08509700  0.86173500  0.60708800  1
  C  346  1  0.04610900  0.85086100  0.62176100  1
  C  347  1  0.08455100  0.85596200  0.66910600  1
  C  348  1  0.12479600  0.86737500  0.65641400  1
  C  349  1  0.16071400  0.87598500  0.67545000  1
  C  350  1  0.15619800  0.87417500  0.70559600  1
  C  351  1  0.11459600  0.86365100  0.71667300  1
  C  352  1  0.07979600  0.85405400  0.69889400  1
  C  353  1  0.00489500  0.84448100  0.60745500  1
  C  354  1  0.00069000  0.84933200  0.57836800  1
  C  355  1  0.03822600  0.85923200  0.56225500  1
  C  356  1  0.08018500  0.86524500  0.57684000  1
  C  357  1  0.16977200  0.85406700  0.61447200  1
  C  358  1  0.20901200  0.86850900  0.60364300  1
  C  359  1  0.17103100  0.91604600  0.60835200  1
  C  360  1  0.13068200  0.90361400  0.61991500  1
  C  361  1  0.17610500  0.94579800  0.60621200  1
  C  362  1  0.14154800  0.96380100  0.61572800  1
  C  363  1  0.09993100  0.95298900  0.62648700  1
  C  364  1  0.09505700  0.92287400  0.62850800  1
  C  365  1  0.17421400  0.82379000  0.61798500  1
  C  366  1  0.21596900  0.80896000  0.61203400  1
  C  367  1  0.25383300  0.82486300  0.60228300  1
  C  368  1  0.25008100  0.85397500  0.59741000  1
  C  381  1  0.12757600  0.87127200  0.62403500  1
  C  382  1  0.21107000  0.89946100  0.59929700  1
  C  385  1  0.04441200  0.84668700  0.65274700  1
  C  388  1  0.58544400  0.64553700  0.40666500  1
  C  389  1  0.54847900  0.65859000  0.39181100  1
  C  390  1  0.59212800  0.65813600  0.34596700  1
  C  391  1  0.62721800  0.64087500  0.35793900  1
  C  392  1  0.66209800  0.63092000  0.33882800  1
  C  393  1  0.66268800  0.63822600  0.30932100  1
  C  394  1  0.62879800  0.65739400  0.29960200  1
  C  395  1  0.59378700  0.66686500  0.31731300  1
  C  396  1  0.50623900  0.66427500  0.40524100  1
  C  397  1  0.49941800  0.65718100  0.43371200  1
  C  398  1  0.53550200  0.64601000  0.45028600  1
  C  399  1  0.57821500  0.64032100  0.43650000  1
  C  400  1  0.67068100  0.65174900  0.40054700  1
  C  401  1  0.70744000  0.63660100  0.41348800  1
  C  402  1  0.66380200  0.59078200  0.41182100  1
  C  403  1  0.62882500  0.60316800  0.39476800  1
  C  404  1  0.66221800  0.56188900  0.41973900  1
  C  405  1  0.62742700  0.54436200  0.40962800  1
  C  406  1  0.59362600  0.55456000  0.39063900  1
  C  407  1  0.59405400  0.58428700  0.38424200  1
  C  408  1  0.67817800  0.68162900  0.39574800  1
  C  409  1  0.72099400  0.69518700  0.40167400  1
  C  410  1  0.75681400  0.67837800  0.41281900  1
  C  411  1  0.74969100  0.64985000  0.41955500  1
  C  424  1  0.62804000  0.63549700  0.39014900  1
  C  425  1  0.70427300  0.60648700  0.42178900  1
  C  428  1  0.55147800  0.66749600  0.36186300  1
  C  431  1  0.83592200  0.15266700  0.11293800  1
  C  432  1  0.79887500  0.13785100  0.09993500  1
  C  433  1  0.84196500  0.09180200  0.10090500  1
  C  434  1  0.87728800  0.10381300  0.11795500  1
  C  435  1  0.91191500  0.08461700  0.12811100  1
  C  436  1  0.91190500  0.05496400  0.12133300  1
  C  437  1  0.87771700  0.04516200  0.10241300  1
  C  438  1  0.84305200  0.06298800  0.09266400  1
  C  439  1  0.75676900  0.15138200  0.09411400  1
  C  440  1  0.75011200  0.17989500  0.10109700  1
  C  441  1  0.78628200  0.19642400  0.11222300  1
  C  442  1  0.82890200  0.18255600  0.11799200  1
  C  443  1  0.92105400  0.14624000  0.10661200  1
  C  444  1  0.95809000  0.15906100  0.12159800  1
  C  445  1  0.91468100  0.15792000  0.16752400  1
  C  446  1  0.87937600  0.14098500  0.15533400  1
  C  447  1  0.91326900  0.16617100  0.19632800  1
  C  448  1  0.87824500  0.15656900  0.21395900  1
  C  449  1  0.84412500  0.13768900  0.20399400  1
  C  450  1  0.84445000  0.13089800  0.17435200  1
  C  451  1  0.92817300  0.14146200  0.07668900  1
  C  452  1  0.97083100  0.14737100  0.06291700  1
  C  453  1  0.00694600  0.15835900  0.07958500  1
  C  454  1  0.00024100  0.16500900  0.10817300  1
  C  467  1  0.87842600  0.13608200  0.12304100  1
  C  468  1  0.95530000  0.16744800  0.15170200  1
  C  471  1  0.80157300  0.10780900  0.09131100  1
  C  474  1  0.33429400  0.35382600  0.89656000  1
  C  475  1  0.29551100  0.36872500  0.90741200  1
  C  476  1  0.33491800  0.41581400  0.90271600  1
  C  477  1  0.37484700  0.40288100  0.89115200  1
  C  478  1  0.41112300  0.42165900  0.88259300  1
  C  479  1  0.40730800  0.45180800  0.88468600  1
  C  480  1  0.36610300  0.46318300  0.89550900  1
  C  481  1  0.33088800  0.44562400  0.90494400  1
  C  482  1  0.25398200  0.35467500  0.91356900  1
  C  483  1  0.24931000  0.32563300  0.90858300  1
  C  484  1  0.28667100  0.30928900  0.89880500  1
  C  485  1  0.32890400  0.32362500  0.89294200  1
  C  486  1  0.41907200  0.36068400  0.90437400  1
  C  487  1  0.45824400  0.34970200  0.88997700  1
  C  488  1  0.42049100  0.35466000  0.84240800  1
  C  489  1  0.38029000  0.36647000  0.85479800  1
  C  490  1  0.42570400  0.35262600  0.81266000  1
  C  491  1  0.39146100  0.36252200  0.79463700  1
  C  492  1  0.34998200  0.37352300  0.80540200  1
  C  493  1  0.34493700  0.37540800  0.83551200  1
  C  494  1  0.42349400  0.36424400  0.93464000  1
  C  495  1  0.46517800  0.35819900  0.94949000  1
  C  496  1  0.50301400  0.34833300  0.93363200  1
  C  497  1  0.49925700  0.34339000  0.90453600  1
  C  510  1  0.37708900  0.37051300  0.88713800  1
  C  511  1  0.46031100  0.34531200  0.85903100  1
  C  514  1  0.29441600  0.39969600  0.91181600  1
  C  517  1  0.41719700  0.64446300  0.60711100  1
  C  518  1  0.45488500  0.65730600  0.62147000  1
  C  519  1  0.41202400  0.65873000  0.66761500  1
  C  520  1  0.37607800  0.64183900  0.65616200  1
  C  521  1  0.34156900  0.63234600  0.67573900  1
  C  522  1  0.34270900  0.63922500  0.70529100  1
  C  523  1  0.37717100  0.65820200  0.71458700  1
  C  524  1  0.41149000  0.66759800  0.69626700  1
  C  525  1  0.49709700  0.66203000  0.60765700  1
  C  526  1  0.50295500  0.65458800  0.57919400  1
  C  527  1  0.46590800  0.64410300  0.56298100  1
  C  528  1  0.42344600  0.63884400  0.57727800  1
  C  529  1  0.33226500  0.65175800  0.61344900  1
  C  530  1  0.29389800  0.63654600  0.60252200  1
  C  531  1  0.33245600  0.58958400  0.61050100  1
  C  532  1  0.37235200  0.60288000  0.62171300  1
  C  533  1  0.32790500  0.55973000  0.61000400  1
  C  534  1  0.36292900  0.54248600  0.62024700  1
  C  535  1  0.40457900  0.55411700  0.63011600  1
  C  536  1  0.40849000  0.58436800  0.63108600  1
  C  537  1  0.32659100  0.68203000  0.61636900  1
  C  538  1  0.28443300  0.69613700  0.60991500  1
  C  539  1  0.24779000  0.67961300  0.59942900  1
  C  540  1  0.25279700  0.65047200  0.59506300  1
  C  553  1  0.37460000  0.63542200  0.62417100  1
  C  554  1  0.29261200  0.60538700  0.59978300  1
  C  557  1  0.45276000  0.66702300  0.65122900  1
  C  560  1  0.92148500  0.86055800  0.40508300  1
  C  561  1  0.96037700  0.84969300  0.39030300  1
  C  562  1  0.92155100  0.85476200  0.34305700  1
  C  563  1  0.88152500  0.86630900  0.35588100  1
  C  564  1  0.84553400  0.87511500  0.33701300  1
  C  565  1  0.84973600  0.87330300  0.30687100  1
  C  566  1  0.89102300  0.86249800  0.29560300  1
  C  567  1  0.92595200  0.85280500  0.31324700  1
  C  568  1  0.00175300  0.84347700  0.40449800  1
  C  569  1  0.00622800  0.84854100  0.43354100  1
  C  570  1  0.96880500  0.85845600  0.44974800  1
  C  571  1  0.92665100  0.86423300  0.43529300  1
  C  572  1  0.83675200  0.85283000  0.39774100  1
  C  573  1  0.79750100  0.86720500  0.40864500  1
  C  574  1  0.83560700  0.91475200  0.40439000  1
  C  575  1  0.87576600  0.90238000  0.39252100  1
  C  576  1  0.83072200  0.94449400  0.40684600  1
  C  577  1  0.86517800  0.96251500  0.39720200  1
  C  578  1  0.90649600  0.95171000  0.38599300  1
  C  579  1  0.91127100  0.92162700  0.38377000  1
  C  580  1  0.83226800  0.82260700  0.39386400  1
  C  581  1  0.79041900  0.80776800  0.39946600  1
  C  582  1  0.75247700  0.82361300  0.40920400  1
  C  583  1  0.75631300  0.85265100  0.41452200  1
  C  596  1  0.87890300  0.87008400  0.38825500  1
  C  597  1  0.79560200  0.89811000  0.41342000  1
  C  600  1  0.96178200  0.84542700  0.35931100  1
  C  603  1  0.66757900  0.35315900  0.11334200  1
  C  604  1  0.70518800  0.36761000  0.10050700  1
  C  605  1  0.66186200  0.41355700  0.09877900  1
  C  606  1  0.62606600  0.40206300  0.11576900  1
  C  607  1  0.59133600  0.42152900  0.12514600  1
  C  608  1  0.59208300  0.45100200  0.11798800  1
  C  609  1  0.62628900  0.46030500  0.09884200  1
  C  610  1  0.66088500  0.44210700  0.08961100  1
  C  611  1  0.74756200  0.35394600  0.09592100  1
  C  612  1  0.75360200  0.32550900  0.10339500  1
  C  613  1  0.71665800  0.30919900  0.11386100  1
  C  614  1  0.67406100  0.32336700  0.11905200  1
  C  615  1  0.58245800  0.35925400  0.10621300  1
  C  616  1  0.54419800  0.34838900  0.12158100  1
  C  617  1  0.58321600  0.35639700  0.16836900  1
  C  618  1  0.62281000  0.36781900  0.15489600  1
  C  619  1  0.57905100  0.35582400  0.19824400  1
  C  620  1  0.61411700  0.36628600  0.21532200  1
  C  621  1  0.65534600  0.37656700  0.20346600  1
  C  622  1  0.65895200  0.37750100  0.17321900  1
  C  623  1  0.57652100  0.36216800  0.07596900  1
  C  624  1  0.53415800  0.35586700  0.06205600  1
  C  625  1  0.49759400  0.34548900  0.07871900  1
  C  626  1  0.50291100  0.34103000  0.10782200  1
  C  639  1  0.62486600  0.37011700  0.12235700  1
  C  640  1  0.54329300  0.34555300  0.15273700  1
  C  643  1  0.70281000  0.39730900  0.09064100  1
  C  646  1  0.17058700  0.15181800  0.89721700  1
  C  647  1  0.20956700  0.13738500  0.90841000  1
  C  648  1  0.17151100  0.08986600  0.90371400  1
  C  649  1  0.13142200  0.10228900  0.89181300  1
  C  650  1  0.09590800  0.08305000  0.88300900  1
  C  651  1  0.10070200  0.05294000  0.88508300  1
  C  652  1  0.14212100  0.04212100  0.89612500  1
  C  653  1  0.17649300  0.06011300  0.90592700  1
  C  654  1  0.25065300  0.15187400  0.91469400  1
  C  655  1  0.25476900  0.18088600  0.90936100  1
  C  656  1  0.21722100  0.19678900  0.89914400  1
  C  657  1  0.17536100  0.18202800  0.89328800  1
  C  658  1  0.08605500  0.14403600  0.90499500  1
  C  659  1  0.04680300  0.15488700  0.89058900  1
  C  660  1  0.08464800  0.15005300  0.84300300  1
  C  661  1  0.12509900  0.13862000  0.85542100  1
  C  662  1  0.07943500  0.15197200  0.81324500  1
  C  663  1  0.11393800  0.14235600  0.79524700  1
  C  664  1  0.15572800  0.13184300  0.80604800  1
  C  665  1  0.16073400  0.13003200  0.83616700  1
  C  666  1  0.08158100  0.14031500  0.93525100  1
  C  667  1  0.03978900  0.14608600  0.95011100  1
  C  668  1  0.00195200  0.15595400  0.93424900  1
  C  669  1  0.00572400  0.16101400  0.90516200  1
  C  682  1  0.12830900  0.13463200  0.88777100  1
  C  683  1  0.04470700  0.15923100  0.85962900  1
  C  686  1  0.21133300  0.10646900  0.91310400  1
  C  689  1  0.72967600  0.27979900  0.39776900  1
  C  690  1  0.74039800  0.26489400  0.42347500  1
  C  691  1  0.77036300  0.24086800  0.42262000  1
  C  692  1  0.77949100  0.22712900  0.39604200  1
  C  693  1  0.76421100  0.24014500  0.37017600  1
  C  694  1  0.74362000  0.26795900  0.37101800  1
  C  707  1  0.22819400  0.22776200  0.61325300  1
  C  708  1  0.23759400  0.24190800  0.58693500  1
  C  709  1  0.26753800  0.26593800  0.58659600  1
  C  710  1  0.27772900  0.28049400  0.61258800  1
  C  711  1  0.26370300  0.26818100  0.63909100  1
  C  712  1  0.24323300  0.24031800  0.63940500  1
  C  725  1  0.97506400  0.86332300  0.03180100  1
  C  726  1  0.98425400  0.83674200  0.01806200  1
  C  727  1  0.01461300  0.83582600  0.99423500  1
  C  728  1  0.02559300  0.86152800  0.97937500  1
  C  729  1  0.01168300  0.88828700  0.99114600  1
  C  730  1  0.99067100  0.88914400  0.01884200  1
  C  743  1  0.48166900  0.64714200  0.97945900  1
  C  744  1  0.49247700  0.67297900  0.99412100  1
  C  745  1  0.52279800  0.67235000  0.01797700  1
  C  746  1  0.53242000  0.64588000  0.03177100  1
  C  747  1  0.51714300  0.61988000  0.01899700  1
  C  748  1  0.49604200  0.62050000  0.99133300  1
  C  761  1  0.27471800  0.72621800  0.61236800  1
  C  762  1  0.26401300  0.74088600  0.58651700  1
  C  763  1  0.23370900  0.76476800  0.58707100  1
  C  764  1  0.22399300  0.77860900  0.61350900  1
  C  765  1  0.23921500  0.76584600  0.63953000  1
  C  766  1  0.26022900  0.73814500  0.63896800  1
  C  779  1  0.78255200  0.77741700  0.39785000  1
  C  780  1  0.77289000  0.76359500  0.42430000  1
  C  781  1  0.74233100  0.73985400  0.42491800  1
  C  782  1  0.73147600  0.72517100  0.39908900  1
  C  783  1  0.74579700  0.73707900  0.37245900  1
  C  784  1  0.76709300  0.76469900  0.37186500  1
  C  797  1  0.03173100  0.14425600  0.98044700  1
  C  798  1  0.02179000  0.17057400  0.99448400  1
  C  799  1  0.99136700  0.17091900  0.01831100  1
  C  800  1  0.98087100  0.14494100  0.03284500  1
  C  801  1  0.99554500  0.11847500  0.02077600  1
  C  802  1  0.01662000  0.11814700  0.99308600  1
  C  815  1  0.52422100  0.35835800  0.03202300  1
  C  816  1  0.51307400  0.33254100  0.01743000  1
  C  817  1  0.48257700  0.33323400  0.99366000  1
  C  818  1  0.47312700  0.35970600  0.97982800  1
  C  819  1  0.48873400  0.38567200  0.99251600  1
  C  820  1  0.51000600  0.38503000  0.02013100  1
  C  833  1  0.23002300  0.77857500  0.89724800  1
  C  834  1  0.24022700  0.76376400  0.92308700  1
  C  835  1  0.27065300  0.73996500  0.92259400  1
  C  836  1  0.28059400  0.72614300  0.89617200  1
  C  837  1  0.26582000  0.73903800  0.87011800  1
  C  838  1  0.24470500  0.76672000  0.87067500  1
  C  851  1  0.72583000  0.72715800  0.11338900  1
  C  852  1  0.73551000  0.74074100  0.08681000  1
  C  853  1  0.76574600  0.76464200  0.08601900  1
  C  854  1  0.77641300  0.77953200  0.11174700  1
  C  855  1  0.76215400  0.76778800  0.13847200  1
  C  856  1  0.74120400  0.74008700  0.13928100  1
  C  869  1  0.48069900  0.36283900  0.53084700  1
  C  870  1  0.49073500  0.33692400  0.51611500  1
  C  871  1  0.52089300  0.33733300  0.49217000  1
  C  872  1  0.53079200  0.36372600  0.47825800  1
  C  873  1  0.51620400  0.38981800  0.49114700  1
  C  874  1  0.49540100  0.38936600  0.51891800  1
  C  887  1  0.97681900  0.14757700  0.47942800  1
  C  888  1  0.98692400  0.17361500  0.49388000  1
  C  889  1  0.01676000  0.17335500  0.51796200  1
  C  890  1  0.02632600  0.14706700  0.53212500  1
  C  891  1  0.01153600  0.12085200  0.51956500  1
  C  892  1  0.99107900  0.12109600  0.49170800  1
  C  905  1  0.77636200  0.22649300  0.11478400  1
  C  906  1  0.76615800  0.24119800  0.08887800  1
  C  907  1  0.73566800  0.26497700  0.08923600  1
  C  908  1  0.72565500  0.27894400  0.11557100  1
  C  909  1  0.74041200  0.26616000  0.14168800  1
  C  910  1  0.76154000  0.23847100  0.14127700  1
  C  923  1  0.27757500  0.27907200  0.89690300  1
  C  924  1  0.26665400  0.26509900  0.92310200  1
  C  925  1  0.23587400  0.24144500  0.92308900  1
  C  926  1  0.22576800  0.22704100  0.89699500  1
  C  927  1  0.24101800  0.23922200  0.87069000  1
  C  928  1  0.26270800  0.26672100  0.87061300  1
  C  941  1  0.52550300  0.64334800  0.48034700  1
  C  942  1  0.51515500  0.66924400  0.49503900  1
  C  943  1  0.48462000  0.66879400  0.51879700  1
  C  944  1  0.47464200  0.64239700  0.53267800  1
  C  945  1  0.48948800  0.61632900  0.51985400  1
  C  946  1  0.51067800  0.61681000  0.49218900  1
  C  959  1  0.02950900  0.86101200  0.53199900  1
  C  960  1  0.01933700  0.83476000  0.51792600  1
  C  961  1  0.98864500  0.83451500  0.49423200  1
  C  962  1  0.97780000  0.86055400  0.47995600  1
  C  963  1  0.99244000  0.88699300  0.49213700  1
  C  964  1  0.01416500  0.88720600  0.51962500  1
  C  977  1  0.81570200  0.12195900  0.28595100  1
  C  978  1  0.79248900  0.14529000  0.27292000  1
  C  979  1  0.78972000  0.14676700  0.24249400  1
  C  980  1  0.81376900  0.12632700  0.22560900  1
  C  981  1  0.82728100  0.10016000  0.23869500  1
  C  982  1  0.82662600  0.09762600  0.26911900  1
  C  995  1  0.31439500  0.37947700  0.72382200  1
  C  996  1  0.28982900  0.35879300  0.74009300  1
  C  997  1  0.29256300  0.35944600  0.77054200  1
  C  998  1  0.31689400  0.38197300  0.78424300  1
  C  999  1  0.32893500  0.40658600  0.76806900  1
  C  1000  1  0.32885000  0.40505100  0.73758200  1
  C  1013  1  0.06422700  0.97149600  0.87960500  1
  C  1014  1  0.03974400  0.98806400  0.90010100  1
  C  1015  1  0.04301900  0.01849000  0.89928000  1
  C  1016  1  0.06747600  0.03184700  0.87658800  1
  C  1017  1  0.07949200  0.01543900  0.85216300  1
  C  1018  1  0.07904300  0.98497500  0.85396000  1
  C  1031  1  0.56480900  0.53309200  0.13457600  1
  C  1032  1  0.54087600  0.52029500  0.11141900  1
  C  1033  1  0.53832300  0.48990200  0.10965300  1
  C  1034  1  0.56295800  0.47294400  0.12975100  1
  C  1035  1  0.57771800  0.48577000  0.15581500  1
  C  1036  1  0.57671300  0.51614700  0.15864300  1
  C  1049  1  0.69222500  0.37877400  0.28387000  1
  C  1050  1  0.71658200  0.35874000  0.26667600  1
  C  1051  1  0.71437500  0.36103400  0.23629700  1
  C  1052  1  0.69041100  0.38428900  0.22369900  1
  C  1053  1  0.67918200  0.40823800  0.24100000  1
  C  1054  1  0.67805800  0.40510500  0.27134700  1
  C  1067  1  0.19268400  0.12714000  0.72459200  1
  C  1068  1  0.21681200  0.14771600  0.74122500  1
  C  1069  1  0.21346900  0.14670600  0.77164200  1
  C  1070  1  0.18922200  0.12388900  0.78492300  1
  C  1071  1  0.17780000  0.09941700  0.76836400  1
  C  1072  1  0.17806000  0.10137300  0.73790800  1
  C  1085  1  0.44390900  0.53247600  0.88146700  1
  C  1086  1  0.46845200  0.51546500  0.90158200  1
  C  1087  1  0.46569900  0.48507300  0.89982100  1
  C  1088  1  0.44171900  0.47233000  0.87663200  1
  C  1089  1  0.42998600  0.48930700  0.85257600  1
  C  1090  1  0.42923200  0.51968800  0.85537900  1
  C  1103  1  0.93872400  0.97285200  0.13694900  1
  C  1104  1  0.96259100  0.98582100  0.11382200  1
  C  1105  1  0.96577200  0.01623500  0.11233100  1
  C  1106  1  0.94197300  0.03318900  0.13280300  1
  C  1107  1  0.92769300  0.02019400  0.15883200  1
  C  1108  1  0.92769700  0.98976000  0.16124600  1
  C  1121  1  0.19018000  0.88214600  0.72645300  1
  C  1122  1  0.21392600  0.85911300  0.73963700  1
  C  1123  1  0.21691800  0.85798500  0.77005900  1
  C  1124  1  0.19244700  0.87836400  0.78677100  1
  C  1125  1  0.17820100  0.90427900  0.77347800  1
  C  1126  1  0.17852300  0.90652400  0.74303700  1
  C  1139  1  0.69283500  0.62683800  0.28759000  1
  C  1140  1  0.71713100  0.64750700  0.27113800  1
  C  1141  1  0.71380600  0.64686700  0.24070800  1
  C  1142  1  0.68947900  0.62423500  0.22718000  1
  C  1143  1  0.67785200  0.59961400  0.24346200  1
  C  1144  1  0.67833900  0.60121500  0.27394500  1
  C  1157  1  0.31385400  0.62731100  0.72732800  1
  C  1158  1  0.28976000  0.64732400  0.74471700  1
  C  1159  1  0.29217600  0.64484900  0.77508500  1
  C  1160  1  0.31613000  0.62144000  0.78747900  1
  C  1161  1  0.32717900  0.59761400  0.77001100  1
  C  1162  1  0.32797500  0.60089900  0.73967500  1
  C  1175  1  0.81550300  0.88145700  0.28628100  1
  C  1176  1  0.79143700  0.85846900  0.27327600  1
  C  1177  1  0.78877400  0.85702800  0.24286700  1
  C  1178  1  0.81330900  0.87731700  0.22608400  1
  C  1179  1  0.82810400  0.90324100  0.23917300  1
  C  1180  1  0.82742800  0.90569500  0.26958300  1
  C  1193  1  0.56655400  0.47293800  0.37360000  1
  C  1194  1  0.54270000  0.48549300  0.39694900  1
  C  1195  1  0.53942600  0.51587600  0.39886900  1
  C  1196  1  0.56340300  0.53312400  0.37872500  1
  C  1197  1  0.57768700  0.52055300  0.35248400  1
  C  1198  1  0.57759800  0.49016600  0.34956300  1
  C  1211  1  0.06358000  0.03451200  0.63148600  1
  C  1212  1  0.03933200  0.01797700  0.61085900  1
  C  1213  1  0.04238800  0.98754300  0.61177800  1
  C  1214  1  0.06652600  0.97411800  0.63454900  1
  C  1215  1  0.07809200  0.99055800  0.65907200  1
  C  1216  1  0.07801200  0.02102300  0.65721300  1
  C  1229  1  0.94150300  0.03296900  0.38123100  1
  C  1230  1  0.96613900  0.01646500  0.40170400  1
  C  1231  1  0.96392100  0.98603400  0.40038200  1
  C  1232  1  0.93980300  0.97273200  0.37753200  1
  C  1233  1  0.92751100  0.98926200  0.35325700  1
  C  1234  1  0.92678100  0.01969000  0.35542900  1
  C  1247  1  0.44270900  0.47345600  0.63224000  1
  C  1248  1  0.46629600  0.49078200  0.61198200  1
  C  1249  1  0.46323800  0.52115900  0.61412200  1
  C  1250  1  0.43951800  0.53361200  0.63757300  1
  C  1251  1  0.42869300  0.51629000  0.66158500  1
  C  1252  1  0.42882000  0.48590900  0.65861900  1
  C  1265  1  0.33240200  0.14637000  0.40460700  1
  C  1266  1  0.37116600  0.15706800  0.38962600  1
  C  1267  1  0.33315600  0.14925600  0.34247500  1
  C  1268  1  0.29301100  0.13812500  0.35556300  1
  C  1269  1  0.25715300  0.12870800  0.33687300  1
  C  1270  1  0.26156800  0.12957200  0.30664500  1
  C  1271  1  0.30336200  0.13944600  0.29523000  1
  C  1272  1  0.33811300  0.14974700  0.31264600  1
  C  1273  1  0.41215900  0.16427000  0.40381000  1
  C  1274  1  0.41658300  0.15989500  0.43298800  1
  C  1275  1  0.37940700  0.14973000  0.44925100  1
  C  1276  1  0.33741000  0.14353000  0.43491100  1
  C  1277  1  0.24760300  0.15260300  0.39705700  1
  C  1278  1  0.20979200  0.13816900  0.40968300  1
  C  1279  1  0.25293700  0.09216700  0.41132400  1
  C  1280  1  0.28895900  0.10369100  0.39454100  1
  C  1281  1  0.25391400  0.06364800  0.42057400  1
  C  1282  1  0.28889000  0.04555000  0.41172900  1
  C  1283  1  0.32336300  0.05485900  0.39278100  1
  C  1284  1  0.32393200  0.08427600  0.38541800  1
  C  1285  1  0.24157700  0.18250000  0.39180900  1
  C  1286  1  0.19925200  0.19682100  0.39734500  1
  C  1287  1  0.16206400  0.18061300  0.40762200  1
  C  1288  1  0.16763400  0.15199900  0.41453300  1
  C  1301  1  0.29031000  0.13565100  0.38808200  1
  C  1302  1  0.21182800  0.10836600  0.41923300  1
  C  1305  1  0.37291500  0.15981200  0.35847900  1
  C  1308  1  0.83294000  0.36088500  0.60474500  1
  C  1309  1  0.87003500  0.34789400  0.61952600  1
  C  1310  1  0.82664300  0.34841400  0.66547900  1
  C  1311  1  0.79144300  0.36560000  0.65353300  1
  C  1312  1  0.75652200  0.37549500  0.67264000  1
  C  1313  1  0.75596000  0.36815200  0.70212500  1
  C  1314  1  0.78988400  0.34900000  0.71182000  1
  C  1315  1  0.82501100  0.33965700  0.69412500  1
  C  1316  1  0.91212000  0.34213200  0.60594700  1
  C  1317  1  0.91863300  0.34907500  0.57740600  1
  C  1318  1  0.88239500  0.36022400  0.56094700  1
  C  1319  1  0.83984300  0.36599000  0.57487100  1
  C  1320  1  0.74793300  0.35438100  0.61112700  1
  C  1321  1  0.71068400  0.36929400  0.59846700  1
  C  1322  1  0.75373000  0.41535600  0.59979700  1
  C  1323  1  0.78918500  0.40315800  0.61660400  1
  C  1324  1  0.75484200  0.44425500  0.59186300  1
  C  1325  1  0.78961000  0.46194600  0.60173500  1
  C  1326  1  0.82383900  0.45191000  0.62051500  1
  C  1327  1  0.82389700  0.42219000  0.62690600  1
  C  1328  1  0.74115800  0.32444900  0.61591700  1
  C  1329  1  0.69853700  0.31059800  0.61025600  1
  C  1330  1  0.66216100  0.32712900  0.59939500  1
  C  1331  1  0.66857800  0.35573900  0.59269100  1
  C  1344  1  0.79040800  0.37086700  0.62132500  1
  C  1345  1  0.71323900  0.39944100  0.59017300  1
  C  1348  1  0.86727200  0.33909400  0.64952300  1
  C  1351  1  0.58188800  0.85232100  0.89939300  1
  C  1352  1  0.61897300  0.86714700  0.91234100  1
  C  1353  1  0.57571600  0.91311900  0.91150100  1
  C  1354  1  0.54059300  0.90112400  0.89428600  1
  C  1355  1  0.50589200  0.92024100  0.88412200  1
  C  1356  1  0.50549500  0.94979300  0.89121600  1
  C  1357  1  0.53933500  0.95955800  0.91039300  1
  C  1358  1  0.57422800  0.94184000  0.92001500  1
  C  1359  1  0.66111700  0.85362600  0.91807300  1
  C  1360  1  0.66775600  0.82512000  0.91103200  1
  C  1361  1  0.63152700  0.80861700  0.89994300  1
  C  1362  1  0.58886300  0.82244900  0.89430700  1
  C  1363  1  0.49678600  0.85885900  0.90575900  1
  C  1364  1  0.45967600  0.84601100  0.89086900  1
  C  1365  1  0.50318100  0.84670600  0.84497500  1
  C  1366  1  0.53835200  0.86384100  0.85703200  1
  C  1367  1  0.50477300  0.83818400  0.81625500  1
  C  1368  1  0.53978000  0.84775500  0.79858700  1
  C  1369  1  0.57362700  0.86689500  0.80841400  1
  C  1370  1  0.57321400  0.87391500  0.83798300  1
  C  1371  1  0.48966000  0.86404100  0.93560000  1
  C  1372  1  0.44685900  0.85861000  0.94935200  1
  C  1373  1  0.41066400  0.84755400  0.93279300  1
  C  1374  1  0.41742000  0.84042000  0.90431800  1
  C  1387  1  0.53940300  0.86887400  0.88927800  1
  C  1388  1  0.46256900  0.83725600  0.86086700  1
  C  1391  1  0.61619300  0.89716300  0.92105300  1
  C  1394  1  0.08238600  0.65197900  0.11488500  1
  C  1395  1  0.12151700  0.63726400  0.10427100  1
  C  1396  1  0.08266100  0.58999800  0.10894200  1
  C  1397  1  0.04249400  0.60276700  0.12038000  1
  C  1398  1  0.00635897  0.58385000  0.12883600  1
  C  1399  1  0.01045200  0.55372500  0.12667200  1
  C  1400  1  0.05177300  0.54250800  0.11585300  1
  C  1401  1  0.08695600  0.56020700  0.10663100  1
  C  1402  1  0.16280800  0.65156400  0.09806500  1
  C  1403  1  0.16679800  0.68071900  0.10263600  1
  C  1404  1  0.12900400  0.69684100  0.11212400  1
  C  1405  1  0.08709300  0.68224900  0.11815400  1
  C  1406  1  0.99774200  0.64479100  0.10721300  1
  C  1407  1  0.95850500  0.65562700  0.12165800  1
  C  1408  1  0.99648700  0.65083500  0.16918300  1
  C  1409  1  0.03676000  0.63918700  0.15673500  1
  C  1410  1  0.99144500  0.65296000  0.19893800  1
  C  1411  1  0.02595600  0.64334400  0.21692200  1
  C  1412  1  0.06747900  0.63247600  0.20608300  1
  C  1413  1  0.07233300  0.63047700  0.17597000  1
  C  1414  1  0.99335400  0.64131900  0.07694000  1
  C  1415  1  0.95164200  0.64733000  0.06211300  1
  C  1416  1  0.91373800  0.65704600  0.07799800  1
  C  1417  1  0.91744700  0.66187000  0.10712100  1
  C  1430  1  0.03986200  0.63511300  0.12439500  1
  C  1431  1  0.95647200  0.65996500  0.15261300  1
  C  1434  1  0.12312800  0.60627300  0.10006200  1
  C  1437  1  0.99933600  0.36188000  0.40379400  1
  C  1438  1  0.96163100  0.34910700  0.38939400  1
  C  1439  1  0.00460397  0.34774300  0.34327900  1
  C  1440  1  0.04052700  0.36460900  0.35479600  1
  C  1441  1  0.07524000  0.37401200  0.33532500  1
  C  1442  1  0.07438300  0.36700500  0.30581000  1
  C  1443  1  0.04001600  0.34798600  0.29646500  1
  C  1444  1  0.00539897  0.33876600  0.31466300  1
  C  1445  1  0.91945600  0.34430200  0.40322500  1
  C  1446  1  0.91367000  0.35159200  0.43173800  1
  C  1447  1  0.95073700  0.36204800  0.44795200  1
  C  1448  1  0.99315600  0.36738200  0.43364800  1
  C  1449  1  0.08414800  0.35441500  0.39744100  1
  C  1450  1  0.12261400  0.36944500  0.40847700  1
  C  1451  1  0.08435000  0.41656200  0.40079000  1
  C  1452  1  0.04443400  0.40343500  0.38940000  1
  C  1453  1  0.08906400  0.44640400  0.40147200  1
  C  1454  1  0.05422400  0.46379000  0.39120800  1
  C  1455  1  0.01259100  0.45231300  0.38113600  1
  C  1456  1  0.00848397  0.42207700  0.38001700  1
  C  1457  1  0.08957400  0.32415700  0.39426500  1
  C  1458  1  0.13165700  0.30989400  0.40049600  1
  C  1459  1  0.16845000  0.32622500  0.41109400  1
  C  1460  1  0.16363700  0.35533800  0.41576700  1
  C  1473  1  0.04196300  0.37091800  0.38679300  1
  C  1474  1  0.12405100  0.40058300  0.41148200  1
  C  1477  1  0.96376600  0.33949100  0.35959900  1
  C  1480  1  0.49633100  0.14732900  0.60601600  1
  C  1481  1  0.45903400  0.15978400  0.62106200  1
  C  1482  1  0.50257400  0.15872100  0.66691000  1
  C  1483  1  0.53799500  0.14195200  0.65462300  1
  C  1484  1  0.57306300  0.13189000  0.67352500  1
  C  1485  1  0.57358400  0.13873000  0.70313000  1
  C  1486  1  0.53944900  0.15754900  0.71318900  1
  C  1487  1  0.50414800  0.16700300  0.69569700  1
  C  1488  1  0.41687200  0.16562400  0.60760900  1
  C  1489  1  0.41054800  0.15938100  0.57889500  1
  C  1490  1  0.44703300  0.14885200  0.56225200  1
  C  1491  1  0.48960400  0.14290700  0.57603800  1
  C  1492  1  0.58138200  0.15369500  0.61227000  1
  C  1493  1  0.61877100  0.13887700  0.59965100  1
  C  1494  1  0.57551600  0.09290000  0.60020100  1
  C  1495  1  0.54005700  0.10490100  0.61714800  1
  C  1496  1  0.57419600  0.06417600  0.59168000  1
  C  1497  1  0.53918000  0.04643900  0.60110000  1
  C  1498  1  0.50500800  0.05621300  0.62004100  1
  C  1499  1  0.50521100  0.08577400  0.62709200  1
  C  1500  1  0.58795800  0.18363400  0.61705800  1
  C  1501  1  0.63048400  0.19758100  0.61136000  1
  C  1502  1  0.66710600  0.18111200  0.60072900  1
  C  1503  1  0.66088500  0.15248600  0.59403600  1
  C  1516  1  0.53893300  0.13711800  0.62235300  1
  C  1517  1  0.61626600  0.10882300  0.59105100  1
  C  1520  1  0.46166000  0.16797400  0.65122100  1
  C  1523  1  0.75005500  0.65201500  0.89803700  1
  C  1524  1  0.71249000  0.63747300  0.91081700  1
  C  1525  1  0.75612100  0.59165600  0.91253900  1
  C  1526  1  0.79180000  0.60322700  0.89550700  1
  C  1527  1  0.82663600  0.58384400  0.88611400  1
  C  1528  1  0.82615300  0.55438300  0.89334500  1
  C  1529  1  0.79209800  0.54504000  0.91258400  1
  C  1530  1  0.75736100  0.56313800  0.92178800  1
  C  1531  1  0.67005700  0.65105800  0.91543000  1
  C  1532  1  0.66395000  0.67952100  0.90808000  1
  C  1533  1  0.70088600  0.69590100  0.89771500  1
  C  1534  1  0.74351500  0.68181900  0.89246000  1
  C  1535  1  0.83513700  0.64611500  0.90517600  1
  C  1536  1  0.87337300  0.65710400  0.88987900  1
  C  1537  1  0.83444400  0.64922300  0.84303500  1
  C  1538  1  0.79491600  0.63762700  0.85643700  1
  C  1539  1  0.83857100  0.65005200  0.81316100  1
  C  1540  1  0.80351300  0.63970500  0.79600700  1
  C  1541  1  0.76233900  0.62926800  0.80780000  1
  C  1542  1  0.75881800  0.62800600  0.83804500  1
  C  1543  1  0.84095700  0.64320500  0.93542700  1
  C  1544  1  0.88320100  0.64963900  0.94941500  1
  C  1545  1  0.91976400  0.66012900  0.93282400  1
  C  1546  1  0.91455400  0.66456500  0.90370700  1
  C  1559  1  0.79284200  0.63518400  0.88897100  1
  C  1560  1  0.87433000  0.66002900  0.85873200  1
  C  1563  1  0.71503100  0.60777600  0.92065200  1
  C  1566  1  0.24462100  0.85413500  0.11241100  1
  C  1567  1  0.20614500  0.86917600  0.10139600  1
  C  1568  1  0.24421700  0.91628700  0.10934900  1
  C  1569  1  0.28410500  0.90317700  0.12080300  1
  C  1570  1  0.31990100  0.92187200  0.13033500  1
  C  1571  1  0.31564000  0.95211000  0.12927800  1
  C  1572  1  0.27406500  0.96354000  0.11908100  1
  C  1573  1  0.23937700  0.94612000  0.10870600  1
  C  1574  1  0.16521800  0.85507700  0.09388700  1
  C  1575  1  0.16042200  0.82595200  0.09843800  1
  C  1576  1  0.19718100  0.80960800  0.10904700  1
  C  1577  1  0.23921900  0.82386100  0.11542800  1
  C  1578  1  0.32944400  0.86174500  0.10626100  1
  C  1579  1  0.36725500  0.84907000  0.12065000  1
  C  1580  1  0.32407300  0.84721300  0.16662700  1
  C  1581  1  0.28809200  0.86408600  0.15518000  1
  C  1582  1  0.32309600  0.83784900  0.19510900  1
  C  1583  1  0.28823900  0.84672500  0.21328300  1
  C  1584  1  0.25384900  0.86578500  0.20406800  1
  C  1585  1  0.25320100  0.87320300  0.17465600  1
  C  1586  1  0.33554200  0.86720500  0.07640400  1
  C  1587  1  0.37793600  0.86185400  0.06209800  1
  C  1588  1  0.41512200  0.85153400  0.07828500  1
  C  1589  1  0.40947500  0.84437800  0.10683500  1
  C  1602  1  0.28671400  0.87063900  0.12323500  1
  C  1603  1  0.36514400  0.83931300  0.15038400  1
  C  1606  1  0.20463300  0.90031400  0.09851400  1
  C  1609  1  0.49642500  0.86173500  0.60708800  1
  C  1610  1  0.45743700  0.85086100  0.62176100  1
  C  1611  1  0.49587900  0.85596200  0.66910600  1
  C  1612  1  0.53612400  0.86737500  0.65641400  1
  C  1613  1  0.57204200  0.87598500  0.67545000  1
  C  1614  1  0.56752600  0.87417500  0.70559600  1
  C  1615  1  0.52592400  0.86365100  0.71667300  1
  C  1616  1  0.49112400  0.85405400  0.69889400  1
  C  1617  1  0.41622300  0.84448100  0.60745500  1
  C  1618  1  0.41201800  0.84933200  0.57836800  1
  C  1619  1  0.44955400  0.85923200  0.56225500  1
  C  1620  1  0.49151300  0.86524500  0.57684000  1
  C  1621  1  0.58110000  0.85406700  0.61447200  1
  C  1622  1  0.62034000  0.86850900  0.60364300  1
  C  1623  1  0.58235900  0.91604600  0.60835200  1
  C  1624  1  0.54201000  0.90361400  0.61991500  1
  C  1625  1  0.58743300  0.94579800  0.60621200  1
  C  1626  1  0.55287600  0.96380100  0.61572800  1
  C  1627  1  0.51125900  0.95298900  0.62648700  1
  C  1628  1  0.50638500  0.92287400  0.62850800  1
  C  1629  1  0.58554200  0.82379000  0.61798500  1
  C  1630  1  0.62729700  0.80896000  0.61203400  1
  C  1631  1  0.66516100  0.82486300  0.60228300  1
  C  1632  1  0.66140900  0.85397500  0.59741000  1
  C  1645  1  0.53890400  0.87127200  0.62403500  1
  C  1646  1  0.62239800  0.89946100  0.59929700  1
  C  1649  1  0.45574000  0.84668700  0.65274700  1
  C  1652  1  0.99677200  0.64553700  0.40666500  1
  C  1653  1  0.95980700  0.65859000  0.39181100  1
  C  1654  1  0.00345597  0.65813600  0.34596700  1
  C  1655  1  0.03854600  0.64087500  0.35793900  1
  C  1656  1  0.07342600  0.63092000  0.33882800  1
  C  1657  1  0.07401600  0.63822600  0.30932100  1
  C  1658  1  0.04012600  0.65739400  0.29960200  1
  C  1659  1  0.00511497  0.66686500  0.31731300  1
  C  1660  1  0.91756700  0.66427500  0.40524100  1
  C  1661  1  0.91074600  0.65718100  0.43371200  1
  C  1662  1  0.94683000  0.64601000  0.45028600  1
  C  1663  1  0.98954300  0.64032100  0.43650000  1
  C  1664  1  0.08200900  0.65174900  0.40054700  1
  C  1665  1  0.11876800  0.63660100  0.41348800  1
  C  1666  1  0.07513000  0.59078200  0.41182100  1
  C  1667  1  0.04015300  0.60316800  0.39476800  1
  C  1668  1  0.07354600  0.56188900  0.41973900  1
  C  1669  1  0.03875500  0.54436200  0.40962800  1
  C  1670  1  0.00495397  0.55456000  0.39063900  1
  C  1671  1  0.00538197  0.58428700  0.38424200  1
  C  1672  1  0.08950600  0.68162900  0.39574800  1
  C  1673  1  0.13232200  0.69518700  0.40167400  1
  C  1674  1  0.16814200  0.67837800  0.41281900  1
  C  1675  1  0.16101900  0.64985000  0.41955500  1
  C  1688  1  0.03936800  0.63549700  0.39014900  1
  C  1689  1  0.11560100  0.60648700  0.42178900  1
  C  1692  1  0.96280600  0.66749600  0.36186300  1
  C  1695  1  0.24725000  0.15266700  0.11293800  1
  C  1696  1  0.21020300  0.13785100  0.09993500  1
  C  1697  1  0.25329300  0.09180200  0.10090500  1
  C  1698  1  0.28861600  0.10381300  0.11795500  1
  C  1699  1  0.32324300  0.08461700  0.12811100  1
  C  1700  1  0.32323300  0.05496400  0.12133300  1
  C  1701  1  0.28904500  0.04516200  0.10241300  1
  C  1702  1  0.25438000  0.06298800  0.09266400  1
  C  1703  1  0.16809700  0.15138200  0.09411400  1
  C  1704  1  0.16144000  0.17989500  0.10109700  1
  C  1705  1  0.19761000  0.19642400  0.11222300  1
  C  1706  1  0.24023000  0.18255600  0.11799200  1
  C  1707  1  0.33238200  0.14624000  0.10661200  1
  C  1708  1  0.36941800  0.15906100  0.12159800  1
  C  1709  1  0.32600900  0.15792000  0.16752400  1
  C  1710  1  0.29070400  0.14098500  0.15533400  1
  C  1711  1  0.32459700  0.16617100  0.19632800  1
  C  1712  1  0.28957300  0.15656900  0.21395900  1
  C  1713  1  0.25545300  0.13768900  0.20399400  1
  C  1714  1  0.25577800  0.13089800  0.17435200  1
  C  1715  1  0.33950100  0.14146200  0.07668900  1
  C  1716  1  0.38215900  0.14737100  0.06291700  1
  C  1717  1  0.41827400  0.15835900  0.07958500  1
  C  1718  1  0.41156900  0.16500900  0.10817300  1
  C  1731  1  0.28975400  0.13608200  0.12304100  1
  C  1732  1  0.36662800  0.16744800  0.15170200  1
  C  1735  1  0.21290100  0.10780900  0.09131100  1
  C  1738  1  0.74562200  0.35382600  0.89656000  1
  C  1739  1  0.70683900  0.36872500  0.90741200  1
  C  1740  1  0.74624600  0.41581400  0.90271600  1
  C  1741  1  0.78617500  0.40288100  0.89115200  1
  C  1742  1  0.82245100  0.42165900  0.88259300  1
  C  1743  1  0.81863600  0.45180800  0.88468600  1
  C  1744  1  0.77743100  0.46318300  0.89550900  1
  C  1745  1  0.74221600  0.44562400  0.90494400  1
  C  1746  1  0.66531000  0.35467500  0.91356900  1
  C  1747  1  0.66063800  0.32563300  0.90858300  1
  C  1748  1  0.69799900  0.30928900  0.89880500  1
  C  1749  1  0.74023200  0.32362500  0.89294200  1
  C  1750  1  0.83040000  0.36068400  0.90437400  1
  C  1751  1  0.86957200  0.34970200  0.88997700  1
  C  1752  1  0.83181900  0.35466000  0.84240800  1
  C  1753  1  0.79161800  0.36647000  0.85479800  1
  C  1754  1  0.83703200  0.35262600  0.81266000  1
  C  1755  1  0.80278900  0.36252200  0.79463700  1
  C  1756  1  0.76131000  0.37352300  0.80540200  1
  C  1757  1  0.75626500  0.37540800  0.83551200  1
  C  1758  1  0.83482200  0.36424400  0.93464000  1
  C  1759  1  0.87650600  0.35819900  0.94949000  1
  C  1760  1  0.91434200  0.34833300  0.93363200  1
  C  1761  1  0.91058500  0.34339000  0.90453600  1
  C  1774  1  0.78841700  0.37051300  0.88713800  1
  C  1775  1  0.87163900  0.34531200  0.85903100  1
  C  1778  1  0.70574400  0.39969600  0.91181600  1
  C  1781  1  0.82852500  0.64446300  0.60711100  1
  C  1782  1  0.86621300  0.65730600  0.62147000  1
  C  1783  1  0.82335200  0.65873000  0.66761500  1
  C  1784  1  0.78740600  0.64183900  0.65616200  1
  C  1785  1  0.75289700  0.63234600  0.67573900  1
  C  1786  1  0.75403700  0.63922500  0.70529100  1
  C  1787  1  0.78849900  0.65820200  0.71458700  1
  C  1788  1  0.82281800  0.66759800  0.69626700  1
  C  1789  1  0.90842500  0.66203000  0.60765700  1
  C  1790  1  0.91428300  0.65458800  0.57919400  1
  C  1791  1  0.87723600  0.64410300  0.56298100  1
  C  1792  1  0.83477400  0.63884400  0.57727800  1
  C  1793  1  0.74359300  0.65175800  0.61344900  1
  C  1794  1  0.70522600  0.63654600  0.60252200  1
  C  1795  1  0.74378400  0.58958400  0.61050100  1
  C  1796  1  0.78368000  0.60288000  0.62171300  1
  C  1797  1  0.73923300  0.55973000  0.61000400  1
  C  1798  1  0.77425700  0.54248600  0.62024700  1
  C  1799  1  0.81590700  0.55411700  0.63011600  1
  C  1800  1  0.81981800  0.58436800  0.63108600  1
  C  1801  1  0.73791900  0.68203000  0.61636900  1
  C  1802  1  0.69576100  0.69613700  0.60991500  1
  C  1803  1  0.65911800  0.67961300  0.59942900  1
  C  1804  1  0.66412500  0.65047200  0.59506300  1
  C  1817  1  0.78592800  0.63542200  0.62417100  1
  C  1818  1  0.70394000  0.60538700  0.59978300  1
  C  1821  1  0.86408800  0.66702300  0.65122900  1
  C  1824  1  0.33281300  0.86055800  0.40508300  1
  C  1825  1  0.37170500  0.84969300  0.39030300  1
  C  1826  1  0.33287900  0.85476200  0.34305700  1
  C  1827  1  0.29285300  0.86630900  0.35588100  1
  C  1828  1  0.25686200  0.87511500  0.33701300  1
  C  1829  1  0.26106400  0.87330300  0.30687100  1
  C  1830  1  0.30235100  0.86249800  0.29560300  1
  C  1831  1  0.33728000  0.85280500  0.31324700  1
  C  1832  1  0.41308100  0.84347700  0.40449800  1
  C  1833  1  0.41755600  0.84854100  0.43354100  1
  C  1834  1  0.38013300  0.85845600  0.44974800  1
  C  1835  1  0.33797900  0.86423300  0.43529300  1
  C  1836  1  0.24808000  0.85283000  0.39774100  1
  C  1837  1  0.20882900  0.86720500  0.40864500  1
  C  1838  1  0.24693500  0.91475200  0.40439000  1
  C  1839  1  0.28709400  0.90238000  0.39252100  1
  C  1840  1  0.24205000  0.94449400  0.40684600  1
  C  1841  1  0.27650600  0.96251500  0.39720200  1
  C  1842  1  0.31782400  0.95171000  0.38599300  1
  C  1843  1  0.32259900  0.92162700  0.38377000  1
  C  1844  1  0.24359600  0.82260700  0.39386400  1
  C  1845  1  0.20174700  0.80776800  0.39946600  1
  C  1846  1  0.16380500  0.82361300  0.40920400  1
  C  1847  1  0.16764100  0.85265100  0.41452200  1
  C  1860  1  0.29023100  0.87008400  0.38825500  1
  C  1861  1  0.20693000  0.89811000  0.41342000  1
  C  1864  1  0.37311000  0.84542700  0.35931100  1
  C  1867  1  0.07890700  0.35315900  0.11334200  1
  C  1868  1  0.11651600  0.36761000  0.10050700  1
  C  1869  1  0.07319000  0.41355700  0.09877900  1
  C  1870  1  0.03739400  0.40206300  0.11576900  1
  C  1871  1  0.00266397  0.42152900  0.12514600  1
  C  1872  1  0.00341097  0.45100200  0.11798800  1
  C  1873  1  0.03761700  0.46030500  0.09884200  1
  C  1874  1  0.07221300  0.44210700  0.08961100  1
  C  1875  1  0.15889000  0.35394600  0.09592100  1
  C  1876  1  0.16493000  0.32550900  0.10339500  1
  C  1877  1  0.12798600  0.30919900  0.11386100  1
  C  1878  1  0.08538900  0.32336700  0.11905200  1
  C  1879  1  0.99378600  0.35925400  0.10621300  1
  C  1880  1  0.95552600  0.34838900  0.12158100  1
  C  1881  1  0.99454400  0.35639700  0.16836900  1
  C  1882  1  0.03413800  0.36781900  0.15489600  1
  C  1883  1  0.99037900  0.35582400  0.19824400  1
  C  1884  1  0.02544500  0.36628600  0.21532200  1
  C  1885  1  0.06667400  0.37656700  0.20346600  1
  C  1886  1  0.07028000  0.37750100  0.17321900  1
  C  1887  1  0.98784900  0.36216800  0.07596900  1
  C  1888  1  0.94548600  0.35586700  0.06205600  1
  C  1889  1  0.90892200  0.34548900  0.07871900  1
  C  1890  1  0.91423900  0.34103000  0.10782200  1
  C  1903  1  0.03619400  0.37011700  0.12235700  1
  C  1904  1  0.95462100  0.34555300  0.15273700  1
  C  1907  1  0.11413800  0.39730900  0.09064100  1
  C  1910  1  0.58191500  0.15181800  0.89721700  1
  C  1911  1  0.62089500  0.13738500  0.90841000  1
  C  1912  1  0.58283900  0.08986600  0.90371400  1
  C  1913  1  0.54275000  0.10228900  0.89181300  1
  C  1914  1  0.50723600  0.08305000  0.88300900  1
  C  1915  1  0.51203000  0.05294000  0.88508300  1
  C  1916  1  0.55344900  0.04212100  0.89612500  1
  C  1917  1  0.58782100  0.06011300  0.90592700  1
  C  1918  1  0.66198100  0.15187400  0.91469400  1
  C  1919  1  0.66609700  0.18088600  0.90936100  1
  C  1920  1  0.62854900  0.19678900  0.89914400  1
  C  1921  1  0.58668900  0.18202800  0.89328800  1
  C  1922  1  0.49738300  0.14403600  0.90499500  1
  C  1923  1  0.45813100  0.15488700  0.89058900  1
  C  1924  1  0.49597600  0.15005300  0.84300300  1
  C  1925  1  0.53642700  0.13862000  0.85542100  1
  C  1926  1  0.49076300  0.15197200  0.81324500  1
  C  1927  1  0.52526600  0.14235600  0.79524700  1
  C  1928  1  0.56705600  0.13184300  0.80604800  1
  C  1929  1  0.57206200  0.13003200  0.83616700  1
  C  1930  1  0.49290900  0.14031500  0.93525100  1
  C  1931  1  0.45111700  0.14608600  0.95011100  1
  C  1932  1  0.41328000  0.15595400  0.93424900  1
  C  1933  1  0.41705200  0.16101400  0.90516200  1
  C  1946  1  0.53963700  0.13463200  0.88777100  1
  C  1947  1  0.45603500  0.15923100  0.85962900  1
  C  1950  1  0.62266100  0.10646900  0.91310400  1
  C  1953  1  0.14100400  0.27979900  0.39776900  1
  C  1954  1  0.15172600  0.26489400  0.42347500  1
  C  1955  1  0.18169100  0.24086800  0.42262000  1
  C  1956  1  0.19081900  0.22712900  0.39604200  1
  C  1957  1  0.17553900  0.24014500  0.37017600  1
  C  1958  1  0.15494800  0.26795900  0.37101800  1
  C  1971  1  0.63952200  0.22776200  0.61325300  1
  C  1972  1  0.64892200  0.24190800  0.58693500  1
  C  1973  1  0.67886600  0.26593800  0.58659600  1
  C  1974  1  0.68905700  0.28049400  0.61258800  1
  C  1975  1  0.67503100  0.26818100  0.63909100  1
  C  1976  1  0.65456100  0.24031800  0.63940500  1
  C  1989  1  0.38639200  0.86332300  0.03180100  1
  C  1990  1  0.39558200  0.83674200  0.01806200  1
  C  1991  1  0.42594100  0.83582600  0.99423500  1
  C  1992  1  0.43692100  0.86152800  0.97937500  1
  C  1993  1  0.42301100  0.88828700  0.99114600  1
  C  1994  1  0.40199900  0.88914400  0.01884200  1
  C  2007  1  0.89299700  0.64714200  0.97945900  1
  C  2008  1  0.90380500  0.67297900  0.99412100  1
  C  2009  1  0.93412600  0.67235000  0.01797700  1
  C  2010  1  0.94374800  0.64588000  0.03177100  1
  C  2011  1  0.92847100  0.61988000  0.01899700  1
  C  2012  1  0.90737000  0.62050000  0.99133300  1
  C  2025  1  0.68604600  0.72621800  0.61236800  1
  C  2026  1  0.67534100  0.74088600  0.58651700  1
  C  2027  1  0.64503700  0.76476800  0.58707100  1
  C  2028  1  0.63532100  0.77860900  0.61350900  1
  C  2029  1  0.65054300  0.76584600  0.63953000  1
  C  2030  1  0.67155700  0.73814500  0.63896800  1
  C  2043  1  0.19388000  0.77741700  0.39785000  1
  C  2044  1  0.18421800  0.76359500  0.42430000  1
  C  2045  1  0.15365900  0.73985400  0.42491800  1
  C  2046  1  0.14280400  0.72517100  0.39908900  1
  C  2047  1  0.15712500  0.73707900  0.37245900  1
  C  2048  1  0.17842100  0.76469900  0.37186500  1
  C  2061  1  0.44305900  0.14425600  0.98044700  1
  C  2062  1  0.43311800  0.17057400  0.99448400  1
  C  2063  1  0.40269500  0.17091900  0.01831100  1
  C  2064  1  0.39219900  0.14494100  0.03284500  1
  C  2065  1  0.40687300  0.11847500  0.02077600  1
  C  2066  1  0.42794800  0.11814700  0.99308600  1
  C  2079  1  0.93554900  0.35835800  0.03202300  1
  C  2080  1  0.92440200  0.33254100  0.01743000  1
  C  2081  1  0.89390500  0.33323400  0.99366000  1
  C  2082  1  0.88445500  0.35970600  0.97982800  1
  C  2083  1  0.90006200  0.38567200  0.99251600  1
  C  2084  1  0.92133400  0.38503000  0.02013100  1
  C  2097  1  0.64135100  0.77857500  0.89724800  1
  C  2098  1  0.65155500  0.76376400  0.92308700  1
  C  2099  1  0.68198100  0.73996500  0.92259400  1
  C  2100  1  0.69192200  0.72614300  0.89617200  1
  C  2101  1  0.67714800  0.73903800  0.87011800  1
  C  2102  1  0.65603300  0.76672000  0.87067500  1
  C  2115  1  0.13715800  0.72715800  0.11338900  1
  C  2116  1  0.14683800  0.74074100  0.08681000  1
  C  2117  1  0.17707400  0.76464200  0.08601900  1
  C  2118  1  0.18774100  0.77953200  0.11174700  1
  C  2119  1  0.17348200  0.76778800  0.13847200  1
  C  2120  1  0.15253200  0.74008700  0.13928100  1
  C  2133  1  0.89202700  0.36283900  0.53084700  1
  C  2134  1  0.90206300  0.33692400  0.51611500  1
  C  2135  1  0.93222100  0.33733300  0.49217000  1
  C  2136  1  0.94212000  0.36372600  0.47825800  1
  C  2137  1  0.92753200  0.38981800  0.49114700  1
  C  2138  1  0.90672900  0.38936600  0.51891800  1
  C  2151  1  0.38814700  0.14757700  0.47942800  1
  C  2152  1  0.39825200  0.17361500  0.49388000  1
  C  2153  1  0.42808800  0.17335500  0.51796200  1
  C  2154  1  0.43765400  0.14706700  0.53212500  1
  C  2155  1  0.42286400  0.12085200  0.51956500  1
  C  2156  1  0.40240700  0.12109600  0.49170800  1
  C  2169  1  0.18769000  0.22649300  0.11478400  1
  C  2170  1  0.17748600  0.24119800  0.08887800  1
  C  2171  1  0.14699600  0.26497700  0.08923600  1
  C  2172  1  0.13698300  0.27894400  0.11557100  1
  C  2173  1  0.15174000  0.26616000  0.14168800  1
  C  2174  1  0.17286800  0.23847100  0.14127700  1
  C  2187  1  0.68890300  0.27907200  0.89690300  1
  C  2188  1  0.67798200  0.26509900  0.92310200  1
  C  2189  1  0.64720200  0.24144500  0.92308900  1
  C  2190  1  0.63709600  0.22704100  0.89699500  1
  C  2191  1  0.65234600  0.23922200  0.87069000  1
  C  2192  1  0.67403600  0.26672100  0.87061300  1
  C  2205  1  0.93683100  0.64334800  0.48034700  1
  C  2206  1  0.92648300  0.66924400  0.49503900  1
  C  2207  1  0.89594800  0.66879400  0.51879700  1
  C  2208  1  0.88597000  0.64239700  0.53267800  1
  C  2209  1  0.90081600  0.61632900  0.51985400  1
  C  2210  1  0.92200600  0.61681000  0.49218900  1
  C  2223  1  0.44083700  0.86101200  0.53199900  1
  C  2224  1  0.43066500  0.83476000  0.51792600  1
  C  2225  1  0.39997300  0.83451500  0.49423200  1
  C  2226  1  0.38912800  0.86055400  0.47995600  1
  C  2227  1  0.40376800  0.88699300  0.49213700  1
  C  2228  1  0.42549300  0.88720600  0.51962500  1
  C  2241  1  0.22703000  0.12195900  0.28595100  1
  C  2242  1  0.20381700  0.14529000  0.27292000  1
  C  2243  1  0.20104800  0.14676700  0.24249400  1
  C  2244  1  0.22509700  0.12632700  0.22560900  1
  C  2245  1  0.23860900  0.10016000  0.23869500  1
  C  2246  1  0.23795400  0.09762600  0.26911900  1
  C  2259  1  0.72572300  0.37947700  0.72382200  1
  C  2260  1  0.70115700  0.35879300  0.74009300  1
  C  2261  1  0.70389100  0.35944600  0.77054200  1
  C  2262  1  0.72822200  0.38197300  0.78424300  1
  C  2263  1  0.74026300  0.40658600  0.76806900  1
  C  2264  1  0.74017800  0.40505100  0.73758200  1
  C  2277  1  0.47555500  0.97149600  0.87960500  1
  C  2278  1  0.45107200  0.98806400  0.90010100  1
  C  2279  1  0.45434700  0.01849000  0.89928000  1
  C  2280  1  0.47880400  0.03184700  0.87658800  1
  C  2281  1  0.49082000  0.01543900  0.85216300  1
  C  2282  1  0.49037100  0.98497500  0.85396000  1
  C  2295  1  0.97613700  0.53309200  0.13457600  1
  C  2296  1  0.95220400  0.52029500  0.11141900  1
  C  2297  1  0.94965100  0.48990200  0.10965300  1
  C  2298  1  0.97428600  0.47294400  0.12975100  1
  C  2299  1  0.98904600  0.48577000  0.15581500  1
  C  2300  1  0.98804100  0.51614700  0.15864300  1
  C  2313  1  0.10355300  0.37877400  0.28387000  1
  C  2314  1  0.12791000  0.35874000  0.26667600  1
  C  2315  1  0.12570300  0.36103400  0.23629700  1
  C  2316  1  0.10173900  0.38428900  0.22369900  1
  C  2317  1  0.09051000  0.40823800  0.24100000  1
  C  2318  1  0.08938600  0.40510500  0.27134700  1
  C  2331  1  0.60401200  0.12714000  0.72459200  1
  C  2332  1  0.62814000  0.14771600  0.74122500  1
  C  2333  1  0.62479700  0.14670600  0.77164200  1
  C  2334  1  0.60055000  0.12388900  0.78492300  1
  C  2335  1  0.58912800  0.09941700  0.76836400  1
  C  2336  1  0.58938800  0.10137300  0.73790800  1
  C  2349  1  0.85523700  0.53247600  0.88146700  1
  C  2350  1  0.87978000  0.51546500  0.90158200  1
  C  2351  1  0.87702700  0.48507300  0.89982100  1
  C  2352  1  0.85304700  0.47233000  0.87663200  1
  C  2353  1  0.84131400  0.48930700  0.85257600  1
  C  2354  1  0.84056000  0.51968800  0.85537900  1
  C  2367  1  0.35005200  0.97285200  0.13694900  1
  C  2368  1  0.37391900  0.98582100  0.11382200  1
  C  2369  1  0.37710000  0.01623500  0.11233100  1
  C  2370  1  0.35330100  0.03318900  0.13280300  1
  C  2371  1  0.33902100  0.02019400  0.15883200  1
  C  2372  1  0.33902500  0.98976000  0.16124600  1
  C  2385  1  0.60150800  0.88214600  0.72645300  1
  C  2386  1  0.62525400  0.85911300  0.73963700  1
  C  2387  1  0.62824600  0.85798500  0.77005900  1
  C  2388  1  0.60377500  0.87836400  0.78677100  1
  C  2389  1  0.58952900  0.90427900  0.77347800  1
  C  2390  1  0.58985100  0.90652400  0.74303700  1
  C  2403  1  0.10416300  0.62683800  0.28759000  1
  C  2404  1  0.12845900  0.64750700  0.27113800  1
  C  2405  1  0.12513400  0.64686700  0.24070800  1
  C  2406  1  0.10080700  0.62423500  0.22718000  1
  C  2407  1  0.08918000  0.59961400  0.24346200  1
  C  2408  1  0.08966700  0.60121500  0.27394500  1
  C  2421  1  0.72518200  0.62731100  0.72732800  1
  C  2422  1  0.70108800  0.64732400  0.74471700  1
  C  2423  1  0.70350400  0.64484900  0.77508500  1
  C  2424  1  0.72745800  0.62144000  0.78747900  1
  C  2425  1  0.73850700  0.59761400  0.77001100  1
  C  2426  1  0.73930300  0.60089900  0.73967500  1
  C  2439  1  0.22683100  0.88145700  0.28628100  1
  C  2440  1  0.20276500  0.85846900  0.27327600  1
  C  2441  1  0.20010200  0.85702800  0.24286700  1
  C  2442  1  0.22463700  0.87731700  0.22608400  1
  C  2443  1  0.23943200  0.90324100  0.23917300  1
  C  2444  1  0.23875600  0.90569500  0.26958300  1
  C  2457  1  0.97788200  0.47293800  0.37360000  1
  C  2458  1  0.95402800  0.48549300  0.39694900  1
  C  2459  1  0.95075400  0.51587600  0.39886900  1
  C  2460  1  0.97473100  0.53312400  0.37872500  1
  C  2461  1  0.98901500  0.52055300  0.35248400  1
  C  2462  1  0.98892600  0.49016600  0.34956300  1
  C  2475  1  0.47490800  0.03451200  0.63148600  1
  C  2476  1  0.45066000  0.01797700  0.61085900  1
  C  2477  1  0.45371600  0.98754300  0.61177800  1
  C  2478  1  0.47785400  0.97411800  0.63454900  1
  C  2479  1  0.48942000  0.99055800  0.65907200  1
  C  2480  1  0.48934000  0.02102300  0.65721300  1
  C  2493  1  0.35283100  0.03296900  0.38123100  1
  C  2494  1  0.37746700  0.01646500  0.40170400  1
  C  2495  1  0.37524900  0.98603400  0.40038200  1
  C  2496  1  0.35113100  0.97273200  0.37753200  1
  C  2497  1  0.33883900  0.98926200  0.35325700  1
  C  2498  1  0.33810900  0.01969000  0.35542900  1
  C  2511  1  0.85403700  0.47345600  0.63224000  1
  C  2512  1  0.87762400  0.49078200  0.61198200  1
  C  2513  1  0.87456600  0.52115900  0.61412200  1
  C  2514  1  0.85084600  0.53361200  0.63757300  1
  C  2515  1  0.84002100  0.51629000  0.66158500  1
  C  2516  1  0.84014800  0.48590900  0.65861900  1
  N  695  1  0.79041600  0.23074600  0.44702000  1
  N  698  1  0.72154900  0.27382400  0.44868700  1
  N  701  1  0.76944500  0.22583000  0.34497300  1
  N  704  1  0.73747400  0.28339300  0.34654400  1
  N  713  1  0.28670000  0.27520900  0.56158700  1
  N  716  1  0.21764100  0.23229000  0.56230800  1
  N  719  1  0.26988600  0.28320300  0.66380600  1
  N  722  1  0.23796200  0.22553000  0.66434100  1
  N  731  1  0.03355700  0.81055000  0.98552300  1
  N  734  1  0.96385200  0.81237500  0.02798200  1
  N  737  1  0.01850600  0.91271000  0.97577000  1
  N  740  1  0.98526500  0.91433000  0.03315100  1
  N  749  1  0.54273800  0.69682800  0.02795700  1
  N  752  1  0.47334000  0.69808200  0.98512500  1
  N  755  1  0.52276100  0.59475600  0.03340600  1
  N  758  1  0.48980000  0.59591500  0.97608200  1
  N  767  1  0.21394800  0.77474800  0.56252900  1
  N  770  1  0.28325000  0.73186700  0.56145000  1
  N  773  1  0.23366300  0.78030100  0.66463300  1
  N  776  1  0.26629800  0.72291200  0.66357800  1
  N  785  1  0.72305400  0.73102500  0.45005300  1
  N  788  1  0.79301400  0.77343300  0.44877800  1
  N  791  1  0.73910200  0.72191600  0.34788300  1
  N  794  1  0.77278000  0.77915700  0.34677700  1
  N  803  1  0.97186600  0.19591500  0.02734300  1
  N  806  1  0.04154700  0.19522900  0.98478500  1
  N  809  1  0.98938500  0.09380400  0.03586800  1
  N  812  1  0.02236100  0.09316200  0.97846000  1
  N  821  1  0.46234300  0.30880900  0.98378200  1
  N  824  1  0.53205300  0.30738500  0.02641200  1
  N  827  1  0.48324600  0.41078600  0.97806700  1
  N  830  1  0.51658400  0.40961700  0.03531700  1
  N  839  1  0.29031400  0.73010400  0.94722200  1
  N  842  1  0.22048700  0.77254800  0.94808700  1
  N  845  1  0.27206100  0.72471300  0.84501800  1
  N  848  1  0.23850600  0.78202200  0.84613200  1
  N  857  1  0.78481800  0.77351600  0.06084300  1
  N  860  1  0.71560200  0.73059400  0.06238800  1
  N  863  1  0.76837900  0.78318800  0.16296200  1
  N  866  1  0.73583900  0.72578700  0.16449300  1
  N  875  1  0.54044100  0.31266800  0.48231500  1
  N  878  1  0.47109400  0.31193900  0.52504900  1
  N  881  1  0.52235600  0.41487200  0.47673200  1
  N  884  1  0.48955300  0.41393600  0.53422400  1
  N  893  1  0.03648200  0.19803500  0.52762700  1
  N  896  1  0.96778700  0.19854000  0.48440500  1
  N  899  1  0.01696100  0.09591100  0.53433400  1
  N  902  1  0.98532400  0.09634000  0.47666900  1
  N  911  1  0.71600600  0.27469100  0.06454900  1
  N  914  1  0.78595600  0.23232400  0.06392700  1
  N  917  1  0.73414900  0.28060500  0.16671800  1
  N  920  1  0.76760700  0.22327000  0.16589200  1
  N  929  1  0.21593100  0.23218500  0.94785700  1
  N  932  1  0.28603200  0.27459500  0.94794700  1
  N  935  1  0.23480700  0.22436400  0.84588500  1
  N  938  1  0.26924900  0.28137400  0.84571700  1
  N  947  1  0.46483200  0.69343000  0.52854100  1
  N  950  1  0.53484700  0.69425900  0.48623300  1
  N  953  1  0.48317700  0.59127000  0.53423200  1
  N  956  1  0.51678600  0.59225100  0.47690500  1
  N  965  1  0.96933300  0.80958500  0.48491200  1
  N  968  1  0.03922900  0.81009800  0.52748200  1
  N  971  1  0.98567300  0.91176100  0.47731100  1
  N  974  1  0.02026300  0.91215100  0.53427400  1
  N  983  1  0.76865600  0.16862300  0.22839700  1
  N  986  1  0.77660900  0.16649500  0.29025300  1
  N  989  1  0.84270200  0.07866500  0.22161400  1
  N  992  1  0.83926100  0.07350600  0.28342900  1
  N  1001  1  0.27579500  0.33802400  0.78728700  1
  N  1004  1  0.26797900  0.33766800  0.72536700  1
  N  1007  1  0.34344900  0.42997100  0.78294400  1
  N  1010  1  0.34433700  0.42687400  0.72094000  1
  N  1019  1  0.02636200  0.03545400  0.92056800  1
  N  1022  1  0.01750500  0.97361700  0.92126300  1
  N  1025  1  0.09422600  0.03006600  0.82868900  1
  N  1028  1  0.09453600  0.96808500  0.83233000  1
  N  1037  1  0.51671100  0.47599900  0.08787300  1
  N  1040  1  0.52419000  0.53786300  0.09064500  1
  N  1043  1  0.59512700  0.46871500  0.17678900  1
  N  1046  1  0.59003700  0.53028900  0.18273300  1
  N  1055  1  0.73138000  0.34065000  0.21840600  1
  N  1058  1  0.73766300  0.33659000  0.28030600  1
  N  1061  1  0.66666667  0.43260800  0.22708600  1
  N  1064  1  0.66106300  0.42603800  0.28860700  1
  N  1073  1  0.22968300  0.16801300  0.78873200  1
  N  1076  1  0.23861500  0.16911500  0.72686600  1
  N  1079  1  0.16379100  0.07569300  0.78286800  1
  N  1082  1  0.16252100  0.07980800  0.72094700  1
  N  1091  1  0.48234400  0.46747800  0.92058800  1
  N  1094  1  0.49016600  0.52931700  0.92335900  1
  N  1097  1  0.41663100  0.47517800  0.82849400  1
  N  1100  1  0.41203800  0.53680500  0.83438900  1
  N  1109  1  0.98715100  0.03025500  0.09054700  1
  N  1112  1  0.97864600  0.96839200  0.09274700  1
  N  1115  1  0.91248800  0.03736700  0.18031600  1
  N  1118  1  0.91435600  0.97552300  0.18526100  1
  N  1127  1  0.23858300  0.83648200  0.78433900  1
  N  1130  1  0.23004700  0.83780600  0.72250700  1
  N  1133  1  0.16238600  0.92577300  0.79042900  1
  N  1136  1  0.16489400  0.93035400  0.72856100  1
  N  1145  1  0.72997400  0.66841000  0.22388400  1
  N  1148  1  0.73921900  0.66863600  0.28571000  1
  N  1151  1  0.66331900  0.57615000  0.22871500  1
  N  1154  1  0.66325000  0.57938800  0.29071500  1
  N  1163  1  0.27513600  0.66509800  0.79312300  1
  N  1166  1  0.26867400  0.66960200  0.73128500  1
  N  1169  1  0.34003600  0.57323400  0.78377200  1
  N  1172  1  0.34464500  0.58002800  0.72222700  1
  N  1181  1  0.76716500  0.83538700  0.22875100  1
  N  1184  1  0.77471000  0.83754000  0.29064500  1
  N  1187  1  0.84519400  0.92443900  0.22227000  1
  N  1190  1  0.84098500  0.92959300  0.28396000  1
  N  1199  1  0.51795500  0.52956800  0.42082800  1
  N  1202  1  0.52653500  0.46774000  0.41771200  1
  N  1205  1  0.59301200  0.53804200  0.33129500  1
  N  1208  1  0.59080800  0.47625900  0.32533200  1
  N  1217  1  0.02608900  0.97056000  0.59040600  1
  N  1220  1  0.01759100  0.03243100  0.58950000  1
  N  1223  1  0.09212900  0.97593400  0.68272300  1
  N  1226  1  0.09371700  0.03785600  0.67883300  1
  N  1235  1  0.98127200  0.96887400  0.42129000  1
  N  1238  1  0.98760000  0.03082300  0.42325100  1
  N  1241  1  0.91364600  0.97469100  0.32954600  1
  N  1244  1  0.90969100  0.03647700  0.33413800  1
  N  1253  1  0.47952000  0.53905400  0.59351700  1
  N  1256  1  0.48728400  0.47718000  0.58979100  1
  N  1259  1  0.41549000  0.53012500  0.68585600  1
  N  1262  1  0.41410200  0.46831400  0.67989200  1
  N  1959  1  0.20174400  0.23074600  0.44702000  1
  N  1962  1  0.13287700  0.27382400  0.44868700  1
  N  1965  1  0.18077300  0.22583000  0.34497300  1
  N  1968  1  0.14880200  0.28339300  0.34654400  1
  N  1977  1  0.69802800  0.27520900  0.56158700  1
  N  1980  1  0.62896900  0.23229000  0.56230800  1
  N  1983  1  0.68121400  0.28320300  0.66380600  1
  N  1986  1  0.64929000  0.22553000  0.66434100  1
  N  1995  1  0.44488500  0.81055000  0.98552300  1
  N  1998  1  0.37518000  0.81237500  0.02798200  1
  N  2001  1  0.42983400  0.91271000  0.97577000  1
  N  2004  1  0.39659300  0.91433000  0.03315100  1
  N  2013  1  0.95406600  0.69682800  0.02795700  1
  N  2016  1  0.88466800  0.69808200  0.98512500  1
  N  2019  1  0.93408900  0.59475600  0.03340600  1
  N  2022  1  0.90112800  0.59591500  0.97608200  1
  N  2031  1  0.62527600  0.77474800  0.56252900  1
  N  2034  1  0.69457800  0.73186700  0.56145000  1
  N  2037  1  0.64499100  0.78030100  0.66463300  1
  N  2040  1  0.67762600  0.72291200  0.66357800  1
  N  2049  1  0.13438200  0.73102500  0.45005300  1
  N  2052  1  0.20434200  0.77343300  0.44877800  1
  N  2055  1  0.15043000  0.72191600  0.34788300  1
  N  2058  1  0.18410800  0.77915700  0.34677700  1
  N  2067  1  0.38319400  0.19591500  0.02734300  1
  N  2070  1  0.45287500  0.19522900  0.98478500  1
  N  2073  1  0.40071300  0.09380400  0.03586800  1
  N  2076  1  0.43368900  0.09316200  0.97846000  1
  N  2085  1  0.87367100  0.30880900  0.98378200  1
  N  2088  1  0.94338100  0.30738500  0.02641200  1
  N  2091  1  0.89457400  0.41078600  0.97806700  1
  N  2094  1  0.92791200  0.40961700  0.03531700  1
  N  2103  1  0.70164200  0.73010400  0.94722200  1
  N  2106  1  0.63181500  0.77254800  0.94808700  1
  N  2109  1  0.68338900  0.72471300  0.84501800  1
  N  2112  1  0.64983400  0.78202200  0.84613200  1
  N  2121  1  0.19614600  0.77351600  0.06084300  1
  N  2124  1  0.12693000  0.73059400  0.06238800  1
  N  2127  1  0.17970700  0.78318800  0.16296200  1
  N  2130  1  0.14716700  0.72578700  0.16449300  1
  N  2139  1  0.95176900  0.31266800  0.48231500  1
  N  2142  1  0.88242200  0.31193900  0.52504900  1
  N  2145  1  0.93368400  0.41487200  0.47673200  1
  N  2148  1  0.90088100  0.41393600  0.53422400  1
  N  2157  1  0.44781000  0.19803500  0.52762700  1
  N  2160  1  0.37911500  0.19854000  0.48440500  1
  N  2163  1  0.42828900  0.09591100  0.53433400  1
  N  2166  1  0.39665200  0.09634000  0.47666900  1
  N  2175  1  0.12733400  0.27469100  0.06454900  1
  N  2178  1  0.19728400  0.23232400  0.06392700  1
  N  2181  1  0.14547700  0.28060500  0.16671800  1
  N  2184  1  0.17893500  0.22327000  0.16589200  1
  N  2193  1  0.62725900  0.23218500  0.94785700  1
  N  2196  1  0.69736000  0.27459500  0.94794700  1
  N  2199  1  0.64613500  0.22436400  0.84588500  1
  N  2202  1  0.68057700  0.28137400  0.84571700  1
  N  2211  1  0.87616000  0.69343000  0.52854100  1
  N  2214  1  0.94617500  0.69425900  0.48623300  1
  N  2217  1  0.89450500  0.59127000  0.53423200  1
  N  2220  1  0.92811400  0.59225100  0.47690500  1
  N  2229  1  0.38066100  0.80958500  0.48491200  1
  N  2232  1  0.45055700  0.81009800  0.52748200  1
  N  2235  1  0.39700100  0.91176100  0.47731100  1
  N  2238  1  0.43159100  0.91215100  0.53427400  1
  N  2247  1  0.17998400  0.16862300  0.22839700  1
  N  2250  1  0.18793700  0.16649500  0.29025300  1
  N  2253  1  0.25403000  0.07866500  0.22161400  1
  N  2256  1  0.25058900  0.07350600  0.28342900  1
  N  2265  1  0.68712300  0.33802400  0.78728700  1
  N  2268  1  0.67930700  0.33766800  0.72536700  1
  N  2271  1  0.75477700  0.42997100  0.78294400  1
  N  2274  1  0.75566500  0.42687400  0.72094000  1
  N  2283  1  0.43769000  0.03545400  0.92056800  1
  N  2286  1  0.42883300  0.97361700  0.92126300  1
  N  2289  1  0.50555400  0.03006600  0.82868900  1
  N  2292  1  0.50586400  0.96808500  0.83233000  1
  N  2301  1  0.92803900  0.47599900  0.08787300  1
  N  2304  1  0.93551800  0.53786300  0.09064500  1
  N  2307  1  0.00645497  0.46871500  0.17678900  1
  N  2310  1  0.00136497  0.53028900  0.18273300  1
  N  2319  1  0.14270800  0.34065000  0.21840600  1
  N  2322  1  0.14899100  0.33659000  0.28030600  1
  N  2325  1  0.07803300  0.43260800  0.22708600  1
  N  2328  1  0.07239100  0.42603800  0.28860700  1
  N  2337  1  0.64101100  0.16801300  0.78873200  1
  N  2340  1  0.64994300  0.16911500  0.72686600  1
  N  2343  1  0.57511900  0.07569300  0.78286800  1
  N  2346  1  0.57384900  0.07980800  0.72094700  1
  N  2355  1  0.89367200  0.46747800  0.92058800  1
  N  2358  1  0.90149400  0.52931700  0.92335900  1
  N  2361  1  0.82795900  0.47517800  0.82849400  1
  N  2364  1  0.82336600  0.53680500  0.83438900  1
  N  2373  1  0.39847900  0.03025500  0.09054700  1
  N  2376  1  0.38997400  0.96839200  0.09274700  1
  N  2379  1  0.32381600  0.03736700  0.18031600  1
  N  2382  1  0.32568400  0.97552300  0.18526100  1
  N  2391  1  0.64991100  0.83648200  0.78433900  1
  N  2394  1  0.64137500  0.83780600  0.72250700  1
  N  2397  1  0.57371400  0.92577300  0.79042900  1
  N  2400  1  0.57622200  0.93035400  0.72856100  1
  N  2409  1  0.14130200  0.66841000  0.22388400  1
  N  2412  1  0.15054700  0.66863600  0.28571000  1
  N  2415  1  0.07464700  0.57615000  0.22871500  1
  N  2418  1  0.07457800  0.57938800  0.29071500  1
  N  2427  1  0.68646400  0.66509800  0.79312300  1
  N  2430  1  0.68000200  0.66960200  0.73128500  1
  N  2433  1  0.75136400  0.57323400  0.78377200  1
  N  2436  1  0.75597300  0.58002800  0.72222700  1
  N  2445  1  0.17849300  0.83538700  0.22875100  1
  N  2448  1  0.18603800  0.83754000  0.29064500  1
  N  2451  1  0.25652200  0.92443900  0.22227000  1
  N  2454  1  0.25231300  0.92959300  0.28396000  1
  N  2463  1  0.92928300  0.52956800  0.42082800  1
  N  2466  1  0.93786300  0.46774000  0.41771200  1
  N  2469  1  0.00433997  0.53804200  0.33129500  1
  N  2472  1  0.00213597  0.47625900  0.32533200  1
  N  2481  1  0.43741700  0.97056000  0.59040600  1
  N  2484  1  0.42891900  0.03243100  0.58950000  1
  N  2487  1  0.50345700  0.97593400  0.68272300  1
  N  2490  1  0.50504500  0.03785600  0.67883300  1
  N  2499  1  0.39260000  0.96887400  0.42129000  1
  N  2502  1  0.39892800  0.03082300  0.42325100  1
  N  2505  1  0.32497400  0.97469100  0.32954600  1
  N  2508  1  0.32101900  0.03647700  0.33413800  1
  N  2517  1  0.89084800  0.53905400  0.59351700  1
  N  2520  1  0.89861200  0.47718000  0.58979100  1
  N  2523  1  0.82681800  0.53012500  0.68585600  1
  N  2526  1  0.82543000  0.46831400  0.67989200  1
