# generated using pymatgen
data_H18C19O2
_symmetry_space_group_name_H-M   'P 1'
_cell_length_a   22.23120000
_cell_length_b   35.53800000
_cell_length_c   42.64150000
_cell_angle_alpha   90.00000000
_cell_angle_beta   90.00000000
_cell_angle_gamma   90.00000000
_symmetry_Int_Tables_number   1
_chemical_formula_structural   H18C19O2
_chemical_formula_sum   'H576 C608 O64'
_cell_volume   33689.01880056
_cell_formula_units_Z   32
loop_
 _symmetry_equiv_pos_site_id
 _symmetry_equiv_pos_as_xyz
  1  'x, y, z'
loop_
 _atom_site_type_symbol
 _atom_site_label
 _atom_site_symmetry_multiplicity
 _atom_site_fract_x
 _atom_site_fract_y
 _atom_site_fract_z
 _atom_site_occupancy
  C  1  1  0.25423600  0.12099400  0.17111500  1
  C  2  1  0.31124200  0.09675900  0.17919100  1
  C  3  1  0.19754200  0.09480000  0.17415800  1
  C  4  1  0.20058200  0.05830200  0.15308700  1
  C  7  1  0.25955400  0.03648800  0.16240500  1
  C  8  1  0.31792100  0.06079400  0.15786100  1
  C  13  1  0.31994600  0.07561800  0.12303000  1
  C  14  1  0.26267900  0.09865800  0.11287400  1
  C  17  1  0.20680500  0.07216300  0.11824200  1
  C  20  1  0.25865500  0.13281900  0.13564700  1
  C  23  1  0.23923600  0.11977500  0.82153100  1
  C  24  1  0.17975200  0.09704800  0.81555600  1
  C  25  1  0.29368700  0.09239600  0.81574600  1
  C  26  1  0.29254800  0.05669900  0.83767300  1
  C  29  1  0.23050900  0.03623900  0.83165100  1
  C  30  1  0.17368400  0.06156100  0.83742400  1
  C  35  1  0.17604700  0.07662100  0.87213500  1
  C  36  1  0.23709100  0.09661000  0.88038000  1
  C  39  1  0.29198900  0.07027300  0.87261300  1
  C  42  1  0.24102200  0.13091100  0.85737200  1
  C  45  1  0.73766600  0.83922500  0.82545500  1
  C  46  1  0.79006000  0.86672300  0.81616800  1
  C  47  1  0.67726400  0.86190000  0.82294500  1
  C  48  1  0.67564400  0.89818200  0.84417100  1
  C  51  1  0.73043800  0.92340600  0.83479300  1
  C  52  1  0.79321400  0.90287300  0.83760000  1
  C  57  1  0.79936200  0.88939100  0.87249100  1
  C  58  1  0.74666200  0.86263700  0.88359100  1
  C  61  1  0.68590600  0.88452300  0.87884900  1
  C  64  1  0.74660400  0.82818400  0.86096200  1
  C  67  1  0.75632600  0.84157800  0.17547600  1
  C  68  1  0.70411000  0.86831300  0.18630900  1
  C  69  1  0.81691400  0.86412300  0.17719200  1
  C  70  1  0.81676000  0.90082100  0.15648100  1
  C  73  1  0.76188000  0.92539800  0.16762500  1
  C  74  1  0.69888000  0.90479500  0.16558600  1
  C  79  1  0.69004800  0.89252900  0.13049700  1
  C  80  1  0.74296400  0.86730000  0.11768200  1
  C  83  1  0.80450000  0.88834700  0.12170400  1
  C  86  1  0.74561400  0.83205300  0.13979900  1
  C  89  1  0.75044600  0.62014400  0.67193700  1
  C  90  1  0.80773000  0.59538800  0.67789200  1
  C  91  1  0.69568400  0.59193000  0.67224500  1
  C  92  1  0.69988100  0.55996900  0.64663600  1
  C  95  1  0.76044900  0.53813100  0.65271200  1
  C  96  1  0.81723400  0.56411100  0.65234400  1
  C  101  1  0.81904600  0.58511700  0.61981700  1
  C  102  1  0.76018400  0.60806700  0.61190200  1
  C  105  1  0.70590000  0.57945800  0.61375900  1
  C  108  1  0.75298200  0.63823200  0.63829400  1
  C  111  1  0.74383800  0.61746600  0.32460200  1
  C  112  1  0.68573800  0.59334500  0.31844800  1
  C  113  1  0.79829200  0.58918900  0.32249100  1
  C  114  1  0.79506200  0.55634200  0.34715300  1
  C  117  1  0.73389000  0.53501300  0.34130400  1
  C  118  1  0.67694000  0.56096000  0.34313100  1
  C  123  1  0.67556400  0.58068500  0.37622100  1
  C  124  1  0.73588000  0.60161500  0.38460700  1
  C  127  1  0.79098800  0.57417100  0.38070200  1
  C  130  1  0.74311300  0.63327700  0.35913200  1
  C  133  1  0.23993800  0.34076800  0.32388000  1
  C  134  1  0.29152100  0.36969700  0.31627000  1
  C  135  1  0.18019200  0.36450300  0.32388400  1
  C  136  1  0.17933800  0.39767000  0.34838400  1
  C  139  1  0.23428700  0.42367000  0.34117000  1
  C  140  1  0.29625000  0.40211300  0.34128000  1
  C  145  1  0.30278500  0.38339200  0.37453700  1
  C  146  1  0.24975700  0.35569000  0.38345800  1
  C  149  1  0.18978800  0.37906200  0.38138900  1
  C  152  1  0.24824900  0.32427000  0.35783200  1
  C  155  1  0.25460600  0.34383700  0.67213200  1
  C  156  1  0.20320500  0.37214200  0.68149900  1
  C  157  1  0.31449000  0.36756100  0.67227100  1
  C  158  1  0.31409400  0.40169700  0.64866900  1
  C  161  1  0.25906300  0.42714500  0.65747000  1
  C  162  1  0.19695200  0.40557700  0.65765800  1
  C  167  1  0.18812800  0.38861200  0.62389700  1
  C  168  1  0.24152100  0.36243700  0.61292000  1
  C  171  1  0.30241800  0.38450900  0.61520400  1
  C  174  1  0.24517400  0.32962200  0.63753700  1
  C  177  1  0.23890300  0.10644500  0.91512800  1
  C  178  1  0.23337900  0.07729100  0.93772300  1
  C  179  1  0.23507500  0.08358400  0.97034400  1
  C  180  1  0.24577500  0.12082700  0.98116200  1
  C  181  1  0.25173200  0.15042700  0.95937600  1
  C  182  1  0.24749900  0.14335200  0.92700400  1
  C  185  1  0.25456500  0.12792200  0.01351000  1
  C  186  1  0.30900100  0.11484700  0.02652500  1
  C  187  1  0.31316900  0.10716100  0.05865800  1
  C  188  1  0.26367000  0.11269300  0.07909500  1
  C  189  1  0.21252600  0.13094600  0.06605000  1
  C  190  1  0.20576100  0.13750800  0.03348900  1
  C  195  1  0.22626800  0.05021000  0.99118100  1
  C  196  1  0.14812100  0.15242400  0.02023800  1
  C  205  1  0.73470600  0.85820200  0.08299600  1
  C  206  1  0.72646600  0.88784100  0.06107700  1
  C  207  1  0.72437800  0.88220500  0.02832600  1
  C  208  1  0.73455600  0.84532600  0.01650900  1
  C  209  1  0.74155200  0.81518900  0.03767200  1
  C  210  1  0.74039200  0.82148400  0.07019700  1
  C  213  1  0.74323000  0.83894400  0.98395500  1
  C  214  1  0.79522000  0.85484800  0.97033200  1
  C  215  1  0.79856200  0.86056000  0.93787100  1
  C  216  1  0.75108000  0.84971800  0.91763700  1
  C  217  1  0.70375000  0.82854100  0.93151600  1
  C  218  1  0.69734000  0.82407300  0.96435200  1
  C  223  1  0.71311400  0.91585900  0.00818700  1
  C  224  1  0.64248400  0.80600700  0.97807400  1
  C  233  1  0.73430400  0.61527900  0.41847300  1
  C  234  1  0.72586700  0.58875600  0.44298700  1
  C  235  1  0.72648400  0.59829700  0.47505600  1
  C  236  1  0.73821400  0.63636100  0.48338400  1
  C  237  1  0.74647800  0.66349000  0.45964900  1
  C  238  1  0.74366200  0.65315100  0.42782100  1
  C  241  1  0.74903800  0.64597600  0.51513900  1
  C  242  1  0.80506400  0.63446200  0.52731300  1
  C  243  1  0.81070000  0.62506600  0.55907100  1
  C  244  1  0.76096600  0.62708600  0.57982500  1
  C  245  1  0.70881900  0.64558800  0.56818400  1
  C  246  1  0.70066000  0.65377600  0.53594100  1
  C  251  1  0.71699600  0.56697300  0.49795000  1
  C  252  1  0.64181000  0.66788500  0.52358700  1
  C  261  1  0.23336900  0.34980600  0.57898800  1
  C  262  1  0.22329900  0.37709200  0.55522000  1
  C  263  1  0.22183500  0.36850400  0.52294400  1
  C  264  1  0.23465700  0.33096400  0.51352100  1
  C  265  1  0.24344200  0.30299700  0.53649700  1
  C  266  1  0.24165500  0.31220900  0.56856400  1
  C  269  1  0.24600900  0.32261200  0.48153400  1
  C  270  1  0.29934100  0.33786400  0.46882500  1
  C  271  1  0.30313200  0.34602100  0.43674600  1
  C  272  1  0.25474500  0.33835000  0.41608300  1
  C  273  1  0.20676700  0.31650900  0.42855900  1
  C  274  1  0.19982100  0.30984600  0.46111700  1
  C  279  1  0.20954400  0.40016000  0.50077800  1
  C  280  1  0.14403100  0.29205600  0.47400300  1
  C  289  1  0.87518000  0.92343400  0.15785900  1
  C  290  1  0.88192200  0.95670000  0.13966100  1
  C  291  1  0.93584600  0.97776200  0.13826500  1
  C  292  1  0.98547600  0.96571000  0.15670300  1
  C  293  1  0.97964100  0.93347100  0.17570300  1
  C  294  1  0.92588800  0.91273000  0.17602300  1
  C  297  1  0.04090100  0.98549700  0.15722600  1
  C  298  1  0.04420400  0.01808600  0.17595500  1
  C  299  1  0.09547300  0.04104200  0.17530800  1
  C  300  1  0.14571300  0.03266800  0.15599800  1
  C  301  1  0.14170600  0.99906000  0.13801400  1
  C  302  1  0.09043600  0.97537300  0.13791000  1
  C  307  1  0.93742100  0.01092600  0.11679800  1
  C  308  1  0.08811500  0.94079000  0.11788700  1
  C  317  1  0.61780200  0.92114900  0.84134100  1
  C  318  1  0.60481600  0.95045600  0.86298600  1
  C  319  1  0.55034800  0.97101400  0.86289000  1
  C  320  1  0.50888600  0.96490500  0.83797300  1
  C  321  1  0.52310400  0.93812500  0.81470900  1
  C  322  1  0.57524000  0.91607300  0.81691600  1
  C  325  1  0.45424000  0.98549100  0.83485900  1
  C  326  1  0.45814000  0.02490100  0.83142300  1
  C  327  1  0.40627600  0.04728200  0.83204100  1
  C  328  1  0.34767800  0.03155300  0.83319100  1
  C  329  1  0.34502700  0.99161400  0.83481200  1
  C  330  1  0.39653800  0.96828400  0.83681500  1
  C  335  1  0.53937200  0.99691300  0.88986200  1
  C  336  1  0.38950100  0.92678500  0.84210100  1
  C  345  1  0.11691500  0.03808300  0.83241700  1
  C  346  1  0.10345800  0.00773600  0.85297000  1
  C  347  1  0.04898000  0.98734000  0.85203400  1
  C  348  1  0.00813100  0.99447300  0.82703500  1
  C  349  1  0.02283800  0.02232500  0.80468200  1
  C  350  1  0.07507500  0.04430300  0.80786200  1
  C  353  1  0.95293000  0.97436800  0.82404500  1
  C  354  1  0.95607500  0.93494500  0.82039200  1
  C  355  1  0.90486800  0.91247700  0.82451700  1
  C  356  1  0.84694000  0.92806300  0.82958200  1
  C  357  1  0.84444800  0.96805900  0.83062800  1
  C  358  1  0.89592000  0.99152700  0.82918100  1
  C  363  1  0.03746900  0.96061100  0.87842000  1
  C  364  1  0.89010400  0.03311400  0.83437800  1
  C  373  1  0.37340800  0.03688800  0.16489200  1
  C  374  1  0.38961500  0.00687800  0.14458400  1
  C  375  1  0.44419000  0.98669600  0.14724000  1
  C  376  1  0.48197200  0.99375600  0.17357100  1
  C  377  1  0.46391000  0.02102500  0.19572500  1
  C  378  1  0.41185500  0.04272700  0.19099800  1
  C  381  1  0.53737600  0.97425000  0.17822600  1
  C  382  1  0.53492400  0.93477100  0.18159000  1
  C  383  1  0.58708400  0.91290700  0.17853300  1
  C  384  1  0.64493600  0.92916600  0.17483600  1
  C  385  1  0.64669900  0.96916500  0.17493600  1
  C  386  1  0.59448000  0.99208100  0.17527100  1
  C  391  1  0.45939400  0.96040500  0.12107500  1
  C  392  1  0.59976000  0.03382200  0.17088400  1
  C  401  1  0.37159300  0.42529100  0.64858700  1
  C  402  1  0.38087800  0.45357600  0.62551100  1
  C  403  1  0.43547400  0.47366200  0.62214300  1
  C  404  1  0.48162000  0.46820900  0.64483900  1
  C  405  1  0.47104500  0.44278500  0.66971700  1
  C  406  1  0.41834900  0.42104500  0.67092200  1
  C  409  1  0.53668200  0.48890700  0.64488200  1
  C  410  1  0.53337600  0.52849300  0.64714000  1
  C  411  1  0.58550600  0.55070300  0.64672500  1
  C  412  1  0.64402200  0.53478500  0.64686800  1
  C  413  1  0.64629400  0.49483900  0.64531100  1
  C  414  1  0.59446600  0.47173400  0.64329600  1
  C  419  1  0.44170300  0.49820200  0.59391700  1
  C  420  1  0.60439800  0.43051600  0.63821700  1
  C  429  1  0.12166100  0.42101100  0.34799700  1
  C  430  1  0.10932900  0.44744500  0.37215900  1
  C  431  1  0.05485100  0.46793300  0.37419200  1
  C  432  1  0.01231200  0.46455900  0.34939700  1
  C  433  1  0.02589100  0.44075600  0.32388200  1
  C  434  1  0.07830900  0.41883600  0.32365900  1
  C  437  1  0.95754200  0.48537000  0.34818200  1
  C  438  1  0.96129800  0.52498200  0.34718100  1
  C  439  1  0.90919500  0.54717200  0.34723000  1
  C  440  1  0.85078200  0.53122000  0.34576000  1
  C  441  1  0.84825400  0.49124900  0.34573200  1
  C  442  1  0.89982000  0.46797800  0.34801300  1
  C  447  1  0.04490900  0.49085500  0.40305400  1
  C  448  1  0.89261000  0.42615200  0.35069900  1
  C  457  1  0.62051000  0.53712600  0.33839600  1
  C  458  1  0.60434400  0.50948800  0.36094900  1
  C  459  1  0.54984000  0.48909900  0.35995000  1
  C  460  1  0.51173600  0.49357900  0.33339400  1
  C  461  1  0.52922400  0.51859400  0.30934700  1
  C  462  1  0.58159200  0.54047800  0.31218900  1
  C  465  1  0.45690800  0.47320300  0.33022300  1
  C  466  1  0.46057400  0.43360900  0.32871500  1
  C  467  1  0.40895700  0.41138800  0.33216000  1
  C  468  1  0.35069600  0.42728600  0.33499800  1
  C  469  1  0.34782900  0.46724300  0.33383900  1
  C  470  1  0.39943400  0.49063500  0.33266700  1
  C  475  1  0.53536400  0.46509100  0.38770500  1
  C  476  1  0.39323500  0.53254000  0.33512200  1
  C  485  1  0.87366400  0.54033700  0.65735500  1
  C  486  1  0.89256600  0.51425200  0.63412500  1
  C  487  1  0.94661600  0.49341000  0.63619500  1
  C  488  1  0.98162000  0.49631900  0.66404100  1
  C  489  1  0.96154400  0.51996700  0.68843800  1
  C  490  1  0.90953200  0.54193500  0.68486900  1
  C  493  1  0.03609400  0.47592100  0.66831000  1
  C  494  1  0.03233700  0.43633300  0.66956000  1
  C  495  1  0.08431000  0.41422100  0.66720700  1
  C  496  1  0.14261100  0.43028900  0.66527500  1
  C  497  1  0.14537700  0.47018400  0.66719800  1
  C  498  1  0.09363900  0.49348300  0.66762700  1
  C  503  1  0.96400000  0.47044600  0.60830500  1
  C  504  1  0.09977400  0.53544900  0.66599500  1
  C  513  1  0.24994200  0.15452800  0.19329300  1
  C  514  1  0.25426300  0.19261100  0.18324700  1
  C  515  1  0.25339200  0.22352900  0.20405000  1
  C  516  1  0.24629300  0.21616600  0.23654900  1
  C  517  1  0.24056700  0.17881900  0.24722600  1
  C  518  1  0.24305400  0.14874700  0.22600600  1
  C  521  1  0.24569500  0.24532000  0.25904800  1
  C  522  1  0.19292700  0.26705700  0.26165100  1
  C  523  1  0.19092000  0.29807500  0.28188500  1
  C  524  1  0.24095500  0.30827600  0.30065600  1
  C  525  1  0.29323100  0.28548600  0.29777600  1
  C  526  1  0.29741700  0.25462600  0.27699300  1
  C  531  1  0.26147000  0.26191700  0.19041700  1
  C  532  1  0.35454500  0.23252300  0.27411600  1
  C  541  1  0.24263200  0.15358800  0.79952700  1
  C  542  1  0.24258200  0.19158100  0.81002600  1
  C  543  1  0.24392200  0.22282400  0.78950600  1
  C  544  1  0.24759700  0.21597400  0.75674200  1
  C  545  1  0.24880300  0.17860500  0.74564700  1
  C  546  1  0.24540700  0.14824300  0.76659900  1
  C  549  1  0.24878100  0.24560000  0.73448200  1
  C  550  1  0.30197200  0.26702100  0.73185800  1
  C  551  1  0.30422900  0.29872800  0.71229500  1
  C  552  1  0.25407100  0.30995300  0.69404000  1
  C  553  1  0.20164800  0.28721100  0.69655400  1
  C  554  1  0.19710200  0.25584700  0.71682300  1
  C  559  1  0.23987000  0.26112100  0.80377600  1
  C  560  1  0.13930900  0.23439900  0.71962600  1
  C  569  1  0.73708600  0.80527600  0.80357500  1
  C  570  1  0.74731000  0.76770800  0.81381100  1
  C  571  1  0.74981600  0.73659400  0.79323300  1
  C  572  1  0.73991000  0.74309200  0.76080200  1
  C  573  1  0.72833600  0.77984900  0.74997900  1
  C  574  1  0.72780600  0.81022500  0.77093000  1
  C  577  1  0.74341400  0.71391400  0.73837500  1
  C  578  1  0.69483400  0.68853900  0.73640100  1
  C  579  1  0.69712400  0.65786700  0.71577700  1
  C  580  1  0.74727400  0.65177000  0.69590200  1
  C  581  1  0.79537800  0.67797000  0.69836000  1
  C  582  1  0.79539100  0.70853100  0.71953400  1
  C  587  1  0.76440800  0.69902900  0.80697300  1
  C  588  1  0.84851200  0.73435500  0.72178300  1
  C  597  1  0.75815500  0.80693600  0.19659200  1
  C  598  1  0.74663000  0.76977000  0.18577500  1
  C  599  1  0.74321600  0.73821500  0.20589600  1
  C  600  1  0.75356600  0.74373300  0.23844200  1
  C  601  1  0.76726000  0.78003200  0.24970100  1
  C  602  1  0.76882400  0.81088700  0.22921600  1
  C  605  1  0.75021400  0.71391200  0.26041800  1
  C  606  1  0.79806200  0.68791400  0.26114300  1
  C  607  1  0.79598400  0.65660400  0.28110000  1
  C  608  1  0.74689600  0.65030900  0.30168300  1
  C  609  1  0.69957600  0.67718500  0.30060200  1
  C  610  1  0.69931800  0.70845800  0.28007200  1
  C  615  1  0.72702800  0.70122100  0.19159100  1
  C  616  1  0.64690600  0.73493100  0.27916000  1
  C  1249  1  0.25423600  0.59935500  0.17111500  1
  C  1250  1  0.31124200  0.57512000  0.17919100  1
  C  1251  1  0.19754200  0.57316100  0.17415800  1
  C  1252  1  0.20058200  0.53666300  0.15308700  1
  C  1255  1  0.25955400  0.51484900  0.16240500  1
  C  1256  1  0.31792100  0.53915500  0.15786100  1
  C  1261  1  0.31994600  0.55397900  0.12303000  1
  C  1262  1  0.26267900  0.57701900  0.11287400  1
  C  1265  1  0.20680500  0.55052400  0.11824200  1
  C  1268  1  0.25865500  0.61118000  0.13564700  1
  C  1271  1  0.23923600  0.59813600  0.82153100  1
  C  1272  1  0.17975200  0.57540900  0.81555600  1
  C  1273  1  0.29368700  0.57075700  0.81574600  1
  C  1274  1  0.29254800  0.53506000  0.83767300  1
  C  1277  1  0.23050900  0.51460000  0.83165100  1
  C  1278  1  0.17368400  0.53992200  0.83742400  1
  C  1283  1  0.17604700  0.55498200  0.87213500  1
  C  1284  1  0.23709100  0.57497100  0.88038000  1
  C  1287  1  0.29198900  0.54863400  0.87261300  1
  C  1290  1  0.24102200  0.60927200  0.85737200  1
  C  1293  1  0.73766600  0.31758600  0.82545500  1
  C  1294  1  0.79006000  0.34508400  0.81616800  1
  C  1295  1  0.67726400  0.34026100  0.82294500  1
  C  1296  1  0.67564400  0.37654300  0.84417100  1
  C  1299  1  0.73043800  0.40176700  0.83479300  1
  C  1300  1  0.79321400  0.38123400  0.83760000  1
  C  1305  1  0.79936200  0.36775200  0.87249100  1
  C  1306  1  0.74666200  0.34099800  0.88359100  1
  C  1309  1  0.68590600  0.36288400  0.87884900  1
  C  1312  1  0.74660400  0.30654500  0.86096200  1
  C  1315  1  0.75632600  0.31993900  0.17547600  1
  C  1316  1  0.70411000  0.34667400  0.18630900  1
  C  1317  1  0.81691400  0.34248400  0.17719200  1
  C  1318  1  0.81676000  0.37918200  0.15648100  1
  C  1321  1  0.76188000  0.40375900  0.16762500  1
  C  1322  1  0.69888000  0.38315600  0.16558600  1
  C  1327  1  0.69004800  0.37089000  0.13049700  1
  C  1328  1  0.74296400  0.34566100  0.11768200  1
  C  1331  1  0.80450000  0.36670800  0.12170400  1
  C  1334  1  0.74561400  0.31041400  0.13979900  1
  C  1337  1  0.75044600  0.09850520  0.67193700  1
  C  1338  1  0.80773000  0.07374920  0.67789200  1
  C  1339  1  0.69568400  0.07029120  0.67224500  1
  C  1340  1  0.69988100  0.03833020  0.64663600  1
  C  1343  1  0.76044900  0.01649220  0.65271200  1
  C  1344  1  0.81723400  0.04247220  0.65234400  1
  C  1349  1  0.81904600  0.06347820  0.61981700  1
  C  1350  1  0.76018400  0.08642820  0.61190200  1
  C  1353  1  0.70590000  0.05781920  0.61375900  1
  C  1356  1  0.75298200  0.11659300  0.63829400  1
  C  1359  1  0.74383800  0.09582720  0.32460200  1
  C  1360  1  0.68573800  0.07170620  0.31844800  1
  C  1361  1  0.79829200  0.06755020  0.32249100  1
  C  1362  1  0.79506200  0.03470320  0.34715300  1
  C  1365  1  0.73389000  0.01337420  0.34130400  1
  C  1366  1  0.67694000  0.03932120  0.34313100  1
  C  1371  1  0.67556400  0.05904620  0.37622100  1
  C  1372  1  0.73588000  0.07997620  0.38460700  1
  C  1375  1  0.79098800  0.05253220  0.38070200  1
  C  1378  1  0.74311300  0.11163800  0.35913200  1
  C  1381  1  0.23993800  0.81912900  0.32388000  1
  C  1382  1  0.29152100  0.84805800  0.31627000  1
  C  1383  1  0.18019200  0.84286400  0.32388400  1
  C  1384  1  0.17933800  0.87603100  0.34838400  1
  C  1387  1  0.23428700  0.90203100  0.34117000  1
  C  1388  1  0.29625000  0.88047400  0.34128000  1
  C  1393  1  0.30278500  0.86175300  0.37453700  1
  C  1394  1  0.24975700  0.83405100  0.38345800  1
  C  1397  1  0.18978800  0.85742300  0.38138900  1
  C  1400  1  0.24824900  0.80263100  0.35783200  1
  C  1403  1  0.25460600  0.82219800  0.67213200  1
  C  1404  1  0.20320500  0.85050300  0.68149900  1
  C  1405  1  0.31449000  0.84592200  0.67227100  1
  C  1406  1  0.31409400  0.88005800  0.64866900  1
  C  1409  1  0.25906300  0.90550600  0.65747000  1
  C  1410  1  0.19695200  0.88393800  0.65765800  1
  C  1415  1  0.18812800  0.86697300  0.62389700  1
  C  1416  1  0.24152100  0.84079800  0.61292000  1
  C  1419  1  0.30241800  0.86287000  0.61520400  1
  C  1422  1  0.24517400  0.80798300  0.63753700  1
  C  1425  1  0.23890300  0.58480600  0.91512800  1
  C  1426  1  0.23337900  0.55565200  0.93772300  1
  C  1427  1  0.23507500  0.56194500  0.97034400  1
  C  1428  1  0.24577500  0.59918800  0.98116200  1
  C  1429  1  0.25173200  0.62878800  0.95937600  1
  C  1430  1  0.24749900  0.62171300  0.92700400  1
  C  1433  1  0.25456500  0.60628300  0.01351000  1
  C  1434  1  0.30900100  0.59320800  0.02652500  1
  C  1435  1  0.31316900  0.58552200  0.05865800  1
  C  1436  1  0.26367000  0.59105400  0.07909500  1
  C  1437  1  0.21252600  0.60930700  0.06605000  1
  C  1438  1  0.20576100  0.61586900  0.03348900  1
  C  1443  1  0.22626800  0.52857100  0.99118100  1
  C  1444  1  0.14812100  0.63078500  0.02023800  1
  C  1453  1  0.73470600  0.33656300  0.08299600  1
  C  1454  1  0.72646600  0.36620200  0.06107700  1
  C  1455  1  0.72437800  0.36056600  0.02832600  1
  C  1456  1  0.73455600  0.32368700  0.01650900  1
  C  1457  1  0.74155200  0.29355000  0.03767200  1
  C  1458  1  0.74039200  0.29984500  0.07019700  1
  C  1461  1  0.74323000  0.31730500  0.98395500  1
  C  1462  1  0.79522000  0.33320900  0.97033200  1
  C  1463  1  0.79856200  0.33892100  0.93787100  1
  C  1464  1  0.75108000  0.32807900  0.91763700  1
  C  1465  1  0.70375000  0.30690200  0.93151600  1
  C  1466  1  0.69734000  0.30243400  0.96435200  1
  C  1471  1  0.71311400  0.39422000  0.00818700  1
  C  1472  1  0.64248400  0.28436800  0.97807400  1
  C  1481  1  0.73430400  0.09364020  0.41847300  1
  C  1482  1  0.72586700  0.06711720  0.44298700  1
  C  1483  1  0.72648400  0.07665820  0.47505600  1
  C  1484  1  0.73821400  0.11472200  0.48338400  1
  C  1485  1  0.74647800  0.14185100  0.45964900  1
  C  1486  1  0.74366200  0.13151200  0.42782100  1
  C  1489  1  0.74903800  0.12433700  0.51513900  1
  C  1490  1  0.80506400  0.11282300  0.52731300  1
  C  1491  1  0.81070000  0.10342700  0.55907100  1
  C  1492  1  0.76096600  0.10544700  0.57982500  1
  C  1493  1  0.70881900  0.12394900  0.56818400  1
  C  1494  1  0.70066000  0.13213700  0.53594100  1
  C  1499  1  0.71699600  0.04533420  0.49795000  1
  C  1500  1  0.64181000  0.14624600  0.52358700  1
  C  1509  1  0.23336900  0.82816700  0.57898800  1
  C  1510  1  0.22329900  0.85545300  0.55522000  1
  C  1511  1  0.22183500  0.84686500  0.52294400  1
  C  1512  1  0.23465700  0.80932500  0.51352100  1
  C  1513  1  0.24344200  0.78135800  0.53649700  1
  C  1514  1  0.24165500  0.79057000  0.56856400  1
  C  1517  1  0.24600900  0.80097300  0.48153400  1
  C  1518  1  0.29934100  0.81622500  0.46882500  1
  C  1519  1  0.30313200  0.82438200  0.43674600  1
  C  1520  1  0.25474500  0.81671100  0.41608300  1
  C  1521  1  0.20676700  0.79487000  0.42855900  1
  C  1522  1  0.19982100  0.78820700  0.46111700  1
  C  1527  1  0.20954400  0.87852100  0.50077800  1
  C  1528  1  0.14403100  0.77041700  0.47400300  1
  C  1537  1  0.87518000  0.40179500  0.15785900  1
  C  1538  1  0.88192200  0.43506100  0.13966100  1
  C  1539  1  0.93584600  0.45612300  0.13826500  1
  C  1540  1  0.98547600  0.44407100  0.15670300  1
  C  1541  1  0.97964100  0.41183200  0.17570300  1
  C  1542  1  0.92588800  0.39109100  0.17602300  1
  C  1545  1  0.04090100  0.46385800  0.15722600  1
  C  1546  1  0.04420400  0.49644700  0.17595500  1
  C  1547  1  0.09547300  0.51940300  0.17530800  1
  C  1548  1  0.14571300  0.51102900  0.15599800  1
  C  1549  1  0.14170600  0.47742100  0.13801400  1
  C  1550  1  0.09043600  0.45373400  0.13791000  1
  C  1555  1  0.93742100  0.48928700  0.11679800  1
  C  1556  1  0.08811500  0.41915100  0.11788700  1
  C  1565  1  0.61780200  0.39951000  0.84134100  1
  C  1566  1  0.60481600  0.42881700  0.86298600  1
  C  1567  1  0.55034800  0.44937500  0.86289000  1
  C  1568  1  0.50888600  0.44326600  0.83797300  1
  C  1569  1  0.52310400  0.41648600  0.81470900  1
  C  1570  1  0.57524000  0.39443400  0.81691600  1
  C  1573  1  0.45424000  0.46385200  0.83485900  1
  C  1574  1  0.45814000  0.50326200  0.83142300  1
  C  1575  1  0.40627600  0.52564300  0.83204100  1
  C  1576  1  0.34767800  0.50991400  0.83319100  1
  C  1577  1  0.34502700  0.46997500  0.83481200  1
  C  1578  1  0.39653800  0.44664500  0.83681500  1
  C  1583  1  0.53937200  0.47527400  0.88986200  1
  C  1584  1  0.38950100  0.40514600  0.84210100  1
  C  1593  1  0.11691500  0.51644400  0.83241700  1
  C  1594  1  0.10345800  0.48609700  0.85297000  1
  C  1595  1  0.04898000  0.46570100  0.85203400  1
  C  1596  1  0.00813100  0.47283400  0.82703500  1
  C  1597  1  0.02283800  0.50068600  0.80468200  1
  C  1598  1  0.07507500  0.52266400  0.80786200  1
  C  1601  1  0.95293000  0.45272900  0.82404500  1
  C  1602  1  0.95607500  0.41330600  0.82039200  1
  C  1603  1  0.90486800  0.39083800  0.82451700  1
  C  1604  1  0.84694000  0.40642400  0.82958200  1
  C  1605  1  0.84444800  0.44642000  0.83062800  1
  C  1606  1  0.89592000  0.46988800  0.82918100  1
  C  1611  1  0.03746900  0.43897200  0.87842000  1
  C  1612  1  0.89010400  0.51147500  0.83437800  1
  C  1621  1  0.37340800  0.51524900  0.16489200  1
  C  1622  1  0.38961500  0.48523900  0.14458400  1
  C  1623  1  0.44419000  0.46505700  0.14724000  1
  C  1624  1  0.48197200  0.47211700  0.17357100  1
  C  1625  1  0.46391000  0.49938600  0.19572500  1
  C  1626  1  0.41185500  0.52108800  0.19099800  1
  C  1629  1  0.53737600  0.45261100  0.17822600  1
  C  1630  1  0.53492400  0.41313200  0.18159000  1
  C  1631  1  0.58708400  0.39126800  0.17853300  1
  C  1632  1  0.64493600  0.40752700  0.17483600  1
  C  1633  1  0.64669900  0.44752600  0.17493600  1
  C  1634  1  0.59448000  0.47044200  0.17527100  1
  C  1639  1  0.45939400  0.43876600  0.12107500  1
  C  1640  1  0.59976000  0.51218300  0.17088400  1
  C  1649  1  0.37159300  0.90365200  0.64858700  1
  C  1650  1  0.38087800  0.93193700  0.62551100  1
  C  1651  1  0.43547400  0.95202300  0.62214300  1
  C  1652  1  0.48162000  0.94657000  0.64483900  1
  C  1653  1  0.47104500  0.92114600  0.66971700  1
  C  1654  1  0.41834900  0.89940600  0.67092200  1
  C  1657  1  0.53668200  0.96726800  0.64488200  1
  C  1658  1  0.53337600  0.00685419  0.64714000  1
  C  1659  1  0.58550600  0.02906420  0.64672500  1
  C  1660  1  0.64402200  0.01314620  0.64686800  1
  C  1661  1  0.64629400  0.97320000  0.64531100  1
  C  1662  1  0.59446600  0.95009500  0.64329600  1
  C  1667  1  0.44170300  0.97656300  0.59391700  1
  C  1668  1  0.60439800  0.90887700  0.63821700  1
  C  1677  1  0.12166100  0.89937200  0.34799700  1
  C  1678  1  0.10932900  0.92580600  0.37215900  1
  C  1679  1  0.05485100  0.94629400  0.37419200  1
  C  1680  1  0.01231200  0.94292000  0.34939700  1
  C  1681  1  0.02589100  0.91911700  0.32388200  1
  C  1682  1  0.07830900  0.89719700  0.32365900  1
  C  1685  1  0.95754200  0.96373100  0.34818200  1
  C  1686  1  0.96129800  0.00334319  0.34718100  1
  C  1687  1  0.90919500  0.02553320  0.34723000  1
  C  1688  1  0.85078200  0.00958119  0.34576000  1
  C  1689  1  0.84825400  0.96961000  0.34573200  1
  C  1690  1  0.89982000  0.94633900  0.34801300  1
  C  1695  1  0.04490900  0.96921600  0.40305400  1
  C  1696  1  0.89261000  0.90451300  0.35069900  1
  C  1705  1  0.62051000  0.01548720  0.33839600  1
  C  1706  1  0.60434400  0.98784900  0.36094900  1
  C  1707  1  0.54984000  0.96746000  0.35995000  1
  C  1708  1  0.51173600  0.97194000  0.33339400  1
  C  1709  1  0.52922400  0.99695500  0.30934700  1
  C  1710  1  0.58159200  0.01883920  0.31218900  1
  C  1713  1  0.45690800  0.95156400  0.33022300  1
  C  1714  1  0.46057400  0.91197000  0.32871500  1
  C  1715  1  0.40895700  0.88974900  0.33216000  1
  C  1716  1  0.35069600  0.90564700  0.33499800  1
  C  1717  1  0.34782900  0.94560400  0.33383900  1
  C  1718  1  0.39943400  0.96899600  0.33266700  1
  C  1723  1  0.53536400  0.94345200  0.38770500  1
  C  1724  1  0.39323500  0.01090120  0.33512200  1
  C  1733  1  0.87366400  0.01869820  0.65735500  1
  C  1734  1  0.89256600  0.99261300  0.63412500  1
  C  1735  1  0.94661600  0.97177100  0.63619500  1
  C  1736  1  0.98162000  0.97468000  0.66404100  1
  C  1737  1  0.96154400  0.99832800  0.68843800  1
  C  1738  1  0.90953200  0.02029620  0.68486900  1
  C  1741  1  0.03609400  0.95428200  0.66831000  1
  C  1742  1  0.03233700  0.91469400  0.66956000  1
  C  1743  1  0.08431000  0.89258200  0.66720700  1
  C  1744  1  0.14261100  0.90865000  0.66527500  1
  C  1745  1  0.14537700  0.94854500  0.66719800  1
  C  1746  1  0.09363900  0.97184400  0.66762700  1
  C  1751  1  0.96400000  0.94880700  0.60830500  1
  C  1752  1  0.09977400  0.01381020  0.66599500  1
  C  1761  1  0.24994200  0.63288900  0.19329300  1
  C  1762  1  0.25426300  0.67097200  0.18324700  1
  C  1763  1  0.25339200  0.70189000  0.20405000  1
  C  1764  1  0.24629300  0.69452700  0.23654900  1
  C  1765  1  0.24056700  0.65718000  0.24722600  1
  C  1766  1  0.24305400  0.62710800  0.22600600  1
  C  1769  1  0.24569500  0.72368100  0.25904800  1
  C  1770  1  0.19292700  0.74541800  0.26165100  1
  C  1771  1  0.19092000  0.77643600  0.28188500  1
  C  1772  1  0.24095500  0.78663700  0.30065600  1
  C  1773  1  0.29323100  0.76384700  0.29777600  1
  C  1774  1  0.29741700  0.73298700  0.27699300  1
  C  1779  1  0.26147000  0.74027800  0.19041700  1
  C  1780  1  0.35454500  0.71088400  0.27411600  1
  C  1789  1  0.24263200  0.63194900  0.79952700  1
  C  1790  1  0.24258200  0.66994200  0.81002600  1
  C  1791  1  0.24392200  0.70118500  0.78950600  1
  C  1792  1  0.24759700  0.69433500  0.75674200  1
  C  1793  1  0.24880300  0.65696600  0.74564700  1
  C  1794  1  0.24540700  0.62660400  0.76659900  1
  C  1797  1  0.24878100  0.72396100  0.73448200  1
  C  1798  1  0.30197200  0.74538200  0.73185800  1
  C  1799  1  0.30422900  0.77708900  0.71229500  1
  C  1800  1  0.25407100  0.78831400  0.69404000  1
  C  1801  1  0.20164800  0.76557200  0.69655400  1
  C  1802  1  0.19710200  0.73420800  0.71682300  1
  C  1807  1  0.23987000  0.73948200  0.80377600  1
  C  1808  1  0.13930900  0.71276000  0.71962600  1
  C  1817  1  0.73708600  0.28363700  0.80357500  1
  C  1818  1  0.74731000  0.24606900  0.81381100  1
  C  1819  1  0.74981600  0.21495500  0.79323300  1
  C  1820  1  0.73991000  0.22145300  0.76080200  1
  C  1821  1  0.72833600  0.25821000  0.74997900  1
  C  1822  1  0.72780600  0.28858600  0.77093000  1
  C  1825  1  0.74341400  0.19227500  0.73837500  1
  C  1826  1  0.69483400  0.16690000  0.73640100  1
  C  1827  1  0.69712400  0.13622800  0.71577700  1
  C  1828  1  0.74727400  0.13013100  0.69590200  1
  C  1829  1  0.79537800  0.15633100  0.69836000  1
  C  1830  1  0.79539100  0.18689200  0.71953400  1
  C  1835  1  0.76440800  0.17739000  0.80697300  1
  C  1836  1  0.84851200  0.21271600  0.72178300  1
  C  1845  1  0.75815500  0.28529700  0.19659200  1
  C  1846  1  0.74663000  0.24813100  0.18577500  1
  C  1847  1  0.74321600  0.21657600  0.20589600  1
  C  1848  1  0.75356600  0.22209400  0.23844200  1
  C  1849  1  0.76726000  0.25839300  0.24970100  1
  C  1850  1  0.76882400  0.28924800  0.22921600  1
  C  1853  1  0.75021400  0.19227300  0.26041800  1
  C  1854  1  0.79806200  0.16627500  0.26114300  1
  C  1855  1  0.79598400  0.13496500  0.28110000  1
  C  1856  1  0.74689600  0.12867000  0.30168300  1
  C  1857  1  0.69957600  0.15554600  0.30060200  1
  C  1858  1  0.69931800  0.18681900  0.28007200  1
  C  1863  1  0.72702800  0.17958200  0.19159100  1
  C  1864  1  0.64690600  0.21329200  0.27916000  1
  H  5  1  0.15759000  0.11132100  0.16812000  1
  H  6  1  0.19237000  0.08579300  0.19850300  1
  H  9  1  0.25632500  0.02732700  0.18687300  1
  H  10  1  0.26357600  0.01098800  0.14830400  1
  H  11  1  0.30845300  0.08771300  0.20364200  1
  H  12  1  0.35146600  0.11437200  0.17700900  1
  H  15  1  0.32395500  0.05221600  0.10661600  1
  H  16  1  0.36041200  0.09290700  0.12032800  1
  H  18  1  0.21092300  0.04829000  0.10219800  1
  H  19  1  0.16491200  0.08646200  0.11210300  1
  H  21  1  0.29858400  0.15033300  0.13192600  1
  H  22  1  0.21923600  0.14985100  0.12979200  1
  H  27  1  0.33445800  0.10896500  0.81920700  1
  H  28  1  0.29465400  0.08248500  0.79149000  1
  H  31  1  0.22958300  0.02529300  0.80764300  1
  H  32  1  0.22689300  0.01221900  0.84745200  1
  H  33  1  0.17879400  0.08775000  0.79112400  1
  H  34  1  0.14106800  0.11567200  0.81902700  1
  H  37  1  0.16943800  0.05349000  0.88835400  1
  H  38  1  0.13839600  0.09592200  0.87618200  1
  H  40  1  0.29153600  0.04532900  0.88763400  1
  H  41  1  0.33370100  0.08540200  0.87794100  1
  H  43  1  0.20332600  0.14974000  0.86257800  1
  H  44  1  0.28277700  0.14631300  0.86196800  1
  H  49  1  0.63947500  0.84346000  0.82890900  1
  H  50  1  0.67139000  0.87058100  0.79861000  1
  H  53  1  0.72450400  0.93374400  0.81079300  1
  H  54  1  0.72956900  0.94778800  0.85037200  1
  H  55  1  0.78561200  0.87595200  0.79180900  1
  H  56  1  0.83147000  0.85034300  0.81750200  1
  H  59  1  0.80099200  0.91421500  0.88769900  1
  H  60  1  0.84228900  0.87462100  0.87515800  1
  H  62  1  0.68682800  0.90801900  0.89531400  1
  H  63  1  0.64707600  0.86730200  0.88525800  1
  H  65  1  0.78936400  0.81330400  0.86399900  1
  H  66  1  0.71058200  0.80882400  0.86764600  1
  H  71  1  0.85362800  0.84555400  0.16984500  1
  H  72  1  0.82579800  0.87232800  0.20145000  1
  H  75  1  0.76960200  0.93496500  0.19170300  1
  H  76  1  0.76049000  0.95035100  0.15277900  1
  H  77  1  0.71025800  0.87702700  0.21070100  1
  H  78  1  0.66280700  0.85175600  0.18554300  1
  H  81  1  0.68546400  0.91820600  0.11665200  1
  H  82  1  0.64776000  0.87705800  0.12778200  1
  H  84  1  0.80450800  0.91291300  0.10636500  1
  H  85  1  0.84134400  0.87026800  0.11366700  1
  H  87  1  0.70327200  0.81663000  0.13711800  1
  H  88  1  0.78226600  0.81360800  0.13220900  1
  H  93  1  0.65518200  0.60862200  0.66849700  1
  H  94  1  0.69154200  0.57881400  0.69538700  1
  H  97  1  0.75789400  0.52346200  0.67527000  1
  H  98  1  0.76632400  0.51679900  0.63450900  1
  H  99  1  0.80330800  0.58255900  0.70113000  1
  H  100  1  0.84822600  0.61277200  0.67832300  1
  H  103  1  0.82544400  0.56486600  0.60088200  1
  H  104  1  0.85816300  0.60386000  0.61968800  1
  H  106  1  0.71116400  0.55797200  0.59553500  1
  H  107  1  0.66366200  0.59393300  0.60877400  1
  H  109  1  0.79059200  0.65791500  0.63627000  1
  H  110  1  0.71195000  0.65467400  0.63466200  1
  H  115  1  0.83931600  0.60543300  0.32611900  1
  H  116  1  0.80088800  0.57700800  0.29893700  1
  H  119  1  0.73521000  0.52129500  0.31830800  1
  H  120  1  0.72915600  0.51290700  0.35893500  1
  H  121  1  0.68866200  0.58151300  0.29478300  1
  H  122  1  0.64563300  0.61108700  0.31905600  1
  H  125  1  0.66641400  0.55981200  0.39413700  1
  H  126  1  0.63789600  0.60053400  0.37722200  1
  H  128  1  0.78863200  0.55113400  0.39765800  1
  H  129  1  0.83220800  0.58978500  0.38602800  1
  H  131  1  0.70620600  0.65328600  0.36209600  1
  H  132  1  0.78492400  0.64884000  0.36318200  1
  H  137  1  0.14182700  0.34609400  0.32879500  1
  H  138  1  0.17450100  0.37590200  0.30023400  1
  H  141  1  0.22758600  0.43713800  0.31832400  1
  H  142  1  0.23539400  0.44594800  0.35887400  1
  H  143  1  0.28446400  0.38190900  0.29297300  1
  H  144  1  0.33402500  0.35465100  0.31509900  1
  H  147  1  0.30575000  0.40582500  0.39209300  1
  H  148  1  0.34510400  0.36771900  0.37544000  1
  H  150  1  0.19182300  0.40018800  0.39995100  1
  H  151  1  0.15049400  0.36157600  0.38638000  1
  H  153  1  0.29006000  0.30822200  0.35966600  1
  H  154  1  0.21155500  0.30449900  0.36241700  1
  H  159  1  0.35253700  0.34932500  0.66636300  1
  H  160  1  0.32159300  0.37803700  0.69612300  1
  H  163  1  0.26694900  0.43965000  0.68058900  1
  H  164  1  0.25670200  0.45020000  0.64052200  1
  H  165  1  0.21153600  0.38329700  0.70504600  1
  H  166  1  0.16072300  0.35707700  0.68281200  1
  H  169  1  0.18218400  0.41242600  0.60806300  1
  H  170  1  0.14650600  0.37224100  0.62264500  1
  H  172  1  0.30156100  0.40674500  0.59764600  1
  H  173  1  0.33987700  0.36595700  0.60886500  1
  H  175  1  0.20392100  0.31305400  0.63556900  1
  H  176  1  0.28263900  0.31083300  0.63183100  1
  H  183  1  0.25991300  0.17731300  0.96689900  1
  H  184  1  0.25250000  0.16578000  0.91231900  1
  H  191  1  0.34388200  0.10677100  0.01230500  1
  H  192  1  0.35208600  0.09497000  0.06615000  1
  H  193  1  0.17716900  0.13708700  0.08035900  1
  H  194  1  0.22805800  0.05012000  0.93041600  1
  H  198  1  0.13052300  0.13281500  0.00270200  1
  H  199  1  0.15825500  0.17883800  0.00829200  1
  H  200  1  0.08460700  0.13664200  0.04991500  1
  H  202  1  0.21895300  0.05802600  0.01564000  1
  H  203  1  0.18621100  0.03475200  0.98363900  1
  H  204  1  0.27088000  0.00438200  0.00260000  1
  H  211  1  0.74952300  0.78851300  0.02957600  1
  H  212  1  0.74700400  0.79860700  0.08417700  1
  H  219  1  0.82822400  0.86628400  0.98415700  1
  H  220  1  0.83485800  0.87520700  0.92986000  1
  H  221  1  0.67023400  0.81862800  0.91747500  1
  H  222  1  0.72347000  0.91491900  0.06890800  1
  H  226  1  0.62155400  0.82513900  0.99497300  1
  H  227  1  0.65688300  0.78095300  0.99082000  1
  H  228  1  0.57709800  0.81618500  0.94781000  1
  H  230  1  0.70236000  0.90819900  0.98401900  1
  H  231  1  0.67430000  0.93133200  0.01730300  1
  H  232  1  0.75644600  0.96165500  0.99545600  1
  H  239  1  0.75612200  0.69082400  0.46535900  1
  H  240  1  0.75108800  0.67379100  0.41166300  1
  H  247  1  0.83977400  0.62759600  0.51253900  1
  H  248  1  0.85052000  0.61330100  0.56569100  1
  H  249  1  0.67335000  0.64958600  0.58294900  1
  H  250  1  0.72031200  0.56096800  0.43760200  1
  H  254  1  0.62412800  0.64826100  0.50609000  1
  H  255  1  0.65032900  0.69460300  0.51175800  1
  H  256  1  0.58009400  0.65078500  0.55379400  1
  H  258  1  0.70968700  0.57697700  0.52182300  1
  H  259  1  0.67673800  0.55112500  0.49131500  1
  H  260  1  0.76076000  0.52203000  0.51236500  1
  H  267  1  0.25354400  0.27596400  0.53005000  1
  H  268  1  0.25017100  0.29098700  0.58400400  1
  H  275  1  0.33225400  0.34826400  0.48327100  1
  H  276  1  0.33997600  0.36080500  0.42964800  1
  H  277  1  0.17273500  0.30859600  0.41397300  1
  H  278  1  0.21912500  0.40476700  0.56118800  1
  H  282  1  0.12287600  0.31101100  0.49096300  1
  H  283  1  0.15743600  0.26664000  0.48656400  1
  H  284  1  0.07971200  0.30334300  0.44338500  1
  H  286  1  0.19978300  0.39032000  0.47706100  1
  H  287  1  0.16978800  0.41562800  0.50872500  1
  H  288  1  0.25101100  0.44557400  0.48561900  1
  H  295  1  0.01488900  0.92449500  0.18926000  1
  H  296  1  0.92516800  0.88936600  0.18987300  1
  H  303  1  0.00851500  0.02599700  0.18967200  1
  H  304  1  0.09419200  0.06458400  0.18892600  1
  H  305  1  0.17694500  0.99194400  0.12393800  1
  H  306  1  0.84679200  0.96582200  0.12622800  1
  H  310  1  0.04794900  0.94165400  0.10306300  1
  H  311  1  0.08399300  0.91648300  0.13338000  1
  H  312  1  0.13927100  0.95225600  0.08119600  1
  H  314  1  0.98218200  0.02337400  0.11495000  1
  H  315  1  0.92435400  0.00187900  0.09322700  1
  H  316  1  0.89717400  0.06005100  0.11300300  1
  H  323  1  0.49493400  0.93390700  0.79602800  1
  H  324  1  0.58143000  0.89663100  0.79968600  1
  H  331  1  0.49918600  0.03799300  0.83069800  1
  H  332  1  0.41278700  0.07564900  0.83257500  1
  H  333  1  0.30444100  0.97863700  0.83572200  1
  H  334  1  0.63512600  0.95673600  0.88016200  1
  H  338  1  0.42121500  0.91731900  0.86007600  1
  H  339  1  0.40062700  0.91232700  0.82031000  1
  H  340  1  0.32222700  0.92333500  0.87226100  1
  H  342  1  0.49272200  0.00639700  0.89105800  1
  H  343  1  0.54849200  0.98200200  0.91181900  1
  H  344  1  0.57102200  0.04510100  0.90549200  1
  H  351  1  0.99466400  0.02758000  0.78619700  1
  H  352  1  0.08188900  0.06481700  0.79153500  1
  H  359  1  0.99683700  0.92186900  0.81767800  1
  H  360  1  0.91175000  0.88414900  0.82502100  1
  H  361  1  0.80434200  0.98098100  0.83405400  1
  H  362  1  0.13311900  0.00085500  0.87031500  1
  H  366  1  0.92333200  0.04240200  0.85166200  1
  H  367  1  0.90005000  0.04725900  0.81228700  1
  H  368  1  0.82533600  0.03815500  0.86585700  1
  H  370  1  0.99042800  0.95196700  0.87978400  1
  H  371  1  0.04783300  0.97442400  0.90072700  1
  H  372  1  0.06723000  0.91125000  0.89242700  1
  H  379  1  0.48962700  0.02617500  0.21518100  1
  H  380  1  0.40284900  0.06291100  0.20731100  1
  H  387  1  0.49429600  0.92122200  0.18275200  1
  H  388  1  0.58100300  0.88453200  0.17720200  1
  H  389  1  0.68691200  0.98244100  0.17293400  1
  H  390  1  0.36223800  0.00032200  0.12615500  1
  H  394  1  0.56840400  0.04316300  0.15269200  1
  H  395  1  0.58681000  0.04736400  0.19281400  1
  H  396  1  0.66799800  0.04025600  0.14164700  1
  H  398  1  0.50657600  0.95191900  0.12131600  1
  H  399  1  0.45184200  0.97451400  0.09859000  1
  H  400  1  0.43200900  0.91116000  0.10555900  1
  H  407  1  0.50279400  0.43891600  0.68683600  1
  H  408  1  0.41497100  0.40229000  0.68890900  1
  H  415  1  0.49252800  0.54178300  0.64816300  1
  H  416  1  0.57942800  0.57913800  0.64644100  1
  H  417  1  0.68681800  0.48153200  0.64448100  1
  H  418  1  0.34762400  0.45915900  0.60967900  1
  H  422  1  0.56277600  0.41450000  0.63592800  1
  H  423  1  0.62837400  0.41923000  0.65849000  1
  H  424  1  0.61698000  0.43093300  0.59231800  1
  H  426  1  0.48806200  0.50721700  0.59005500  1
  H  427  1  0.42826200  0.48236800  0.57303800  1
  H  428  1  0.40804700  0.54590800  0.57840400  1
  H  435  1  0.99711600  0.43869900  0.30519600  1
  H  436  1  0.08403000  0.40164600  0.30479500  1
  H  443  1  0.00224700  0.53820100  0.34765200  1
  H  444  1  0.91513200  0.57558100  0.34860900  1
  H  445  1  0.80764400  0.47818900  0.34470900  1
  H  446  1  0.14018600  0.45146600  0.38955700  1
  H  450  1  0.92482600  0.41488300  0.36768000  1
  H  451  1  0.90273600  0.41370400  0.32793000  1
  H  452  1  0.82624400  0.42084200  0.38120600  1
  H  454  1  0.99840800  0.50036800  0.40527500  1
  H  455  1  0.05444900  0.47360300  0.42373500  1
  H  456  1  0.07752700  0.53706200  0.42195300  1
  H  463  1  0.50314400  0.52174300  0.28972500  1
  H  464  1  0.59065200  0.55878200  0.29439900  1
  H  471  1  0.50155200  0.42045100  0.32771900  1
  H  472  1  0.41538800  0.38302100  0.33372700  1
  H  473  1  0.30717100  0.48016800  0.33522300  1
  H  474  1  0.63197200  0.50471600  0.37965600  1
  H  478  1  0.42413800  0.54328900  0.35298300  1
  H  479  1  0.40626600  0.54474600  0.31266500  1
  H  480  1  0.32440300  0.54028100  0.36374500  1
  H  482  1  0.48828600  0.45638700  0.38817800  1
  H  483  1  0.54312400  0.48114700  0.40924000  1
  H  484  1  0.56359000  0.41741800  0.40598700  1
  H  491  1  0.98535800  0.52197900  0.70893700  1
  H  492  1  0.89854600  0.55899000  0.70319800  1
  H  499  1  0.99133600  0.42314700  0.66930600  1
  H  500  1  0.07814200  0.38587400  0.66514400  1
  H  501  1  0.18611500  0.48312200  0.66674300  1
  H  502  1  0.86717800  0.51081600  0.61438100  1
  H  506  1  0.07088200  0.54649900  0.64736500  1
  H  507  1  0.08404400  0.54711600  0.68818500  1
  H  508  1  0.17167200  0.54414700  0.63970600  1
  H  510  1  0.01062900  0.46089500  0.60934100  1
  H  511  1  0.95990800  0.48761900  0.58709800  1
  H  512  1  0.93651200  0.42414600  0.58744500  1
  H  519  1  0.23566300  0.17311700  0.27064500  1
  H  520  1  0.24028300  0.12223200  0.23510700  1
  H  527  1  0.15574000  0.26088500  0.24840600  1
  H  528  1  0.15162900  0.31282600  0.28251800  1
  H  529  1  0.32967100  0.29140900  0.31140100  1
  H  530  1  0.25963500  0.19878900  0.16009700  1
  H  534  1  0.36723200  0.23034600  0.24938200  1
  H  535  1  0.34598600  0.20411400  0.28272900  1
  H  536  1  0.41908600  0.26979000  0.28128700  1
  H  538  1  0.26728500  0.28358900  0.20830900  1
  H  539  1  0.30204000  0.26218300  0.17587700  1
  H  540  1  0.21691900  0.29603000  0.16242900  1
  H  547  1  0.25116500  0.17312700  0.72208800  1
  H  548  1  0.24505200  0.12182300  0.75719300  1
  H  555  1  0.33920300  0.26028600  0.74486900  1
  H  556  1  0.34363400  0.31338600  0.71184700  1
  H  557  1  0.16508500  0.29379000  0.68323600  1
  H  558  1  0.24028300  0.19745500  0.83337200  1
  H  562  1  0.12732400  0.23140900  0.74439500  1
  H  563  1  0.14656800  0.20624900  0.71015100  1
  H  564  1  0.07591900  0.27281400  0.71405400  1
  H  566  1  0.23337300  0.28322900  0.78632600  1
  H  567  1  0.20106000  0.26213700  0.81954700  1
  H  568  1  0.28967400  0.29359300  0.83068700  1
  H  575  1  0.72162000  0.78499600  0.72659300  1
  H  576  1  0.72110800  0.83637200  0.76165100  1
  H  583  1  0.65759400  0.69189300  0.75028600  1
  H  584  1  0.66078200  0.64038500  0.71554100  1
  H  585  1  0.83171000  0.67495600  0.68401500  1
  H  586  1  0.75488400  0.76217500  0.83690800  1
  H  590  1  0.86184700  0.73736000  0.74636500  1
  H  591  1  0.83478600  0.76202900  0.71333100  1
  H  592  1  0.91861800  0.70154700  0.71374000  1
  H  594  1  0.77231000  0.67754800  0.78914000  1
  H  595  1  0.80571400  0.70131700  0.82080900  1
  H  596  1  0.72688000  0.66285600  0.83594700  1
  H  603  1  0.77488800  0.78450900  0.27310500  1
  H  604  1  0.77696600  0.83671000  0.23882200  1
  H  611  1  0.83454400  0.69120100  0.24670400  1
  H  612  1  0.83172000  0.63868500  0.28017800  1
  H  613  1  0.66390000  0.67396000  0.31536900  1
  H  614  1  0.73862400  0.76495600  0.16259800  1
  H  618  1  0.63222000  0.73874400  0.25486700  1
  H  619  1  0.66198000  0.76221200  0.28787700  1
  H  620  1  0.57630700  0.70273800  0.28774300  1
  H  622  1  0.71821200  0.67950600  0.20910900  1
  H  623  1  0.68582000  0.70448500  0.17781000  1
  H  624  1  0.76301800  0.66508500  0.16206400  1
  H  1253  1  0.15759000  0.58968200  0.16812000  1
  H  1254  1  0.19237000  0.56415400  0.19850300  1
  H  1257  1  0.25632500  0.50568800  0.18687300  1
  H  1258  1  0.26357600  0.48934900  0.14830400  1
  H  1259  1  0.30845300  0.56607400  0.20364200  1
  H  1260  1  0.35146600  0.59273300  0.17700900  1
  H  1263  1  0.32395500  0.53057700  0.10661600  1
  H  1264  1  0.36041200  0.57126800  0.12032800  1
  H  1266  1  0.21092300  0.52665100  0.10219800  1
  H  1267  1  0.16491200  0.56482300  0.11210300  1
  H  1269  1  0.29858400  0.62869400  0.13192600  1
  H  1270  1  0.21923600  0.62821200  0.12979200  1
  H  1275  1  0.33445800  0.58732600  0.81920700  1
  H  1276  1  0.29465400  0.56084600  0.79149000  1
  H  1279  1  0.22958300  0.50365400  0.80764300  1
  H  1280  1  0.22689300  0.49058000  0.84745200  1
  H  1281  1  0.17879400  0.56611100  0.79112400  1
  H  1282  1  0.14106800  0.59403300  0.81902700  1
  H  1285  1  0.16943800  0.53185100  0.88835400  1
  H  1286  1  0.13839600  0.57428300  0.87618200  1
  H  1288  1  0.29153600  0.52369000  0.88763400  1
  H  1289  1  0.33370100  0.56376300  0.87794100  1
  H  1291  1  0.20332600  0.62810100  0.86257800  1
  H  1292  1  0.28277700  0.62467400  0.86196800  1
  H  1297  1  0.63947500  0.32182100  0.82890900  1
  H  1298  1  0.67139000  0.34894200  0.79861000  1
  H  1301  1  0.72450400  0.41210500  0.81079300  1
  H  1302  1  0.72956900  0.42614900  0.85037200  1
  H  1303  1  0.78561200  0.35431300  0.79180900  1
  H  1304  1  0.83147000  0.32870400  0.81750200  1
  H  1307  1  0.80099200  0.39257600  0.88769900  1
  H  1308  1  0.84228900  0.35298200  0.87515800  1
  H  1310  1  0.68682800  0.38638000  0.89531400  1
  H  1311  1  0.64707600  0.34566300  0.88525800  1
  H  1313  1  0.78936400  0.29166500  0.86399900  1
  H  1314  1  0.71058200  0.28718500  0.86764600  1
  H  1319  1  0.85362800  0.32391500  0.16984500  1
  H  1320  1  0.82579800  0.35068900  0.20145000  1
  H  1323  1  0.76960200  0.41332600  0.19170300  1
  H  1324  1  0.76049000  0.42871200  0.15277900  1
  H  1325  1  0.71025800  0.35538800  0.21070100  1
  H  1326  1  0.66280700  0.33011700  0.18554300  1
  H  1329  1  0.68546400  0.39656700  0.11665200  1
  H  1330  1  0.64776000  0.35541900  0.12778200  1
  H  1332  1  0.80450800  0.39127400  0.10636500  1
  H  1333  1  0.84134400  0.34862900  0.11366700  1
  H  1335  1  0.70327200  0.29499100  0.13711800  1
  H  1336  1  0.78226600  0.29196900  0.13220900  1
  H  1341  1  0.65518200  0.08698320  0.66849700  1
  H  1342  1  0.69154200  0.05717520  0.69538700  1
  H  1345  1  0.75789400  0.00182319  0.67527000  1
  H  1346  1  0.76632400  0.99516000  0.63450900  1
  H  1347  1  0.80330800  0.06092020  0.70113000  1
  H  1348  1  0.84822600  0.09113320  0.67832300  1
  H  1351  1  0.82544400  0.04322720  0.60088200  1
  H  1352  1  0.85816300  0.08222120  0.61968800  1
  H  1354  1  0.71116400  0.03633320  0.59553500  1
  H  1355  1  0.66366200  0.07229420  0.60877400  1
  H  1357  1  0.79059200  0.13627600  0.63627000  1
  H  1358  1  0.71195000  0.13303500  0.63466200  1
  H  1363  1  0.83931600  0.08379420  0.32611900  1
  H  1364  1  0.80088800  0.05536920  0.29893700  1
  H  1367  1  0.73521000  0.99965600  0.31830800  1
  H  1368  1  0.72915600  0.99126800  0.35893500  1
  H  1369  1  0.68866200  0.05987420  0.29478300  1
  H  1370  1  0.64563300  0.08944820  0.31905600  1
  H  1373  1  0.66641400  0.03817320  0.39413700  1
  H  1374  1  0.63789600  0.07889520  0.37722200  1
  H  1376  1  0.78863200  0.02949520  0.39765800  1
  H  1377  1  0.83220800  0.06814620  0.38602800  1
  H  1379  1  0.70620600  0.13164700  0.36209600  1
  H  1380  1  0.78492400  0.12720100  0.36318200  1
  H  1385  1  0.14182700  0.82445500  0.32879500  1
  H  1386  1  0.17450100  0.85426300  0.30023400  1
  H  1389  1  0.22758600  0.91549900  0.31832400  1
  H  1390  1  0.23539400  0.92430900  0.35887400  1
  H  1391  1  0.28446400  0.86027000  0.29297300  1
  H  1392  1  0.33402500  0.83301200  0.31509900  1
  H  1395  1  0.30575000  0.88418600  0.39209300  1
  H  1396  1  0.34510400  0.84608000  0.37544000  1
  H  1398  1  0.19182300  0.87854900  0.39995100  1
  H  1399  1  0.15049400  0.83993700  0.38638000  1
  H  1401  1  0.29006000  0.78658300  0.35966600  1
  H  1402  1  0.21155500  0.78286000  0.36241700  1
  H  1407  1  0.35253700  0.82768600  0.66636300  1
  H  1408  1  0.32159300  0.85639800  0.69612300  1
  H  1411  1  0.26694900  0.91801100  0.68058900  1
  H  1412  1  0.25670200  0.92856100  0.64052200  1
  H  1413  1  0.21153600  0.86165800  0.70504600  1
  H  1414  1  0.16072300  0.83543800  0.68281200  1
  H  1417  1  0.18218400  0.89078700  0.60806300  1
  H  1418  1  0.14650600  0.85060200  0.62264500  1
  H  1420  1  0.30156100  0.88510600  0.59764600  1
  H  1421  1  0.33987700  0.84431800  0.60886500  1
  H  1423  1  0.20392100  0.79141500  0.63556900  1
  H  1424  1  0.28263900  0.78919400  0.63183100  1
  H  1431  1  0.25991300  0.65567400  0.96689900  1
  H  1432  1  0.25250000  0.64414100  0.91231900  1
  H  1439  1  0.34388200  0.58513200  0.01230500  1
  H  1440  1  0.35208600  0.57333100  0.06615000  1
  H  1441  1  0.17716900  0.61544800  0.08035900  1
  H  1442  1  0.22805800  0.52848100  0.93041600  1
  H  1446  1  0.13052300  0.61117600  0.00270200  1
  H  1447  1  0.15825500  0.65719900  0.00829200  1
  H  1448  1  0.08460700  0.61500300  0.04991500  1
  H  1450  1  0.21895300  0.53638700  0.01564000  1
  H  1451  1  0.18621100  0.51311300  0.98363900  1
  H  1452  1  0.27088000  0.48274300  0.00260000  1
  H  1459  1  0.74952300  0.26687400  0.02957600  1
  H  1460  1  0.74700400  0.27696800  0.08417700  1
  H  1467  1  0.82822400  0.34464500  0.98415700  1
  H  1468  1  0.83485800  0.35356800  0.92986000  1
  H  1469  1  0.67023400  0.29698900  0.91747500  1
  H  1470  1  0.72347000  0.39328000  0.06890800  1
  H  1474  1  0.62155400  0.30350000  0.99497300  1
  H  1475  1  0.65688300  0.25931400  0.99082000  1
  H  1476  1  0.57709800  0.29454600  0.94781000  1
  H  1478  1  0.70236000  0.38656000  0.98401900  1
  H  1479  1  0.67430000  0.40969300  0.01730300  1
  H  1480  1  0.75644600  0.44001600  0.99545600  1
  H  1487  1  0.75612200  0.16918500  0.46535900  1
  H  1488  1  0.75108800  0.15215200  0.41166300  1
  H  1495  1  0.83977400  0.10595700  0.51253900  1
  H  1496  1  0.85052000  0.09166220  0.56569100  1
  H  1497  1  0.67335000  0.12794700  0.58294900  1
  H  1498  1  0.72031200  0.03932920  0.43760200  1
  H  1502  1  0.62412800  0.12662200  0.50609000  1
  H  1503  1  0.65032900  0.17296400  0.51175800  1
  H  1504  1  0.58009400  0.12914600  0.55379400  1
  H  1506  1  0.70968700  0.05533820  0.52182300  1
  H  1507  1  0.67673800  0.02948620  0.49131500  1
  H  1508  1  0.76076000  0.00039119  0.51236500  1
  H  1515  1  0.25354400  0.75432500  0.53005000  1
  H  1516  1  0.25017100  0.76934800  0.58400400  1
  H  1523  1  0.33225400  0.82662500  0.48327100  1
  H  1524  1  0.33997600  0.83916600  0.42964800  1
  H  1525  1  0.17273500  0.78695700  0.41397300  1
  H  1526  1  0.21912500  0.88312800  0.56118800  1
  H  1530  1  0.12287600  0.78937200  0.49096300  1
  H  1531  1  0.15743600  0.74500100  0.48656400  1
  H  1532  1  0.07971200  0.78170400  0.44338500  1
  H  1534  1  0.19978300  0.86868100  0.47706100  1
  H  1535  1  0.16978800  0.89398900  0.50872500  1
  H  1536  1  0.25101100  0.92393500  0.48561900  1
  H  1543  1  0.01488900  0.40285600  0.18926000  1
  H  1544  1  0.92516800  0.36772700  0.18987300  1
  H  1551  1  0.00851500  0.50435800  0.18967200  1
  H  1552  1  0.09419200  0.54294500  0.18892600  1
  H  1553  1  0.17694500  0.47030500  0.12393800  1
  H  1554  1  0.84679200  0.44418300  0.12622800  1
  H  1558  1  0.04794900  0.42001500  0.10306300  1
  H  1559  1  0.08399300  0.39484400  0.13338000  1
  H  1560  1  0.13927100  0.43061700  0.08119600  1
  H  1562  1  0.98218200  0.50173500  0.11495000  1
  H  1563  1  0.92435400  0.48024000  0.09322700  1
  H  1564  1  0.89717400  0.53841200  0.11300300  1
  H  1571  1  0.49493400  0.41226800  0.79602800  1
  H  1572  1  0.58143000  0.37499200  0.79968600  1
  H  1579  1  0.49918600  0.51635400  0.83069800  1
  H  1580  1  0.41278700  0.55401000  0.83257500  1
  H  1581  1  0.30444100  0.45699800  0.83572200  1
  H  1582  1  0.63512600  0.43509700  0.88016200  1
  H  1586  1  0.42121500  0.39568000  0.86007600  1
  H  1587  1  0.40062700  0.39068800  0.82031000  1
  H  1588  1  0.32222700  0.40169600  0.87226100  1
  H  1590  1  0.49272200  0.48475800  0.89105800  1
  H  1591  1  0.54849200  0.46036300  0.91181900  1
  H  1592  1  0.57102200  0.52346200  0.90549200  1
  H  1599  1  0.99466400  0.50594100  0.78619700  1
  H  1600  1  0.08188900  0.54317800  0.79153500  1
  H  1607  1  0.99683700  0.40023000  0.81767800  1
  H  1608  1  0.91175000  0.36251000  0.82502100  1
  H  1609  1  0.80434200  0.45934200  0.83405400  1
  H  1610  1  0.13311900  0.47921600  0.87031500  1
  H  1614  1  0.92333200  0.52076300  0.85166200  1
  H  1615  1  0.90005000  0.52562000  0.81228700  1
  H  1616  1  0.82533600  0.51651600  0.86585700  1
  H  1618  1  0.99042800  0.43032800  0.87978400  1
  H  1619  1  0.04783300  0.45278500  0.90072700  1
  H  1620  1  0.06723000  0.38961100  0.89242700  1
  H  1627  1  0.48962700  0.50453600  0.21518100  1
  H  1628  1  0.40284900  0.54127200  0.20731100  1
  H  1635  1  0.49429600  0.39958300  0.18275200  1
  H  1636  1  0.58100300  0.36289300  0.17720200  1
  H  1637  1  0.68691200  0.46080200  0.17293400  1
  H  1638  1  0.36223800  0.47868300  0.12615500  1
  H  1642  1  0.56840400  0.52152400  0.15269200  1
  H  1643  1  0.58681000  0.52572500  0.19281400  1
  H  1644  1  0.66799800  0.51861700  0.14164700  1
  H  1646  1  0.50657600  0.43028000  0.12131600  1
  H  1647  1  0.45184200  0.45287500  0.09859000  1
  H  1648  1  0.43200900  0.38952100  0.10555900  1
  H  1655  1  0.50279400  0.91727700  0.68683600  1
  H  1656  1  0.41497100  0.88065100  0.68890900  1
  H  1663  1  0.49252800  0.02014420  0.64816300  1
  H  1664  1  0.57942800  0.05749920  0.64644100  1
  H  1665  1  0.68681800  0.95989300  0.64448100  1
  H  1666  1  0.34762400  0.93752000  0.60967900  1
  H  1670  1  0.56277600  0.89286100  0.63592800  1
  H  1671  1  0.62837400  0.89759100  0.65849000  1
  H  1672  1  0.61698000  0.90929400  0.59231800  1
  H  1674  1  0.48806200  0.98557800  0.59005500  1
  H  1675  1  0.42826200  0.96072900  0.57303800  1
  H  1676  1  0.40804700  0.02426920  0.57840400  1
  H  1683  1  0.99711600  0.91706000  0.30519600  1
  H  1684  1  0.08403000  0.88000700  0.30479500  1
  H  1691  1  0.00224700  0.01656220  0.34765200  1
  H  1692  1  0.91513200  0.05394220  0.34860900  1
  H  1693  1  0.80764400  0.95655000  0.34470900  1
  H  1694  1  0.14018600  0.92982700  0.38955700  1
  H  1698  1  0.92482600  0.89324400  0.36768000  1
  H  1699  1  0.90273600  0.89206500  0.32793000  1
  H  1700  1  0.82624400  0.89920300  0.38120600  1
  H  1702  1  0.99840800  0.97872900  0.40527500  1
  H  1703  1  0.05444900  0.95196400  0.42373500  1
  H  1704  1  0.07752700  0.01542320  0.42195300  1
  H  1711  1  0.50314400  0.00010419  0.28972500  1
  H  1712  1  0.59065200  0.03714320  0.29439900  1
  H  1719  1  0.50155200  0.89881200  0.32771900  1
  H  1720  1  0.41538800  0.86138200  0.33372700  1
  H  1721  1  0.30717100  0.95852900  0.33522300  1
  H  1722  1  0.63197200  0.98307700  0.37965600  1
  H  1726  1  0.42413800  0.02165020  0.35298300  1
  H  1727  1  0.40626600  0.02310720  0.31266500  1
  H  1728  1  0.32440300  0.01864220  0.36374500  1
  H  1730  1  0.48828600  0.93474800  0.38817800  1
  H  1731  1  0.54312400  0.95950800  0.40924000  1
  H  1732  1  0.56359000  0.89577900  0.40598700  1
  H  1739  1  0.98535800  0.00034019  0.70893700  1
  H  1740  1  0.89854600  0.03735120  0.70319800  1
  H  1747  1  0.99133600  0.90150800  0.66930600  1
  H  1748  1  0.07814200  0.86423500  0.66514400  1
  H  1749  1  0.18611500  0.96148300  0.66674300  1
  H  1750  1  0.86717800  0.98917700  0.61438100  1
  H  1754  1  0.07088200  0.02486020  0.64736500  1
  H  1755  1  0.08404400  0.02547720  0.68818500  1
  H  1756  1  0.17167200  0.02250820  0.63970600  1
  H  1758  1  0.01062900  0.93925600  0.60934100  1
  H  1759  1  0.95990800  0.96598000  0.58709800  1
  H  1760  1  0.93651200  0.90250700  0.58744500  1
  H  1767  1  0.23566300  0.65147800  0.27064500  1
  H  1768  1  0.24028300  0.60059300  0.23510700  1
  H  1775  1  0.15574000  0.73924600  0.24840600  1
  H  1776  1  0.15162900  0.79118700  0.28251800  1
  H  1777  1  0.32967100  0.76977000  0.31140100  1
  H  1778  1  0.25963500  0.67715000  0.16009700  1
  H  1782  1  0.36723200  0.70870700  0.24938200  1
  H  1783  1  0.34598600  0.68247500  0.28272900  1
  H  1784  1  0.41908600  0.74815100  0.28128700  1
  H  1786  1  0.26728500  0.76195000  0.20830900  1
  H  1787  1  0.30204000  0.74054400  0.17587700  1
  H  1788  1  0.21691900  0.77439100  0.16242900  1
  H  1795  1  0.25116500  0.65148800  0.72208800  1
  H  1796  1  0.24505200  0.60018400  0.75719300  1
  H  1803  1  0.33920300  0.73864700  0.74486900  1
  H  1804  1  0.34363400  0.79174700  0.71184700  1
  H  1805  1  0.16508500  0.77215100  0.68323600  1
  H  1806  1  0.24028300  0.67581600  0.83337200  1
  H  1810  1  0.12732400  0.70977000  0.74439500  1
  H  1811  1  0.14656800  0.68461000  0.71015100  1
  H  1812  1  0.07591900  0.75117500  0.71405400  1
  H  1814  1  0.23337300  0.76159000  0.78632600  1
  H  1815  1  0.20106000  0.74049800  0.81954700  1
  H  1816  1  0.28967400  0.77195400  0.83068700  1
  H  1823  1  0.72162000  0.26335700  0.72659300  1
  H  1824  1  0.72110800  0.31473300  0.76165100  1
  H  1831  1  0.65759400  0.17025400  0.75028600  1
  H  1832  1  0.66078200  0.11874600  0.71554100  1
  H  1833  1  0.83171000  0.15331700  0.68401500  1
  H  1834  1  0.75488400  0.24053600  0.83690800  1
  H  1838  1  0.86184700  0.21572100  0.74636500  1
  H  1839  1  0.83478600  0.24039000  0.71333100  1
  H  1840  1  0.91861800  0.17990800  0.71374000  1
  H  1842  1  0.77231000  0.15590900  0.78914000  1
  H  1843  1  0.80571400  0.17967800  0.82080900  1
  H  1844  1  0.72688000  0.14121700  0.83594700  1
  H  1851  1  0.77488800  0.26287000  0.27310500  1
  H  1852  1  0.77696600  0.31507100  0.23882200  1
  H  1859  1  0.83454400  0.16956200  0.24670400  1
  H  1860  1  0.83172000  0.11704600  0.28017800  1
  H  1861  1  0.66390000  0.15232100  0.31536900  1
  H  1862  1  0.73862400  0.24331700  0.16259800  1
  H  1866  1  0.63222000  0.21710500  0.25486700  1
  H  1867  1  0.66198000  0.24057300  0.28787700  1
  H  1868  1  0.57630700  0.18109900  0.28774300  1
  H  1870  1  0.71821200  0.15786700  0.20910900  1
  H  1871  1  0.68582000  0.18284600  0.17781000  1
  H  1872  1  0.76301800  0.14344600  0.16206400  1
  O  197  1  0.10091200  0.16065100  0.04211000  1
  O  201  1  0.27809600  0.02645200  0.98916900  1
  O  225  1  0.59703400  0.79373900  0.95650100  1
  O  229  1  0.76525800  0.93946200  0.00848100  1
  O  253  1  0.59546400  0.67512500  0.54619100  1
  O  257  1  0.76844400  0.54276300  0.49759100  1
  O  281  1  0.09926600  0.28059100  0.45175000  1
  O  285  1  0.26054000  0.42471700  0.49997100  1
  O  309  1  0.13916400  0.93354400  0.09823400  1
  O  313  1  0.89643000  0.03894900  0.12795100  1
  O  337  1  0.33088600  0.91377700  0.85105400  1
  O  341  1  0.57830000  0.02882400  0.88720400  1
  O  365  1  0.83248300  0.04687500  0.84424600  1
  O  369  1  0.07482200  0.92815000  0.87457100  1
  O  393  1  0.65806600  0.04837900  0.16311900  1
  O  397  1  0.42194200  0.92777000  0.12326900  1
  O  421  1  0.64016800  0.42320000  0.61092200  1
  O  425  1  0.40396000  0.53053900  0.59748900  1
  O  449  1  0.83412700  0.41276900  0.35949500  1
  O  453  1  0.08412000  0.52278100  0.40247700  1
  O  477  1  0.33449000  0.54705900  0.34197200  1
  O  481  1  0.57316200  0.43250600  0.38728300  1
  O  505  1  0.15908600  0.55027300  0.66125800  1
  O  509  1  0.92497900  0.43852200  0.60623600  1
  O  533  1  0.40566700  0.24618900  0.29117400  1
  O  537  1  0.21001900  0.27105200  0.17173300  1
  O  561  1  0.08809600  0.24940300  0.70344400  1
  O  565  1  0.29388300  0.26862800  0.82093300  1
  O  589  1  0.90095000  0.72419400  0.70412000  1
  O  593  1  0.71572000  0.68719700  0.82659400  1
  O  617  1  0.59526600  0.72488600  0.29749700  1
  O  621  1  0.77519400  0.68903400  0.17177400  1
  O  1445  1  0.10091200  0.63901200  0.04211000  1
  O  1449  1  0.27809600  0.50481300  0.98916900  1
  O  1473  1  0.59703400  0.27210000  0.95650100  1
  O  1477  1  0.76525800  0.41782300  0.00848100  1
  O  1501  1  0.59546400  0.15348600  0.54619100  1
  O  1505  1  0.76844400  0.02112420  0.49759100  1
  O  1529  1  0.09926600  0.75895200  0.45175000  1
  O  1533  1  0.26054000  0.90307800  0.49997100  1
  O  1557  1  0.13916400  0.41190500  0.09823400  1
  O  1561  1  0.89643000  0.51731000  0.12795100  1
  O  1585  1  0.33088600  0.39213800  0.85105400  1
  O  1589  1  0.57830000  0.50718500  0.88720400  1
  O  1613  1  0.83248300  0.52523600  0.84424600  1
  O  1617  1  0.07482200  0.40651100  0.87457100  1
  O  1641  1  0.65806600  0.52674000  0.16311900  1
  O  1645  1  0.42194200  0.40613100  0.12326900  1
  O  1669  1  0.64016800  0.90156100  0.61092200  1
  O  1673  1  0.40396000  0.00890019  0.59748900  1
  O  1697  1  0.83412700  0.89113000  0.35949500  1
  O  1701  1  0.08412000  0.00114219  0.40247700  1
  O  1725  1  0.33449000  0.02542020  0.34197200  1
  O  1729  1  0.57316200  0.91086700  0.38728300  1
  O  1753  1  0.15908600  0.02863420  0.66125800  1
  O  1757  1  0.92497900  0.91688300  0.60623600  1
  O  1781  1  0.40566700  0.72455000  0.29117400  1
  O  1785  1  0.21001900  0.74941300  0.17173300  1
  O  1809  1  0.08809600  0.72776400  0.70344400  1
  O  1813  1  0.29388300  0.74698900  0.82093300  1
  O  1837  1  0.90095000  0.20255500  0.70412000  1
  O  1841  1  0.71572000  0.16555800  0.82659400  1
  O  1865  1  0.59526600  0.20324700  0.29749700  1
  O  1869  1  0.77519400  0.16739500  0.17177400  1
