# generated using pymatgen
data_H24C47(N4O3)2
_symmetry_space_group_name_H-M   'P 1'
_cell_length_a   32.37990000
_cell_length_b   39.70700000
_cell_length_c   61.09540000
_cell_angle_alpha   90.00000000
_cell_angle_beta   90.00000000
_cell_angle_gamma   90.00200000
_symmetry_Int_Tables_number   1
_chemical_formula_structural   H24C47(N4O3)2
_chemical_formula_sum   'H384 C752 N128 O96'
_cell_volume   78550.88660840
_cell_formula_units_Z   16
loop_
 _symmetry_equiv_pos_site_id
 _symmetry_equiv_pos_as_xyz
  1  'x, y, z'
loop_
 _atom_site_type_symbol
 _atom_site_label
 _atom_site_symmetry_multiplicity
 _atom_site_fract_x
 _atom_site_fract_y
 _atom_site_fract_z
 _atom_site_occupancy
  H  25  1  0.25970600  0.24060900  0.17689400  1
  H  26  1  0.25616000  0.22341200  0.13955400  1
  H  27  1  0.25350000  0.19733100  0.10382400  1
  H  28  1  0.25394700  0.16250500  0.07175200  1
  H  29  1  0.25510400  0.07541600  0.11144000  1
  H  30  1  0.25807300  0.13890700  0.19727500  1
  H  31  1  0.34558400  0.11689300  0.15046200  1
  H  32  1  0.36307200  0.02241900  0.18117600  1
  H  33  1  0.29076200  0.01480900  0.18361300  1
  H  34  1  0.16287600  0.11177100  0.14588200  1
  H  35  1  0.22035700  0.01152100  0.17978300  1
  H  36  1  0.14896800  0.01428200  0.17269700  1
  H  66  1  0.24995900  0.23771300  0.82999000  1
  H  67  1  0.25330600  0.22309700  0.86733700  1
  H  68  1  0.25301800  0.20193700  0.90209400  1
  H  69  1  0.24799400  0.17387100  0.93568700  1
  H  70  1  0.25198100  0.07976000  0.90334400  1
  H  71  1  0.25185200  0.13475700  0.81234700  1
  H  72  1  0.16340500  0.11570000  0.86008100  1
  H  73  1  0.14643400  0.02206800  0.82818300  1
  H  74  1  0.21874600  0.01415800  0.82649900  1
  H  75  1  0.34654400  0.11044800  0.86492100  1
  H  76  1  0.28893600  0.01091300  0.83017500  1
  H  77  1  0.36049300  0.01392000  0.83659900  1
  H  107  1  0.76088400  0.80164600  0.83241400  1
  H  108  1  0.75679200  0.81895300  0.86972600  1
  H  109  1  0.75454800  0.84516000  0.90544400  1
  H  110  1  0.75343800  0.88007600  0.93746000  1
  H  111  1  0.75396700  0.96706300  0.89767800  1
  H  112  1  0.76164500  0.90335100  0.81195400  1
  H  113  1  0.84697100  0.93104700  0.86367300  1
  H  114  1  0.86058600  0.02855100  0.83682000  1
  H  115  1  0.78918600  0.03102900  0.82952200  1
  H  116  1  0.66438500  0.92510300  0.85854500  1
  H  117  1  0.71880000  0.02746600  0.82564100  1
  H  118  1  0.64656300  0.01971700  0.82809800  1
  H  148  1  0.74842900  0.80462800  0.17938000  1
  H  149  1  0.75237600  0.81927300  0.14207100  1
  H  150  1  0.75298200  0.84040000  0.10737300  1
  H  151  1  0.74967900  0.86824700  0.07377900  1
  H  152  1  0.75296900  0.96254500  0.10594000  1
  H  153  1  0.74855400  0.90762200  0.19705200  1
  H  154  1  0.66209700  0.93231300  0.14421300  1
  H  155  1  0.64844800  0.02892900  0.17247300  1
  H  156  1  0.72005700  0.03171400  0.17902600  1
  H  157  1  0.84507100  0.92630400  0.14939700  1
  H  158  1  0.79025800  0.02814000  0.18280400  1
  H  159  1  0.86250600  0.01999000  0.18113100  1
  H  189  1  0.74853400  0.74138700  0.67721800  1
  H  190  1  0.75296500  0.72396700  0.63998200  1
  H  191  1  0.75496200  0.69772500  0.60423200  1
  H  192  1  0.75583500  0.66283200  0.57219700  1
  H  193  1  0.75508000  0.57586000  0.61196100  1
  H  194  1  0.74713700  0.63980300  0.69778900  1
  H  195  1  0.84491300  0.61769400  0.65099800  1
  H  196  1  0.86268500  0.52280900  0.68110200  1
  H  197  1  0.79046100  0.51513300  0.68361200  1
  H  198  1  0.66232700  0.61184600  0.64593000  1
  H  199  1  0.72015800  0.51161500  0.67970500  1
  H  200  1  0.64878000  0.51412000  0.67242300  1
  H  230  1  0.76080100  0.73858700  0.32986400  1
  H  231  1  0.75641200  0.72364500  0.36705400  1
  H  232  1  0.75581500  0.70240200  0.40164500  1
  H  233  1  0.75911200  0.67463900  0.43516000  1
  H  234  1  0.75615800  0.58030800  0.40302700  1
  H  235  1  0.76118200  0.63577600  0.31185300  1
  H  236  1  0.66410300  0.61647300  0.35961900  1
  H  237  1  0.64681000  0.52246700  0.32825700  1
  H  238  1  0.71905800  0.51449300  0.32648100  1
  H  239  1  0.84717300  0.61061700  0.36475600  1
  H  240  1  0.78917300  0.51100000  0.33026700  1
  H  241  1  0.86073000  0.51376500  0.33684700  1
  H  271  1  0.24961500  0.30127400  0.33199900  1
  H  272  1  0.25353900  0.31857600  0.36925500  1
  H  273  1  0.25594800  0.34466200  0.40501600  1
  H  274  1  0.25539200  0.37942600  0.43712300  1
  H  275  1  0.25413500  0.46653400  0.39749000  1
  H  276  1  0.25064800  0.40286100  0.31150400  1
  H  277  1  0.34643400  0.43027100  0.36305800  1
  H  278  1  0.36025000  0.52801200  0.33664200  1
  H  279  1  0.28890000  0.53075500  0.32952500  1
  H  280  1  0.16367600  0.42522900  0.35851800  1
  H  281  1  0.21856900  0.52749100  0.32565800  1
  H  282  1  0.14627500  0.52002900  0.32821800  1
  H  312  1  0.25929900  0.30398100  0.67935500  1
  H  313  1  0.25557800  0.31886300  0.64212800  1
  H  314  1  0.25594700  0.34013900  0.60743000  1
  H  315  1  0.26104600  0.36820900  0.57388400  1
  H  316  1  0.25717700  0.46226300  0.60626800  1
  H  317  1  0.25788500  0.40673900  0.69732100  1
  H  318  1  0.16264300  0.43159900  0.64465200  1
  H  319  1  0.14891300  0.52840000  0.67260000  1
  H  320  1  0.22044000  0.53130400  0.67907900  1
  H  321  1  0.34581300  0.42624900  0.64945800  1
  H  322  1  0.29055200  0.52798200  0.68282500  1
  H  323  1  0.36284300  0.52012900  0.68103300  1
  H  339  1  0.25322800  0.14457800  0.03457900  1
  H  340  1  0.25483600  0.15905200  0.99703000  1
  H  342  1  0.25640500  0.05281900  0.96078400  1
  H  346  1  0.25399800  0.94508200  0.99168500  1
  H  348  1  0.25483900  0.05661700  0.05574000  1
  H  350  1  0.27816500  0.14204100  0.96151500  1
  H  361  1  0.75309300  0.89806500  0.97437900  1
  H  362  1  0.75462700  0.88335500  0.01182300  1
  H  364  1  0.75629600  0.98942700  0.04839300  1
  H  368  1  0.75426900  0.09731700  0.01767500  1
  H  370  1  0.75477400  0.98605900  0.95338100  1
  H  372  1  0.77624000  0.89917600  0.04731600  1
  H  383  1  0.75601000  0.64479200  0.53500700  1
  H  384  1  0.75488300  0.65944000  0.49758100  1
  H  386  1  0.75336500  0.55336000  0.46102500  1
  H  390  1  0.75493900  0.44549500  0.49179800  1
  H  392  1  0.75437900  0.55689400  0.55609700  1
  H  394  1  0.73529600  0.64432900  0.46203500  1
  H  405  1  0.25597700  0.39735500  0.47467500  1
  H  406  1  0.25463200  0.38301000  0.51224100  1
  H  408  1  0.25317000  0.48927300  0.54838000  1
  H  412  1  0.25522700  0.59695200  0.51740000  1
  H  414  1  0.25428700  0.48519400  0.45338700  1
  H  416  1  0.23217700  0.39968700  0.54778400  1
  H  427  1  0.98203500  0.97167700  0.17807600  1
  H  428  1  0.04651900  0.99771200  0.18487500  1
  H  430  1  0.04613900  0.09285200  0.13768300  1
  H  434  1  0.94735600  0.12297900  0.08523900  1
  H  436  1  0.90436700  0.00430600  0.13929500  1
  H  438  1  0.08678300  0.04870500  0.18361300  1
  H  449  1  0.52733800  0.97137400  0.83105200  1
  H  450  1  0.46271000  0.99730400  0.82447100  1
  H  452  1  0.46334800  0.09241100  0.87163600  1
  H  456  1  0.56214200  0.12282700  0.92395000  1
  H  458  1  0.60565700  0.00449200  0.86931900  1
  H  460  1  0.42229900  0.04826200  0.82600100  1
  H  471  1  0.02703900  0.07105700  0.83146600  1
  H  472  1  0.96278900  0.04474600  0.82447400  1
  H  474  1  0.96340800  0.94944400  0.87150700  1
  H  478  1  0.06195400  0.91950200  0.92410500  1
  H  480  1  0.10411100  0.03955400  0.87098500  1
  H  482  1  0.92271500  0.99350600  0.82572600  1
  H  493  1  0.48205000  0.07117000  0.17798200  1
  H  494  1  0.54651400  0.04506700  0.18473900  1
  H  496  1  0.54577200  0.94981100  0.13772600  1
  H  500  1  0.44728300  0.91972100  0.08520300  1
  H  502  1  0.40404000  0.03840300  0.13949800  1
  H  504  1  0.58665100  0.99370300  0.18332500  1
  H  515  1  0.48224900  0.47146600  0.67788000  1
  H  516  1  0.54655200  0.49771800  0.68481100  1
  H  518  1  0.54594200  0.59297500  0.63773300  1
  H  522  1  0.44730800  0.62294500  0.58518800  1
  H  524  1  0.40480100  0.50343200  0.63873700  1
  H  526  1  0.58645000  0.54897800  0.68362200  1
  H  537  1  0.02727300  0.47126900  0.33127800  1
  H  538  1  0.96282300  0.49738000  0.32451900  1
  H  540  1  0.96351600  0.59258300  0.37158100  1
  H  544  1  0.06215900  0.62285200  0.42400600  1
  H  546  1  0.10532100  0.50397600  0.36977200  1
  H  548  1  0.92260600  0.54868400  0.32591600  1
  H  559  1  0.52724700  0.57086600  0.33122100  1
  H  560  1  0.46280800  0.54478500  0.32440900  1
  H  562  1  0.46323900  0.44962600  0.37155300  1
  H  566  1  0.56194800  0.41957000  0.42404600  1
  H  568  1  0.60492100  0.53838800  0.37008700  1
  H  570  1  0.42257700  0.49379900  0.32561200  1
  H  581  1  0.98186600  0.57098400  0.67826000  1
  H  582  1  0.04653000  0.54511000  0.68481700  1
  H  584  1  0.04595100  0.45004400  0.63766100  1
  H  588  1  0.94719600  0.41971700  0.58531200  1
  H  590  1  0.90330400  0.53735800  0.64042900  1
  H  592  1  0.08696800  0.49405800  0.68335700  1
  H  603  1  0.28076200  0.21383800  0.25782600  1
  H  604  1  0.29410200  0.25501500  0.28496600  1
  H  606  1  0.22508000  0.35271300  0.25818800  1
  H  610  1  0.14218100  0.36267400  0.19558600  1
  H  612  1  0.20687700  0.22253800  0.21446900  1
  H  614  1  0.29746800  0.31259400  0.29540300  1
  H  625  1  0.22847400  0.21429400  0.75085600  1
  H  626  1  0.21494600  0.25629500  0.72434900  1
  H  628  1  0.28414800  0.35311900  0.75206900  1
  H  632  1  0.36760200  0.36152500  0.81445700  1
  H  634  1  0.30157100  0.22306800  0.79536400  1
  H  636  1  0.21273300  0.31298500  0.71372800  1
  H  647  1  0.78147200  0.82831400  0.75145100  1
  H  648  1  0.79376200  0.78716300  0.72414900  1
  H  650  1  0.72435300  0.68986300  0.75114800  1
  H  654  1  0.64209500  0.68010600  0.81392500  1
  H  656  1  0.70855300  0.82001300  0.79534600  1
  H  658  1  0.79605700  0.72950300  0.71356400  1
  H  669  1  0.72771000  0.82774500  0.25851500  1
  H  670  1  0.71518200  0.78568900  0.28514400  1
  H  672  1  0.78475500  0.68932400  0.25711900  1
  H  676  1  0.86773200  0.68128500  0.19465600  1
  H  678  1  0.79980700  0.81946400  0.21348100  1
  H  680  1  0.71393800  0.72880800  0.29580100  1
  H  705  1  0.25970600  0.66874500  0.17689400  1
  H  706  1  0.25616000  0.65154800  0.13955400  1
  H  707  1  0.25350000  0.62546700  0.10382400  1
  H  708  1  0.25394700  0.59064100  0.07175200  1
  H  709  1  0.25510400  0.50355200  0.11144000  1
  H  710  1  0.25807300  0.56704300  0.19727500  1
  H  711  1  0.34558400  0.54502900  0.15046200  1
  H  712  1  0.36307200  0.45055500  0.18117600  1
  H  713  1  0.29076200  0.44294500  0.18361300  1
  H  714  1  0.16287600  0.53990700  0.14588200  1
  H  715  1  0.22035700  0.43965700  0.17978300  1
  H  716  1  0.14896800  0.44241800  0.17269700  1
  H  746  1  0.24995900  0.66584900  0.82999000  1
  H  747  1  0.25330600  0.65123300  0.86733700  1
  H  748  1  0.25301800  0.63007300  0.90209400  1
  H  749  1  0.24799400  0.60200700  0.93568700  1
  H  750  1  0.25198100  0.50789600  0.90334400  1
  H  751  1  0.25185200  0.56289300  0.81234700  1
  H  752  1  0.16340500  0.54383600  0.86008100  1
  H  753  1  0.14643400  0.45020400  0.82818300  1
  H  754  1  0.21874600  0.44229400  0.82649900  1
  H  755  1  0.34654400  0.53858400  0.86492100  1
  H  756  1  0.28893600  0.43904900  0.83017500  1
  H  757  1  0.36049300  0.44205600  0.83659900  1
  H  787  1  0.76088400  0.22978200  0.83241400  1
  H  788  1  0.75679200  0.24708900  0.86972600  1
  H  789  1  0.75454800  0.27329600  0.90544400  1
  H  790  1  0.75343800  0.30821200  0.93746000  1
  H  791  1  0.75396700  0.39519900  0.89767800  1
  H  792  1  0.76164500  0.33148700  0.81195400  1
  H  793  1  0.84697100  0.35918300  0.86367300  1
  H  794  1  0.86058600  0.45668700  0.83682000  1
  H  795  1  0.78918600  0.45916500  0.82952200  1
  H  796  1  0.66438500  0.35323900  0.85854500  1
  H  797  1  0.71880000  0.45560200  0.82564100  1
  H  798  1  0.64656300  0.44785300  0.82809800  1
  H  828  1  0.74842900  0.23276400  0.17938000  1
  H  829  1  0.75237600  0.24740900  0.14207100  1
  H  830  1  0.75298200  0.26853600  0.10737300  1
  H  831  1  0.74967900  0.29638300  0.07377900  1
  H  832  1  0.75296900  0.39068100  0.10594000  1
  H  833  1  0.74855400  0.33575800  0.19705200  1
  H  834  1  0.66209700  0.36044900  0.14421300  1
  H  835  1  0.64844800  0.45706500  0.17247300  1
  H  836  1  0.72005700  0.45985000  0.17902600  1
  H  837  1  0.84507100  0.35444000  0.14939700  1
  H  838  1  0.79025800  0.45627600  0.18280400  1
  H  839  1  0.86250600  0.44812600  0.18113100  1
  H  869  1  0.74853400  0.16952300  0.67721800  1
  H  870  1  0.75296500  0.15210300  0.63998200  1
  H  871  1  0.75496200  0.12586100  0.60423200  1
  H  872  1  0.75583500  0.09096810  0.57219700  1
  H  873  1  0.75508000  0.00399610  0.61196100  1
  H  874  1  0.74713700  0.06793910  0.69778900  1
  H  875  1  0.84491300  0.04583010  0.65099800  1
  H  876  1  0.86268500  0.95094500  0.68110200  1
  H  877  1  0.79046100  0.94326900  0.68361200  1
  H  878  1  0.66232700  0.03998210  0.64593000  1
  H  879  1  0.72015800  0.93975100  0.67970500  1
  H  880  1  0.64878000  0.94225600  0.67242300  1
  H  910  1  0.76080100  0.16672300  0.32986400  1
  H  911  1  0.75641200  0.15178100  0.36705400  1
  H  912  1  0.75581500  0.13053800  0.40164500  1
  H  913  1  0.75911200  0.10277500  0.43516000  1
  H  914  1  0.75615800  0.00844410  0.40302700  1
  H  915  1  0.76118200  0.06391210  0.31185300  1
  H  916  1  0.66410300  0.04460910  0.35961900  1
  H  917  1  0.64681000  0.95060300  0.32825700  1
  H  918  1  0.71905800  0.94262900  0.32648100  1
  H  919  1  0.84717300  0.03875310  0.36475600  1
  H  920  1  0.78917300  0.93913600  0.33026700  1
  H  921  1  0.86073000  0.94190100  0.33684700  1
  H  951  1  0.24961500  0.72941000  0.33199900  1
  H  952  1  0.25353900  0.74671200  0.36925500  1
  H  953  1  0.25594800  0.77279800  0.40501600  1
  H  954  1  0.25539200  0.80756200  0.43712300  1
  H  955  1  0.25413500  0.89467000  0.39749000  1
  H  956  1  0.25064800  0.83099700  0.31150400  1
  H  957  1  0.34643400  0.85840700  0.36305800  1
  H  958  1  0.36025000  0.95614800  0.33664200  1
  H  959  1  0.28890000  0.95889100  0.32952500  1
  H  960  1  0.16367600  0.85336500  0.35851800  1
  H  961  1  0.21856900  0.95562700  0.32565800  1
  H  962  1  0.14627500  0.94816500  0.32821800  1
  H  992  1  0.25929900  0.73211700  0.67935500  1
  H  993  1  0.25557800  0.74699900  0.64212800  1
  H  994  1  0.25594700  0.76827500  0.60743000  1
  H  995  1  0.26104600  0.79634500  0.57388400  1
  H  996  1  0.25717700  0.89039900  0.60626800  1
  H  997  1  0.25788500  0.83487500  0.69732100  1
  H  998  1  0.16264300  0.85973500  0.64465200  1
  H  999  1  0.14891300  0.95653600  0.67260000  1
  H  1000  1  0.22044000  0.95944000  0.67907900  1
  H  1001  1  0.34581300  0.85438500  0.64945800  1
  H  1002  1  0.29055200  0.95611800  0.68282500  1
  H  1003  1  0.36284300  0.94826500  0.68103300  1
  H  1019  1  0.25322800  0.57271400  0.03457900  1
  H  1020  1  0.25483600  0.58718800  0.99703000  1
  H  1022  1  0.25640500  0.48095500  0.96078400  1
  H  1026  1  0.25399800  0.37321800  0.99168500  1
  H  1028  1  0.25483900  0.48475300  0.05574000  1
  H  1030  1  0.27816500  0.57017700  0.96151500  1
  H  1041  1  0.75309300  0.32620100  0.97437900  1
  H  1042  1  0.75462700  0.31149100  0.01182300  1
  H  1044  1  0.75629600  0.41756300  0.04839300  1
  H  1048  1  0.75426900  0.52545300  0.01767500  1
  H  1050  1  0.75477400  0.41419500  0.95338100  1
  H  1052  1  0.77624000  0.32731200  0.04731600  1
  H  1063  1  0.75601000  0.07292810  0.53500700  1
  H  1064  1  0.75488300  0.08757610  0.49758100  1
  H  1066  1  0.75336500  0.98149600  0.46102500  1
  H  1070  1  0.75493900  0.87363100  0.49179800  1
  H  1072  1  0.75437900  0.98503000  0.55609700  1
  H  1074  1  0.73529600  0.07246510  0.46203500  1
  H  1085  1  0.25597700  0.82549100  0.47467500  1
  H  1086  1  0.25463200  0.81114600  0.51224100  1
  H  1088  1  0.25317000  0.91740900  0.54838000  1
  H  1092  1  0.25522700  0.02508810  0.51740000  1
  H  1094  1  0.25428700  0.91333000  0.45338700  1
  H  1096  1  0.23217700  0.82782300  0.54778400  1
  H  1107  1  0.98203500  0.39981300  0.17807600  1
  H  1108  1  0.04651900  0.42584800  0.18487500  1
  H  1110  1  0.04613900  0.52098800  0.13768300  1
  H  1114  1  0.94735600  0.55111500  0.08523900  1
  H  1116  1  0.90436700  0.43244200  0.13929500  1
  H  1118  1  0.08678300  0.47684100  0.18361300  1
  H  1129  1  0.52733800  0.39951000  0.83105200  1
  H  1130  1  0.46271000  0.42544000  0.82447100  1
  H  1132  1  0.46334800  0.52054700  0.87163600  1
  H  1136  1  0.56214200  0.55096300  0.92395000  1
  H  1138  1  0.60565700  0.43262800  0.86931900  1
  H  1140  1  0.42229900  0.47639800  0.82600100  1
  H  1151  1  0.02703900  0.49919300  0.83146600  1
  H  1152  1  0.96278900  0.47288200  0.82447400  1
  H  1154  1  0.96340800  0.37758000  0.87150700  1
  H  1158  1  0.06195400  0.34763800  0.92410500  1
  H  1160  1  0.10411100  0.46769000  0.87098500  1
  H  1162  1  0.92271500  0.42164200  0.82572600  1
  H  1173  1  0.48205000  0.49930600  0.17798200  1
  H  1174  1  0.54651400  0.47320300  0.18473900  1
  H  1176  1  0.54577200  0.37794700  0.13772600  1
  H  1180  1  0.44728300  0.34785700  0.08520300  1
  H  1182  1  0.40404000  0.46653900  0.13949800  1
  H  1184  1  0.58665100  0.42183900  0.18332500  1
  H  1195  1  0.48224900  0.89960200  0.67788000  1
  H  1196  1  0.54655200  0.92585400  0.68481100  1
  H  1198  1  0.54594200  0.02111110  0.63773300  1
  H  1202  1  0.44730800  0.05108110  0.58518800  1
  H  1204  1  0.40480100  0.93156800  0.63873700  1
  H  1206  1  0.58645000  0.97711400  0.68362200  1
  H  1217  1  0.02727300  0.89940500  0.33127800  1
  H  1218  1  0.96282300  0.92551600  0.32451900  1
  H  1220  1  0.96351600  0.02071910  0.37158100  1
  H  1224  1  0.06215900  0.05098810  0.42400600  1
  H  1226  1  0.10532100  0.93211200  0.36977200  1
  H  1228  1  0.92260600  0.97682000  0.32591600  1
  H  1239  1  0.52724700  0.99900200  0.33122100  1
  H  1240  1  0.46280800  0.97292100  0.32440900  1
  H  1242  1  0.46323900  0.87776200  0.37155300  1
  H  1246  1  0.56194800  0.84770600  0.42404600  1
  H  1248  1  0.60492100  0.96652400  0.37008700  1
  H  1250  1  0.42257700  0.92193500  0.32561200  1
  H  1261  1  0.98186600  0.99912000  0.67826000  1
  H  1262  1  0.04653000  0.97324600  0.68481700  1
  H  1264  1  0.04595100  0.87818000  0.63766100  1
  H  1268  1  0.94719600  0.84785300  0.58531200  1
  H  1270  1  0.90330400  0.96549400  0.64042900  1
  H  1272  1  0.08696800  0.92219400  0.68335700  1
  H  1283  1  0.28076200  0.64197400  0.25782600  1
  H  1284  1  0.29410200  0.68315100  0.28496600  1
  H  1286  1  0.22508000  0.78084900  0.25818800  1
  H  1290  1  0.14218100  0.79081000  0.19558600  1
  H  1292  1  0.20687700  0.65067400  0.21446900  1
  H  1294  1  0.29746800  0.74073000  0.29540300  1
  H  1305  1  0.22847400  0.64243000  0.75085600  1
  H  1306  1  0.21494600  0.68443100  0.72434900  1
  H  1308  1  0.28414800  0.78125500  0.75206900  1
  H  1312  1  0.36760200  0.78966100  0.81445700  1
  H  1314  1  0.30157100  0.65120400  0.79536400  1
  H  1316  1  0.21273300  0.74112100  0.71372800  1
  H  1327  1  0.78147200  0.25645000  0.75145100  1
  H  1328  1  0.79376200  0.21529900  0.72414900  1
  H  1330  1  0.72435300  0.11799900  0.75114800  1
  H  1334  1  0.64209500  0.10824200  0.81392500  1
  H  1336  1  0.70855300  0.24814900  0.79534600  1
  H  1338  1  0.79605700  0.15763900  0.71356400  1
  H  1349  1  0.72771000  0.25588100  0.25851500  1
  H  1350  1  0.71518200  0.21382500  0.28514400  1
  H  1352  1  0.78475500  0.11746000  0.25711900  1
  H  1356  1  0.86773200  0.10942100  0.19465600  1
  H  1358  1  0.79980700  0.24760000  0.21348100  1
  H  1360  1  0.71393800  0.15694400  0.29580100  1
  C  1  1  0.21806600  0.08988000  0.15814400  1
  C  2  1  0.23342300  0.06057900  0.16782300  1
  C  3  1  0.27577200  0.06162700  0.16879200  1
  C  4  1  0.29039900  0.09133900  0.15933700  1
  C  5  1  0.33396500  0.09578700  0.15772400  1
  C  6  1  0.36124300  0.07029400  0.16557000  1
  C  7  1  0.34434500  0.04125800  0.17548400  1
  C  8  1  0.30189300  0.03651700  0.17693000  1
  C  9  1  0.20840700  0.03329200  0.17360100  1
  C  10  1  0.16630700  0.03520400  0.16937900  1
  C  11  1  0.14818900  0.06414400  0.15988900  1
  C  12  1  0.17473400  0.09143000  0.15391900  1
  C  13  1  0.25385700  0.14641000  0.16294200  1
  C  14  1  0.25376000  0.17123800  0.14666500  1
  C  15  1  0.25390200  0.15646400  0.12621100  1
  C  16  1  0.25457900  0.12151600  0.12873900  1
  C  17  1  0.25388900  0.17176400  0.10547400  1
  C  18  1  0.25414700  0.15131800  0.08678300  1
  C  19  1  0.25457900  0.11601200  0.08870400  1
  C  20  1  0.25490200  0.10100100  0.10980700  1
  C  21  1  0.25647700  0.15664500  0.18521800  1
  C  22  1  0.25780900  0.19149800  0.19066400  1
  C  23  1  0.25754700  0.21542800  0.17352500  1
  C  24  1  0.25539900  0.20562700  0.15160000  1
  C  37  1  0.25404800  0.11232300  0.15242500  1
  C  42  1  0.29102400  0.08838200  0.85326500  1
  C  43  1  0.27574200  0.05926700  0.84330200  1
  C  44  1  0.23345800  0.06032500  0.84228200  1
  C  45  1  0.21880100  0.08992500  0.85189700  1
  C  46  1  0.17519600  0.09460400  0.85289000  1
  C  47  1  0.14805200  0.06947500  0.84439500  1
  C  48  1  0.16506900  0.04060400  0.83436800  1
  C  49  1  0.20751700  0.03564300  0.83343400  1
  C  50  1  0.30082200  0.03242000  0.83677000  1
  C  51  1  0.34304500  0.03454000  0.84050600  1
  C  52  1  0.36116900  0.06326400  0.85026300  1
  C  53  1  0.33452700  0.09012800  0.85693100  1
  C  54  1  0.25562700  0.14420700  0.84655400  1
  C  55  1  0.25575700  0.17031300  0.86186100  1
  C  56  1  0.25519300  0.15753900  0.88279600  1
  C  57  1  0.25435000  0.12237600  0.88243700  1
  C  58  1  0.25357100  0.17626100  0.90215600  1
  C  59  1  0.25118600  0.15930800  0.92203100  1
  C  60  1  0.25197800  0.12369300  0.92338300  1
  C  61  1  0.25276600  0.10544300  0.90310400  1
  C  62  1  0.25338300  0.15324300  0.82391300  1
  C  63  1  0.25241600  0.18783100  0.81733100  1
  C  64  1  0.25220300  0.21270000  0.83388100  1
  C  65  1  0.25416000  0.20433900  0.85595300  1
  C  78  1  0.25511100  0.11112200  0.85877500  1
  C  83  1  0.71950600  0.95068000  0.84957400  1
  C  84  1  0.73398600  0.98056900  0.84028900  1
  C  85  1  0.77631500  0.98192700  0.84146700  1
  C  86  1  0.79178000  0.95281300  0.85133500  1
  C  87  1  0.83504100  0.95139100  0.85566600  1
  C  88  1  0.86143200  0.97873100  0.84968500  1
  C  89  1  0.84327500  0.00762000  0.84015900  1
  C  90  1  0.80119600  0.00937300  0.83584000  1
  C  91  1  0.70775500  0.00566100  0.83223200  1
  C  92  1  0.66531700  0.00085500  0.83372700  1
  C  93  1  0.64843800  0.97181000  0.84364900  1
  C  94  1  0.67590500  0.94621500  0.85124900  1
  C  95  1  0.75778700  0.89594900  0.84630500  1
  C  96  1  0.75643300  0.87115300  0.86258700  1
  C  97  1  0.75474800  0.88596400  0.88301000  1
  C  98  1  0.75450800  0.92090700  0.88044200  1
  C  99  1  0.75411400  0.87072200  0.90376200  1
  C  100  1  0.75348500  0.89123000  0.92242100  1
  C  101  1  0.75339100  0.92654900  0.92045300  1
  C  102  1  0.75374300  0.94148300  0.89934100  1
  C  103  1  0.76027000  0.88564900  0.82403900  1
  C  104  1  0.76073500  0.85076600  0.81861600  1
  C  105  1  0.75968700  0.82687400  0.83577000  1
  C  106  1  0.75740500  0.83674100  0.85768000  1
  C  119  1  0.75603400  0.93004200  0.85676500  1
  C  124  1  0.78978200  0.95221900  0.15760100  1
  C  125  1  0.77530500  0.98194700  0.16712500  1
  C  126  1  0.73303800  0.98325600  0.16599600  1
  C  127  1  0.71761700  0.95423900  0.15596700  1
  C  128  1  0.67418800  0.95262700  0.15218100  1
  C  129  1  0.64773500  0.97957400  0.15883000  1
  C  130  1  0.66587400  0.00828900  0.16858200  1
  C  131  1  0.70808600  0.01025500  0.17241100  1
  C  132  1  0.80137800  0.00656000  0.17594100  1
  C  133  1  0.84380500  0.00147200  0.17498400  1
  C  134  1  0.86075600  0.97256300  0.16495000  1
  C  135  1  0.83340100  0.94743900  0.15659500  1
  C  136  1  0.75185500  0.89820900  0.16282700  1
  C  137  1  0.75320900  0.87209700  0.14754800  1
  C  138  1  0.75453200  0.88484300  0.12662500  1
  C  139  1  0.75437900  0.92000600  0.12693000  1
  C  140  1  0.75400000  0.86606800  0.10728300  1
  C  141  1  0.75264100  0.88295700  0.08736700  1
  C  142  1  0.75347400  0.91858300  0.08593000  1
  C  143  1  0.75386100  0.93686400  0.10621400  1
  C  144  1  0.74981300  0.88915000  0.18547000  1
  C  145  1  0.74974600  0.85454600  0.19205500  1
  C  146  1  0.74992100  0.82967900  0.17549800  1
  C  147  1  0.75208700  0.83805800  0.15344200  1
  C  160  1  0.75329200  0.93126800  0.15059500  1
  C  165  1  0.71748400  0.59014000  0.65834900  1
  C  166  1  0.73297000  0.56089600  0.66804700  1
  C  167  1  0.77529600  0.56221500  0.66920100  1
  C  168  1  0.78977900  0.59221000  0.66005900  1
  C  169  1  0.83337700  0.59656200  0.65826500  1
  C  170  1  0.86081900  0.57086900  0.66573600  1
  C  171  1  0.84394600  0.54178600  0.67562000  1
  C  172  1  0.80151200  0.53700800  0.67712400  1
  C  173  1  0.70813000  0.53334400  0.67350700  1
  C  174  1  0.66604500  0.53512400  0.66921400  1
  C  175  1  0.64784000  0.56411900  0.65984300  1
  C  176  1  0.67425300  0.59148000  0.65391100  1
  C  177  1  0.75162100  0.64704400  0.66344700  1
  C  178  1  0.75316000  0.67179000  0.64713800  1
  C  179  1  0.75470700  0.65695400  0.62668200  1
  C  180  1  0.75478600  0.62201100  0.62922500  1
  C  181  1  0.75530400  0.67216000  0.60591400  1
  C  182  1  0.75579400  0.65166300  0.58723500  1
  C  183  1  0.75576200  0.61631600  0.58916200  1
  C  184  1  0.75541200  0.60144000  0.61029800  1
  C  185  1  0.74893800  0.65749300  0.68571200  1
  C  186  1  0.74878500  0.69240600  0.69120700  1
  C  187  1  0.74998100  0.71615300  0.67394900  1
  C  188  1  0.75235600  0.70620700  0.65204700  1
  C  201  1  0.75325100  0.61291900  0.65293100  1
  C  206  1  0.79164700  0.58871700  0.35299000  1
  C  207  1  0.77622600  0.55961600  0.34306200  1
  C  208  1  0.73395900  0.56087800  0.34194500  1
  C  209  1  0.71945400  0.59066600  0.35137500  1
  C  210  1  0.67581300  0.59531300  0.35247000  1
  C  211  1  0.64849200  0.57004500  0.34425800  1
  C  212  1  0.66548000  0.54109300  0.33429800  1
  C  213  1  0.70791700  0.53611100  0.33328000  1
  C  214  1  0.80116000  0.53254500  0.33675200  1
  C  215  1  0.84335900  0.53449200  0.34061600  1
  C  216  1  0.86155700  0.56327800  0.35025400  1
  C  217  1  0.83507800  0.59027600  0.35682200  1
  C  218  1  0.75727600  0.64484500  0.34609800  1
  C  219  1  0.75572700  0.67085800  0.36143900  1
  C  220  1  0.75445700  0.65801400  0.38235400  1
  C  221  1  0.75474000  0.62285900  0.38203700  1
  C  222  1  0.75481900  0.67673600  0.40171400  1
  C  223  1  0.75618000  0.65983500  0.42162700  1
  C  224  1  0.75551200  0.62419700  0.42310900  1
  C  225  1  0.75524500  0.60598800  0.40277500  1
  C  226  1  0.75953100  0.65416900  0.32347800  1
  C  227  1  0.75943100  0.68884300  0.31692500  1
  C  228  1  0.75903600  0.71350800  0.33360900  1
  C  229  1  0.75672300  0.70493800  0.35563100  1
  C  242  1  0.75592800  0.61170800  0.35833000  1
  C  247  1  0.21888900  0.45070600  0.34960100  1
  C  248  1  0.23353100  0.48050200  0.34025900  1
  C  249  1  0.27588400  0.48152200  0.34120200  1
  C  250  1  0.29124900  0.45212900  0.35076300  1
  C  251  1  0.33457300  0.45065600  0.35506700  1
  C  252  1  0.36113400  0.47799100  0.34919000  1
  C  253  1  0.34296600  0.50701100  0.33982700  1
  C  254  1  0.30086600  0.50893000  0.33561900  1
  C  255  1  0.20742500  0.50574900  0.33228500  1
  C  256  1  0.16496900  0.50108500  0.33378900  1
  C  257  1  0.14804100  0.47202000  0.34365100  1
  C  258  1  0.17530900  0.44635400  0.35128600  1
  C  259  1  0.25544300  0.39552200  0.34583100  1
  C  260  1  0.25568600  0.37073300  0.36213300  1
  C  261  1  0.25554000  0.38551400  0.38262600  1
  C  262  1  0.25476500  0.42046400  0.38013500  1
  C  263  1  0.25553800  0.37022900  0.40337700  1
  C  264  1  0.25520500  0.39063600  0.42209700  1
  C  265  1  0.25472800  0.42587400  0.42027500  1
  C  266  1  0.25439100  0.44094400  0.39911500  1
  C  267  1  0.25260100  0.38513300  0.32355100  1
  C  268  1  0.25149600  0.35024000  0.31802900  1
  C  269  1  0.25198000  0.32646100  0.33527500  1
  C  270  1  0.25425100  0.33633800  0.35719400  1
  C  283  1  0.25524900  0.42963200  0.35642100  1
  C  288  1  0.29042300  0.45199800  0.65768600  1
  C  289  1  0.27579800  0.48167300  0.66722000  1
  C  290  1  0.23351500  0.48274300  0.66623100  1
  C  291  1  0.21819100  0.45356900  0.65635700  1
  C  292  1  0.17469800  0.45193200  0.65261000  1
  C  293  1  0.14811400  0.47890800  0.65916500  1
  C  294  1  0.16628600  0.50767100  0.66884500  1
  C  295  1  0.20849500  0.50970300  0.67264600  1
  C  296  1  0.30175800  0.50644400  0.67594400  1
  C  297  1  0.34420500  0.50153300  0.67492900  1
  C  298  1  0.36121700  0.47261900  0.66494300  1
  C  299  1  0.33403900  0.44738200  0.65661000  1
  C  300  1  0.25352800  0.39761200  0.66309900  1
  C  301  1  0.25324000  0.37160400  0.64772600  1
  C  302  1  0.25377700  0.38446100  0.62678500  1
  C  303  1  0.25475600  0.41961800  0.62716300  1
  C  304  1  0.25540300  0.36581400  0.60739200  1
  C  305  1  0.25782400  0.38279600  0.58752000  1
  C  306  1  0.25708400  0.41841700  0.58614500  1
  C  307  1  0.25633900  0.43658000  0.60648100  1
  C  308  1  0.25597700  0.38831900  0.68572400  1
  C  309  1  0.25657400  0.35366800  0.69230700  1
  C  310  1  0.25672900  0.32901200  0.67560900  1
  C  311  1  0.25465400  0.33754500  0.65356300  1
  C  324  1  0.25408200  0.43076500  0.65087000  1
  C  329  1  0.25355200  0.09169900  0.03049400  1
  C  330  1  0.25363000  0.06735200  0.01348200  1
  C  331  1  0.25455000  0.07520800  0.99068800  1
  C  332  1  0.25539900  0.10944500  0.98394400  1
  C  333  1  0.25415300  0.13398900  0.00092100  1
  C  334  1  0.25328900  0.12553200  0.02339600  1
  C  336  1  0.25513500  0.01592300  0.98283000  1
  C  337  1  0.25428700  0.00790800  0.00531500  1
  C  343  1  0.25439200  0.97622000  0.01507700  1
  C  347  1  0.25422500  0.08110700  0.05270300  1
  C  349  1  0.26158500  0.12103700  0.96230900  1
  C  351  1  0.75342600  0.95091200  0.97859900  1
  C  352  1  0.75362100  0.97514200  0.99567700  1
  C  353  1  0.75456000  0.96714600  0.01845900  1
  C  354  1  0.75533300  0.93285500  0.02513200  1
  C  355  1  0.75407900  0.90846100  0.00804600  1
  C  356  1  0.75320500  0.91704600  0.98560400  1
  C  358  1  0.75508800  0.02641600  0.02641600  1
  C  359  1  0.75424200  0.03453900  0.00394600  1
  C  365  1  0.75421900  0.06626800  0.99423300  1
  C  369  1  0.75389600  0.96158000  0.95640400  1
  C  371  1  0.76118800  0.92091000  0.04674900  1
  C  373  1  0.75568000  0.59195500  0.53084300  1
  C  374  1  0.75554900  0.56771800  0.51375400  1
  C  375  1  0.75481800  0.57568400  0.49094300  1
  C  376  1  0.75417400  0.60996500  0.48420300  1
  C  377  1  0.75529000  0.63432600  0.50133500  1
  C  378  1  0.75591300  0.62578800  0.52379400  1
  C  380  1  0.75432400  0.51639500  0.48303100  1
  C  381  1  0.75500000  0.50830500  0.50550900  1
  C  387  1  0.75496500  0.47657300  0.51522800  1
  C  391  1  0.75521300  0.58136000  0.55309500  1
  C  393  1  0.74902300  0.62205100  0.46250900  1
  C  395  1  0.25565800  0.45023300  0.47866400  1
  C  396  1  0.25560600  0.47461600  0.49567400  1
  C  397  1  0.25482800  0.46681600  0.51849900  1
  C  398  1  0.25411700  0.43260800  0.52534000  1
  C  399  1  0.25521700  0.40806900  0.50833900  1
  C  400  1  0.25594800  0.41644300  0.48583700  1
  C  402  1  0.25423900  0.52612100  0.52629100  1
  C  403  1  0.25497100  0.53408700  0.50379500  1
  C  409  1  0.25482900  0.56577400  0.49402400  1
  C  413  1  0.25497100  0.46063100  0.45643200  1
  C  415  1  0.24819000  0.42097100  0.54704400  1
  C  417  1  0.96260100  0.00462300  0.15292500  1
  C  418  1  0.97539800  0.03423200  0.14178100  1
  C  419  1  0.01356200  0.05094600  0.14591000  1
  C  420  1  0.04097300  0.03753000  0.16179600  1
  C  421  1  0.02813400  0.00800000  0.17300600  1
  C  422  1  0.98997600  0.99218200  0.16889800  1
  C  424  1  0.99393400  0.09387900  0.12030700  1
  C  425  1  0.95614700  0.07747000  0.11599200  1
  C  431  1  0.92429700  0.08818400  0.10237300  1
  C  435  1  0.92190900  0.99239100  0.15022000  1
  C  437  1  0.07893500  0.05165700  0.16795500  1
  C  439  1  0.54710500  0.00432300  0.85620800  1
  C  440  1  0.53418200  0.03386100  0.86744800  1
  C  441  1  0.49593700  0.05051700  0.86340200  1
  C  442  1  0.46844700  0.03707400  0.84757200  1
  C  443  1  0.48121300  0.00760100  0.83628800  1
  C  444  1  0.51947000  0.99184400  0.84029700  1
  C  446  1  0.51554100  0.09346200  0.88899400  1
  C  447  1  0.55333800  0.07705700  0.89330200  1
  C  453  1  0.58506500  0.08775700  0.90700900  1
  C  457  1  0.58787400  0.99216400  0.85873700  1
  C  459  1  0.43034400  0.05113500  0.84163700  1
  C  461  1  0.04667000  0.03796200  0.85652400  1
  C  462  1  0.03396300  0.00824600  0.86759000  1
  C  463  1  0.99587800  0.99145600  0.86339700  1
  C  464  1  0.96851900  0.00486500  0.84749400  1
  C  465  1  0.98121600  0.03444700  0.83632100  1
  C  466  1  0.01925500  0.05038600  0.84053100  1
  C  468  1  0.01553700  0.94847400  0.88894400  1
  C  469  1  0.05325000  0.96495700  0.89332200  1
  C  475  1  0.08510300  0.95419600  0.90691600  1
  C  479  1  0.08693400  0.05068200  0.85957500  1
  C  481  1  0.93058400  0.99074400  0.84140000  1
  C  483  1  0.46236300  0.03815600  0.15288000  1
  C  484  1  0.47513200  0.00855100  0.14170100  1
  C  485  1  0.51328100  0.99182900  0.14582500  1
  C  486  1  0.54071900  0.00527400  0.16167000  1
  C  487  1  0.52804000  0.03479800  0.17290200  1
  C  488  1  0.48989900  0.05063700  0.16880100  1
  C  490  1  0.49362500  0.94878600  0.12033100  1
  C  491  1  0.45590800  0.96525700  0.11595100  1
  C  497  1  0.42408200  0.95442000  0.10236800  1
  C  501  1  0.42179200  0.05042700  0.15027400  1
  C  503  1  0.57865500  0.99106900  0.16766900  1
  C  505  1  0.46262100  0.50451800  0.65279800  1
  C  506  1  0.47536500  0.53419500  0.64170300  1
  C  507  1  0.51345700  0.55098800  0.64588300  1
  C  508  1  0.54083800  0.53758700  0.66177900  1
  C  509  1  0.52814000  0.50799600  0.67294900  1
  C  510  1  0.49007300  0.49207600  0.66876800  1
  C  512  1  0.49379200  0.59394300  0.62031500  1
  C  513  1  0.45606100  0.57746900  0.61596100  1
  C  519  1  0.42422400  0.58818800  0.60234300  1
  C  523  1  0.42223400  0.49198800  0.64991100  1
  C  525  1  0.57870400  0.55181100  0.66793500  1
  C  527  1  0.04699100  0.50428100  0.35637400  1
  C  528  1  0.03420000  0.53388300  0.36755100  1
  C  529  1  0.99604400  0.55060800  0.36343100  1
  C  530  1  0.96859700  0.53718700  0.34758100  1
  C  531  1  0.98129500  0.50766100  0.33635200  1
  C  532  1  0.01943400  0.49181000  0.34045600  1
  C  534  1  0.01564500  0.59357700  0.38899100  1
  C  535  1  0.05338800  0.57712400  0.39334700  1
  C  541  1  0.08510000  0.58780800  0.40705500  1
  C  545  1  0.08755400  0.49195300  0.35901900  1
  C  547  1  0.93063900  0.55136100  0.34156400  1
  C  549  1  0.54689700  0.53784900  0.35630500  1
  C  550  1  0.53398600  0.50825500  0.36746300  1
  C  551  1  0.49579200  0.49154500  0.36334600  1
  C  552  1  0.46836800  0.50492600  0.34745300  1
  C  553  1  0.48120800  0.53447200  0.33626100  1
  C  554  1  0.51938300  0.55030000  0.34036900  1
  C  556  1  0.51542600  0.44860800  0.38893700  1
  C  557  1  0.55318800  0.46504300  0.39327500  1
  C  563  1  0.58505600  0.45429000  0.40686500  1
  C  567  1  0.58744700  0.55023700  0.35912200  1
  C  569  1  0.43039700  0.49078200  0.34126900  1
  C  571  1  0.96216400  0.53808300  0.65311400  1
  C  572  1  0.97511600  0.50860800  0.64183200  1
  C  573  1  0.01337600  0.49195800  0.64587300  1
  C  574  1  0.04088600  0.50536400  0.66170600  1
  C  575  1  0.02806600  0.53483000  0.67298000  1
  C  576  1  0.98979000  0.55056500  0.66899100  1
  C  578  1  0.99376300  0.44900400  0.62030200  1
  C  579  1  0.95600000  0.46543400  0.61596700  1
  C  585  1  0.92422000  0.45468500  0.60232000  1
  C  589  1  0.92134300  0.55004400  0.65073600  1
  C  591  1  0.07892900  0.49121500  0.66772400  1
  C  593  1  0.24401800  0.24463000  0.23749600  1
  C  594  1  0.22850400  0.27791000  0.23585200  1
  C  595  1  0.23610500  0.30331600  0.25186300  1
  C  596  1  0.26049200  0.29537600  0.27055200  1
  C  597  1  0.27641200  0.26207700  0.27186800  1
  C  598  1  0.26866100  0.23740600  0.25582800  1
  C  600  1  0.19757400  0.34215100  0.22969500  1
  C  601  1  0.19008900  0.31712800  0.21374400  1
  C  607  1  0.16916000  0.32059800  0.19394600  1
  C  611  1  0.23473300  0.22079600  0.22130300  1
  C  613  1  0.27077500  0.31725100  0.28785600  1
  C  615  1  0.26551300  0.24422800  0.77154000  1
  C  616  1  0.28093200  0.27759600  0.77350800  1
  C  617  1  0.27316800  0.30353800  0.75783400  1
  C  618  1  0.24857000  0.29636100  0.73910400  1
  C  619  1  0.23274700  0.26300600  0.73747600  1
  C  620  1  0.24064100  0.23776900  0.75316400  1
  C  622  1  0.31196200  0.34177600  0.78028700  1
  C  623  1  0.31954200  0.31635400  0.79594200  1
  C  629  1  0.34080600  0.31936200  0.81566300  1
  C  633  1  0.27486500  0.21983300  0.78754800  1
  C  635  1  0.23834100  0.31881500  0.72196100  1
  C  637  1  0.74467600  0.79774800  0.77190400  1
  C  638  1  0.72871400  0.76459700  0.77355000  1
  C  639  1  0.73577900  0.73920600  0.75746100  1
  C  640  1  0.75990600  0.74703600  0.73866600  1
  C  641  1  0.77622300  0.78019900  0.73732400  1
  C  642  1  0.76907700  0.80485000  0.75345700  1
  C  644  1  0.69724100  0.70051600  0.77972000  1
  C  645  1  0.69007400  0.72555900  0.79569600  1
  C  651  1  0.66927400  0.72211600  0.81553200  1
  C  655  1  0.73614700  0.82158200  0.78821600  1
  C  657  1  0.76944400  0.72514100  0.72126200  1
  C  659  1  0.76486100  0.79808500  0.23771700  1
  C  660  1  0.78071900  0.76485400  0.23570300  1
  C  661  1  0.77344800  0.73888200  0.25141800  1
  C  662  1  0.74907800  0.74591100  0.27024400  1
  C  663  1  0.73286900  0.77912400  0.27194200  1
  C  664  1  0.74019200  0.80438400  0.25619400  1
  C  666  1  0.81218600  0.70081000  0.22884200  1
  C  667  1  0.81946300  0.72628200  0.21318500  1
  C  673  1  0.84039900  0.72325500  0.19337000  1
  C  677  1  0.77334000  0.82244600  0.22157500  1
  C  679  1  0.73949700  0.72338100  0.28742600  1
  C  681  1  0.21806600  0.51801600  0.15814400  1
  C  682  1  0.23342300  0.48871500  0.16782300  1
  C  683  1  0.27577200  0.48976300  0.16879200  1
  C  684  1  0.29039900  0.51947500  0.15933700  1
  C  685  1  0.33396500  0.52392300  0.15772400  1
  C  686  1  0.36124300  0.49843000  0.16557000  1
  C  687  1  0.34434500  0.46939400  0.17548400  1
  C  688  1  0.30189300  0.46465300  0.17693000  1
  C  689  1  0.20840700  0.46142800  0.17360100  1
  C  690  1  0.16630700  0.46334000  0.16937900  1
  C  691  1  0.14818900  0.49228000  0.15988900  1
  C  692  1  0.17473400  0.51956600  0.15391900  1
  C  693  1  0.25385700  0.57454600  0.16294200  1
  C  694  1  0.25376000  0.59937400  0.14666500  1
  C  695  1  0.25390200  0.58460000  0.12621100  1
  C  696  1  0.25457900  0.54965200  0.12873900  1
  C  697  1  0.25388900  0.59990000  0.10547400  1
  C  698  1  0.25414700  0.57945400  0.08678300  1
  C  699  1  0.25457900  0.54414800  0.08870400  1
  C  700  1  0.25490200  0.52913700  0.10980700  1
  C  701  1  0.25647700  0.58478100  0.18521800  1
  C  702  1  0.25780900  0.61963400  0.19066400  1
  C  703  1  0.25754700  0.64356400  0.17352500  1
  C  704  1  0.25539900  0.63376300  0.15160000  1
  C  717  1  0.25404800  0.54045900  0.15242500  1
  C  722  1  0.29102400  0.51651800  0.85326500  1
  C  723  1  0.27574200  0.48740300  0.84330200  1
  C  724  1  0.23345800  0.48846100  0.84228200  1
  C  725  1  0.21880100  0.51806100  0.85189700  1
  C  726  1  0.17519600  0.52274000  0.85289000  1
  C  727  1  0.14805200  0.49761100  0.84439500  1
  C  728  1  0.16506900  0.46874000  0.83436800  1
  C  729  1  0.20751700  0.46377900  0.83343400  1
  C  730  1  0.30082200  0.46055600  0.83677000  1
  C  731  1  0.34304500  0.46267600  0.84050600  1
  C  732  1  0.36116900  0.49140000  0.85026300  1
  C  733  1  0.33452700  0.51826400  0.85693100  1
  C  734  1  0.25562700  0.57234300  0.84655400  1
  C  735  1  0.25575700  0.59844900  0.86186100  1
  C  736  1  0.25519300  0.58567500  0.88279600  1
  C  737  1  0.25435000  0.55051200  0.88243700  1
  C  738  1  0.25357100  0.60439700  0.90215600  1
  C  739  1  0.25118600  0.58744400  0.92203100  1
  C  740  1  0.25197800  0.55182900  0.92338300  1
  C  741  1  0.25276600  0.53357900  0.90310400  1
  C  742  1  0.25338300  0.58137900  0.82391300  1
  C  743  1  0.25241600  0.61596700  0.81733100  1
  C  744  1  0.25220300  0.64083600  0.83388100  1
  C  745  1  0.25416000  0.63247500  0.85595300  1
  C  758  1  0.25511100  0.53925800  0.85877500  1
  C  763  1  0.71950600  0.37881600  0.84957400  1
  C  764  1  0.73398600  0.40870500  0.84028900  1
  C  765  1  0.77631500  0.41006300  0.84146700  1
  C  766  1  0.79178000  0.38094900  0.85133500  1
  C  767  1  0.83504100  0.37952700  0.85566600  1
  C  768  1  0.86143200  0.40686700  0.84968500  1
  C  769  1  0.84327500  0.43575600  0.84015900  1
  C  770  1  0.80119600  0.43750900  0.83584000  1
  C  771  1  0.70775500  0.43379700  0.83223200  1
  C  772  1  0.66531700  0.42899100  0.83372700  1
  C  773  1  0.64843800  0.39994600  0.84364900  1
  C  774  1  0.67590500  0.37435100  0.85124900  1
  C  775  1  0.75778700  0.32408500  0.84630500  1
  C  776  1  0.75643300  0.29928900  0.86258700  1
  C  777  1  0.75474800  0.31410000  0.88301000  1
  C  778  1  0.75450800  0.34904300  0.88044200  1
  C  779  1  0.75411400  0.29885800  0.90376200  1
  C  780  1  0.75348500  0.31936600  0.92242100  1
  C  781  1  0.75339100  0.35468500  0.92045300  1
  C  782  1  0.75374300  0.36961900  0.89934100  1
  C  783  1  0.76027000  0.31378500  0.82403900  1
  C  784  1  0.76073500  0.27890200  0.81861600  1
  C  785  1  0.75968700  0.25501000  0.83577000  1
  C  786  1  0.75740500  0.26487700  0.85768000  1
  C  799  1  0.75603400  0.35817800  0.85676500  1
  C  804  1  0.78978200  0.38035500  0.15760100  1
  C  805  1  0.77530500  0.41008300  0.16712500  1
  C  806  1  0.73303800  0.41139200  0.16599600  1
  C  807  1  0.71761700  0.38237500  0.15596700  1
  C  808  1  0.67418800  0.38076300  0.15218100  1
  C  809  1  0.64773500  0.40771000  0.15883000  1
  C  810  1  0.66587400  0.43642500  0.16858200  1
  C  811  1  0.70808600  0.43839100  0.17241100  1
  C  812  1  0.80137800  0.43469600  0.17594100  1
  C  813  1  0.84380500  0.42960800  0.17498400  1
  C  814  1  0.86075600  0.40069900  0.16495000  1
  C  815  1  0.83340100  0.37557500  0.15659500  1
  C  816  1  0.75185500  0.32634500  0.16282700  1
  C  817  1  0.75320900  0.30023300  0.14754800  1
  C  818  1  0.75453200  0.31297900  0.12662500  1
  C  819  1  0.75437900  0.34814200  0.12693000  1
  C  820  1  0.75400000  0.29420400  0.10728300  1
  C  821  1  0.75264100  0.31109300  0.08736700  1
  C  822  1  0.75347400  0.34671900  0.08593000  1
  C  823  1  0.75386100  0.36500000  0.10621400  1
  C  824  1  0.74981300  0.31728600  0.18547000  1
  C  825  1  0.74974600  0.28268200  0.19205500  1
  C  826  1  0.74992100  0.25781500  0.17549800  1
  C  827  1  0.75208700  0.26619400  0.15344200  1
  C  840  1  0.75329200  0.35940400  0.15059500  1
  C  845  1  0.71748400  0.01827610  0.65834900  1
  C  846  1  0.73297000  0.98903200  0.66804700  1
  C  847  1  0.77529600  0.99035100  0.66920100  1
  C  848  1  0.78977900  0.02034610  0.66005900  1
  C  849  1  0.83337700  0.02469810  0.65826500  1
  C  850  1  0.86081900  0.99900500  0.66573600  1
  C  851  1  0.84394600  0.96992200  0.67562000  1
  C  852  1  0.80151200  0.96514400  0.67712400  1
  C  853  1  0.70813000  0.96148000  0.67350700  1
  C  854  1  0.66604500  0.96326000  0.66921400  1
  C  855  1  0.64784000  0.99225500  0.65984300  1
  C  856  1  0.67425300  0.01961610  0.65391100  1
  C  857  1  0.75162100  0.07518010  0.66344700  1
  C  858  1  0.75316000  0.09992610  0.64713800  1
  C  859  1  0.75470700  0.08509010  0.62668200  1
  C  860  1  0.75478600  0.05014710  0.62922500  1
  C  861  1  0.75530400  0.10029600  0.60591400  1
  C  862  1  0.75579400  0.07979910  0.58723500  1
  C  863  1  0.75576200  0.04445210  0.58916200  1
  C  864  1  0.75541200  0.02957610  0.61029800  1
  C  865  1  0.74893800  0.08562910  0.68571200  1
  C  866  1  0.74878500  0.12054200  0.69120700  1
  C  867  1  0.74998100  0.14428900  0.67394900  1
  C  868  1  0.75235600  0.13434300  0.65204700  1
  C  881  1  0.75325100  0.04105510  0.65293100  1
  C  886  1  0.79164700  0.01685310  0.35299000  1
  C  887  1  0.77622600  0.98775200  0.34306200  1
  C  888  1  0.73395900  0.98901400  0.34194500  1
  C  889  1  0.71945400  0.01880210  0.35137500  1
  C  890  1  0.67581300  0.02344910  0.35247000  1
  C  891  1  0.64849200  0.99818100  0.34425800  1
  C  892  1  0.66548000  0.96922900  0.33429800  1
  C  893  1  0.70791700  0.96424700  0.33328000  1
  C  894  1  0.80116000  0.96068100  0.33675200  1
  C  895  1  0.84335900  0.96262800  0.34061600  1
  C  896  1  0.86155700  0.99141400  0.35025400  1
  C  897  1  0.83507800  0.01841210  0.35682200  1
  C  898  1  0.75727600  0.07298110  0.34609800  1
  C  899  1  0.75572700  0.09899410  0.36143900  1
  C  900  1  0.75445700  0.08615010  0.38235400  1
  C  901  1  0.75474000  0.05099510  0.38203700  1
  C  902  1  0.75481900  0.10487200  0.40171400  1
  C  903  1  0.75618000  0.08797110  0.42162700  1
  C  904  1  0.75551200  0.05233310  0.42310900  1
  C  905  1  0.75524500  0.03412410  0.40277500  1
  C  906  1  0.75953100  0.08230510  0.32347800  1
  C  907  1  0.75943100  0.11697900  0.31692500  1
  C  908  1  0.75903600  0.14164400  0.33360900  1
  C  909  1  0.75672300  0.13307400  0.35563100  1
  C  922  1  0.75592800  0.03984410  0.35833000  1
  C  927  1  0.21888900  0.87884200  0.34960100  1
  C  928  1  0.23353100  0.90863800  0.34025900  1
  C  929  1  0.27588400  0.90965800  0.34120200  1
  C  930  1  0.29124900  0.88026500  0.35076300  1
  C  931  1  0.33457300  0.87879200  0.35506700  1
  C  932  1  0.36113400  0.90612700  0.34919000  1
  C  933  1  0.34296600  0.93514700  0.33982700  1
  C  934  1  0.30086600  0.93706600  0.33561900  1
  C  935  1  0.20742500  0.93388500  0.33228500  1
  C  936  1  0.16496900  0.92922100  0.33378900  1
  C  937  1  0.14804100  0.90015600  0.34365100  1
  C  938  1  0.17530900  0.87449000  0.35128600  1
  C  939  1  0.25544300  0.82365800  0.34583100  1
  C  940  1  0.25568600  0.79886900  0.36213300  1
  C  941  1  0.25554000  0.81365000  0.38262600  1
  C  942  1  0.25476500  0.84860000  0.38013500  1
  C  943  1  0.25553800  0.79836500  0.40337700  1
  C  944  1  0.25520500  0.81877200  0.42209700  1
  C  945  1  0.25472800  0.85401000  0.42027500  1
  C  946  1  0.25439100  0.86908000  0.39911500  1
  C  947  1  0.25260100  0.81326900  0.32355100  1
  C  948  1  0.25149600  0.77837600  0.31802900  1
  C  949  1  0.25198000  0.75459700  0.33527500  1
  C  950  1  0.25425100  0.76447400  0.35719400  1
  C  963  1  0.25524900  0.85776800  0.35642100  1
  C  968  1  0.29042300  0.88013400  0.65768600  1
  C  969  1  0.27579800  0.90980900  0.66722000  1
  C  970  1  0.23351500  0.91087900  0.66623100  1
  C  971  1  0.21819100  0.88170500  0.65635700  1
  C  972  1  0.17469800  0.88006800  0.65261000  1
  C  973  1  0.14811400  0.90704400  0.65916500  1
  C  974  1  0.16628600  0.93580700  0.66884500  1
  C  975  1  0.20849500  0.93783900  0.67264600  1
  C  976  1  0.30175800  0.93458000  0.67594400  1
  C  977  1  0.34420500  0.92966900  0.67492900  1
  C  978  1  0.36121700  0.90075500  0.66494300  1
  C  979  1  0.33403900  0.87551800  0.65661000  1
  C  980  1  0.25352800  0.82574800  0.66309900  1
  C  981  1  0.25324000  0.79974000  0.64772600  1
  C  982  1  0.25377700  0.81259700  0.62678500  1
  C  983  1  0.25475600  0.84775400  0.62716300  1
  C  984  1  0.25540300  0.79395000  0.60739200  1
  C  985  1  0.25782400  0.81093200  0.58752000  1
  C  986  1  0.25708400  0.84655300  0.58614500  1
  C  987  1  0.25633900  0.86471600  0.60648100  1
  C  988  1  0.25597700  0.81645500  0.68572400  1
  C  989  1  0.25657400  0.78180400  0.69230700  1
  C  990  1  0.25672900  0.75714800  0.67560900  1
  C  991  1  0.25465400  0.76568100  0.65356300  1
  C  1004  1  0.25408200  0.85890100  0.65087000  1
  C  1009  1  0.25355200  0.51983500  0.03049400  1
  C  1010  1  0.25363000  0.49548800  0.01348200  1
  C  1011  1  0.25455000  0.50334400  0.99068800  1
  C  1012  1  0.25539900  0.53758100  0.98394400  1
  C  1013  1  0.25415300  0.56212500  0.00092100  1
  C  1014  1  0.25328900  0.55366800  0.02339600  1
  C  1016  1  0.25513500  0.44405900  0.98283000  1
  C  1017  1  0.25428700  0.43604400  0.00531500  1
  C  1023  1  0.25439200  0.40435600  0.01507700  1
  C  1027  1  0.25422500  0.50924300  0.05270300  1
  C  1029  1  0.26158500  0.54917300  0.96230900  1
  C  1031  1  0.75342600  0.37904800  0.97859900  1
  C  1032  1  0.75362100  0.40327800  0.99567700  1
  C  1033  1  0.75456000  0.39528200  0.01845900  1
  C  1034  1  0.75533300  0.36099100  0.02513200  1
  C  1035  1  0.75407900  0.33659700  0.00804600  1
  C  1036  1  0.75320500  0.34518200  0.98560400  1
  C  1038  1  0.75508800  0.45455200  0.02641600  1
  C  1039  1  0.75424200  0.46267500  0.00394600  1
  C  1045  1  0.75421900  0.49440400  0.99423300  1
  C  1049  1  0.75389600  0.38971600  0.95640400  1
  C  1051  1  0.76118800  0.34904600  0.04674900  1
  C  1053  1  0.75568000  0.02009110  0.53084300  1
  C  1054  1  0.75554900  0.99585400  0.51375400  1
  C  1055  1  0.75481800  0.00382010  0.49094300  1
  C  1056  1  0.75417400  0.03810110  0.48420300  1
  C  1057  1  0.75529000  0.06246210  0.50133500  1
  C  1058  1  0.75591300  0.05392410  0.52379400  1
  C  1060  1  0.75432400  0.94453100  0.48303100  1
  C  1061  1  0.75500000  0.93644100  0.50550900  1
  C  1067  1  0.75496500  0.90470900  0.51522800  1
  C  1071  1  0.75521300  0.00949610  0.55309500  1
  C  1073  1  0.74902300  0.05018710  0.46250900  1
  C  1075  1  0.25565800  0.87836900  0.47866400  1
  C  1076  1  0.25560600  0.90275200  0.49567400  1
  C  1077  1  0.25482800  0.89495200  0.51849900  1
  C  1078  1  0.25411700  0.86074400  0.52534000  1
  C  1079  1  0.25521700  0.83620500  0.50833900  1
  C  1080  1  0.25594800  0.84457900  0.48583700  1
  C  1082  1  0.25423900  0.95425700  0.52629100  1
  C  1083  1  0.25497100  0.96222300  0.50379500  1
  C  1089  1  0.25482900  0.99391000  0.49402400  1
  C  1093  1  0.25497100  0.88876700  0.45643200  1
  C  1095  1  0.24819000  0.84910700  0.54704400  1
  C  1097  1  0.96260100  0.43275900  0.15292500  1
  C  1098  1  0.97539800  0.46236800  0.14178100  1
  C  1099  1  0.01356200  0.47908200  0.14591000  1
  C  1100  1  0.04097300  0.46566600  0.16179600  1
  C  1101  1  0.02813400  0.43613600  0.17300600  1
  C  1102  1  0.98997600  0.42031800  0.16889800  1
  C  1104  1  0.99393400  0.52201500  0.12030700  1
  C  1105  1  0.95614700  0.50560600  0.11599200  1
  C  1111  1  0.92429700  0.51632000  0.10237300  1
  C  1115  1  0.92190900  0.42052700  0.15022000  1
  C  1117  1  0.07893500  0.47979300  0.16795500  1
  C  1119  1  0.54710500  0.43245900  0.85620800  1
  C  1120  1  0.53418200  0.46199700  0.86744800  1
  C  1121  1  0.49593700  0.47865300  0.86340200  1
  C  1122  1  0.46844700  0.46521000  0.84757200  1
  C  1123  1  0.48121300  0.43573700  0.83628800  1
  C  1124  1  0.51947000  0.41998000  0.84029700  1
  C  1126  1  0.51554100  0.52159800  0.88899400  1
  C  1127  1  0.55333800  0.50519300  0.89330200  1
  C  1133  1  0.58506500  0.51589300  0.90700900  1
  C  1137  1  0.58787400  0.42030000  0.85873700  1
  C  1139  1  0.43034400  0.47927100  0.84163700  1
  C  1141  1  0.04667000  0.46609800  0.85652400  1
  C  1142  1  0.03396300  0.43638200  0.86759000  1
  C  1143  1  0.99587800  0.41959200  0.86339700  1
  C  1144  1  0.96851900  0.43300100  0.84749400  1
  C  1145  1  0.98121600  0.46258300  0.83632100  1
  C  1146  1  0.01925500  0.47852200  0.84053100  1
  C  1148  1  0.01553700  0.37661000  0.88894400  1
  C  1149  1  0.05325000  0.39309300  0.89332200  1
  C  1155  1  0.08510300  0.38233200  0.90691600  1
  C  1159  1  0.08693400  0.47881800  0.85957500  1
  C  1161  1  0.93058400  0.41888000  0.84140000  1
  C  1163  1  0.46236300  0.46629200  0.15288000  1
  C  1164  1  0.47513200  0.43668700  0.14170100  1
  C  1165  1  0.51328100  0.41996500  0.14582500  1
  C  1166  1  0.54071900  0.43341000  0.16167000  1
  C  1167  1  0.52804000  0.46293400  0.17290200  1
  C  1168  1  0.48989900  0.47877300  0.16880100  1
  C  1170  1  0.49362500  0.37692200  0.12033100  1
  C  1171  1  0.45590800  0.39339300  0.11595100  1
  C  1177  1  0.42408200  0.38255600  0.10236800  1
  C  1181  1  0.42179200  0.47856300  0.15027400  1
  C  1183  1  0.57865500  0.41920500  0.16766900  1
  C  1185  1  0.46262100  0.93265400  0.65279800  1
  C  1186  1  0.47536500  0.96233100  0.64170300  1
  C  1187  1  0.51345700  0.97912400  0.64588300  1
  C  1188  1  0.54083800  0.96572300  0.66177900  1
  C  1189  1  0.52814000  0.93613200  0.67294900  1
  C  1190  1  0.49007300  0.92021200  0.66876800  1
  C  1192  1  0.49379200  0.02207910  0.62031500  1
  C  1193  1  0.45606100  0.00560510  0.61596100  1
  C  1199  1  0.42422400  0.01632410  0.60234300  1
  C  1203  1  0.42223400  0.92012400  0.64991100  1
  C  1205  1  0.57870400  0.97994700  0.66793500  1
  C  1207  1  0.04699100  0.93241700  0.35637400  1
  C  1208  1  0.03420000  0.96201900  0.36755100  1
  C  1209  1  0.99604400  0.97874400  0.36343100  1
  C  1210  1  0.96859700  0.96532300  0.34758100  1
  C  1211  1  0.98129500  0.93579700  0.33635200  1
  C  1212  1  0.01943400  0.91994600  0.34045600  1
  C  1214  1  0.01564500  0.02171310  0.38899100  1
  C  1215  1  0.05338800  0.00526010  0.39334700  1
  C  1221  1  0.08510000  0.01594410  0.40705500  1
  C  1225  1  0.08755400  0.92008900  0.35901900  1
  C  1227  1  0.93063900  0.97949700  0.34156400  1
  C  1229  1  0.54689700  0.96598500  0.35630500  1
  C  1230  1  0.53398600  0.93639100  0.36746300  1
  C  1231  1  0.49579200  0.91968100  0.36334600  1
  C  1232  1  0.46836800  0.93306200  0.34745300  1
  C  1233  1  0.48120800  0.96260800  0.33626100  1
  C  1234  1  0.51938300  0.97843600  0.34036900  1
  C  1236  1  0.51542600  0.87674400  0.38893700  1
  C  1237  1  0.55318800  0.89317900  0.39327500  1
  C  1243  1  0.58505600  0.88242600  0.40686500  1
  C  1247  1  0.58744700  0.97837300  0.35912200  1
  C  1249  1  0.43039700  0.91891800  0.34126900  1
  C  1251  1  0.96216400  0.96621900  0.65311400  1
  C  1252  1  0.97511600  0.93674400  0.64183200  1
  C  1253  1  0.01337600  0.92009400  0.64587300  1
  C  1254  1  0.04088600  0.93350000  0.66170600  1
  C  1255  1  0.02806600  0.96296600  0.67298000  1
  C  1256  1  0.98979000  0.97870100  0.66899100  1
  C  1258  1  0.99376300  0.87714000  0.62030200  1
  C  1259  1  0.95600000  0.89357000  0.61596700  1
  C  1265  1  0.92422000  0.88282100  0.60232000  1
  C  1269  1  0.92134300  0.97818000  0.65073600  1
  C  1271  1  0.07892900  0.91935100  0.66772400  1
  C  1273  1  0.24401800  0.67276600  0.23749600  1
  C  1274  1  0.22850400  0.70604600  0.23585200  1
  C  1275  1  0.23610500  0.73145200  0.25186300  1
  C  1276  1  0.26049200  0.72351200  0.27055200  1
  C  1277  1  0.27641200  0.69021300  0.27186800  1
  C  1278  1  0.26866100  0.66554200  0.25582800  1
  C  1280  1  0.19757400  0.77028700  0.22969500  1
  C  1281  1  0.19008900  0.74526400  0.21374400  1
  C  1287  1  0.16916000  0.74873400  0.19394600  1
  C  1291  1  0.23473300  0.64893200  0.22130300  1
  C  1293  1  0.27077500  0.74538700  0.28785600  1
  C  1295  1  0.26551300  0.67236400  0.77154000  1
  C  1296  1  0.28093200  0.70573200  0.77350800  1
  C  1297  1  0.27316800  0.73167400  0.75783400  1
  C  1298  1  0.24857000  0.72449700  0.73910400  1
  C  1299  1  0.23274700  0.69114200  0.73747600  1
  C  1300  1  0.24064100  0.66590500  0.75316400  1
  C  1302  1  0.31196200  0.76991200  0.78028700  1
  C  1303  1  0.31954200  0.74449000  0.79594200  1
  C  1309  1  0.34080600  0.74749800  0.81566300  1
  C  1313  1  0.27486500  0.64796900  0.78754800  1
  C  1315  1  0.23834100  0.74695100  0.72196100  1
  C  1317  1  0.74467600  0.22588400  0.77190400  1
  C  1318  1  0.72871400  0.19273300  0.77355000  1
  C  1319  1  0.73577900  0.16734200  0.75746100  1
  C  1320  1  0.75990600  0.17517200  0.73866600  1
  C  1321  1  0.77622300  0.20833500  0.73732400  1
  C  1322  1  0.76907700  0.23298600  0.75345700  1
  C  1324  1  0.69724100  0.12865200  0.77972000  1
  C  1325  1  0.69007400  0.15369500  0.79569600  1
  C  1331  1  0.66927400  0.15025200  0.81553200  1
  C  1335  1  0.73614700  0.24971800  0.78821600  1
  C  1337  1  0.76944400  0.15327700  0.72126200  1
  C  1339  1  0.76486100  0.22622100  0.23771700  1
  C  1340  1  0.78071900  0.19299000  0.23570300  1
  C  1341  1  0.77344800  0.16701800  0.25141800  1
  C  1342  1  0.74907800  0.17404700  0.27024400  1
  C  1343  1  0.73286900  0.20726000  0.27194200  1
  C  1344  1  0.74019200  0.23252000  0.25619400  1
  C  1346  1  0.81218600  0.12894600  0.22884200  1
  C  1347  1  0.81946300  0.15441800  0.21318500  1
  C  1353  1  0.84039900  0.15139100  0.19337000  1
  C  1357  1  0.77334000  0.25058200  0.22157500  1
  C  1359  1  0.73949700  0.15151700  0.28742600  1
  N  38  1  0.25440500  0.09809400  0.07052300  1
  N  39  1  0.10804000  0.06042800  0.15453800  1
  N  40  1  0.40254000  0.06913400  0.16423700  1
  N  41  1  0.26298000  0.20484000  0.21062300  1
  N  79  1  0.24824200  0.10950000  0.94363000  1
  N  80  1  0.40146500  0.05960400  0.85526500  1
  N  81  1  0.10674900  0.06826600  0.84524200  1
  N  82  1  0.24768000  0.20095000  0.79709700  1
  N  120  1  0.75365400  0.94449800  0.93862200  1
  N  121  1  0.60703000  0.97298400  0.84498300  1
  N  122  1  0.90155300  0.98237200  0.85494800  1
  N  123  1  0.76496200  0.83734000  0.79861000  1
  N  161  1  0.74981200  0.93291000  0.06568000  1
  N  162  1  0.90216700  0.97365900  0.16400100  1
  N  163  1  0.60749100  0.98319600  0.15388900  1
  N  164  1  0.74576800  0.84132900  0.21231500  1
  N  202  1  0.75547700  0.59845100  0.57090200  1
  N  203  1  0.60778400  0.56034100  0.65446000  1
  N  204  1  0.90220900  0.56968700  0.66423500  1
  N  205  1  0.74341800  0.70570600  0.71130200  1
  N  243  1  0.75894800  0.60974600  0.44340500  1
  N  244  1  0.90177900  0.55954600  0.35526900  1
  N  245  1  0.60708700  0.56885100  0.34524000  1
  N  246  1  0.76440600  0.70198400  0.29662300  1
  N  284  1  0.25483800  0.44398700  0.43844400  1
  N  285  1  0.10673400  0.47324600  0.34501900  1
  N  286  1  0.40125800  0.48179600  0.35461700  1
  N  287  1  0.24535900  0.33703600  0.29796300  1
  N  325  1  0.26078300  0.43267100  0.56585200  1
  N  326  1  0.40254800  0.47383000  0.66400900  1
  N  327  1  0.10783400  0.48267800  0.65411800  1
  N  328  1  0.26244400  0.34064500  0.71259200  1
  N  335  1  0.25547300  0.04871300  0.97640000  1
  N  338  1  0.25363800  0.03447700  0.01897700  1
  N  357  1  0.75543800  0.99359200  0.03278800  1
  N  360  1  0.75359200  0.00803200  0.99023600  1
  N  379  1  0.75406000  0.54921200  0.47663500  1
  N  382  1  0.75553000  0.53483000  0.51921200  1
  N  401  1  0.25396900  0.49334800  0.53275700  1
  N  404  1  0.25555300  0.50748400  0.49014800  1
  N  423  1  0.02098200  0.08027500  0.13486300  1
  N  426  1  0.94963900  0.04872700  0.12718800  1
  N  445  1  0.48849800  0.07983000  0.87445700  1
  N  448  1  0.55992100  0.04832700  0.88207200  1
  N  467  1  0.98849200  0.96208100  0.87439400  1
  N  470  1  0.05973500  0.99375600  0.88217700  1
  N  489  1  0.52068000  0.96244400  0.13484500  1
  N  492  1  0.44936800  0.99404500  0.12711100  1
  N  511  1  0.52083300  0.58035300  0.63487600  1
  N  514  1  0.44959300  0.54867300  0.62711200  1
  N  533  1  0.98862400  0.57996300  0.37444200  1
  N  536  1  0.05993200  0.54834600  0.38217400  1
  N  555  1  0.48837300  0.46222000  0.37439100  1
  N  558  1  0.55972400  0.49377100  0.38206800  1
  N  577  1  0.02081400  0.46263600  0.63483000  1
  N  580  1  0.94939800  0.49414400  0.62720200  1
  N  599  1  0.21997200  0.33454500  0.24790600  1
  N  602  1  0.20630700  0.28653900  0.21800200  1
  N  621  1  0.28937500  0.33464300  0.76208800  1
  N  624  1  0.30332500  0.28585400  0.79137500  1
  N  643  1  0.71946500  0.70804800  0.76144500  1
  N  646  1  0.70659800  0.75606000  0.79145000  1
  N  665  1  0.78979600  0.70784700  0.24711300  1
  N  668  1  0.80298200  0.75669700  0.21776400  1
  N  718  1  0.25440500  0.52623000  0.07052300  1
  N  719  1  0.10804000  0.48856400  0.15453800  1
  N  720  1  0.40254000  0.49727000  0.16423700  1
  N  721  1  0.26298000  0.63297600  0.21062300  1
  N  759  1  0.24824200  0.53763600  0.94363000  1
  N  760  1  0.40146500  0.48774000  0.85526500  1
  N  761  1  0.10674900  0.49640200  0.84524200  1
  N  762  1  0.24768000  0.62908600  0.79709700  1
  N  800  1  0.75365400  0.37263400  0.93862200  1
  N  801  1  0.60703000  0.40112000  0.84498300  1
  N  802  1  0.90155300  0.41050800  0.85494800  1
  N  803  1  0.76496200  0.26547600  0.79861000  1
  N  841  1  0.74981200  0.36104600  0.06568000  1
  N  842  1  0.90216700  0.40179500  0.16400100  1
  N  843  1  0.60749100  0.41133200  0.15388900  1
  N  844  1  0.74576800  0.26946500  0.21231500  1
  N  882  1  0.75547700  0.02658710  0.57090200  1
  N  883  1  0.60778400  0.98847700  0.65446000  1
  N  884  1  0.90220900  0.99782300  0.66423500  1
  N  885  1  0.74341800  0.13384200  0.71130200  1
  N  923  1  0.75894800  0.03788210  0.44340500  1
  N  924  1  0.90177900  0.98768200  0.35526900  1
  N  925  1  0.60708700  0.99698700  0.34524000  1
  N  926  1  0.76440600  0.13012000  0.29662300  1
  N  964  1  0.25483800  0.87212300  0.43844400  1
  N  965  1  0.10673400  0.90138200  0.34501900  1
  N  966  1  0.40125800  0.90993200  0.35461700  1
  N  967  1  0.24535900  0.76517200  0.29796300  1
  N  1005  1  0.26078300  0.86080700  0.56585200  1
  N  1006  1  0.40254800  0.90196600  0.66400900  1
  N  1007  1  0.10783400  0.91081400  0.65411800  1
  N  1008  1  0.26244400  0.76878100  0.71259200  1
  N  1015  1  0.25547300  0.47684900  0.97640000  1
  N  1018  1  0.25363800  0.46261300  0.01897700  1
  N  1037  1  0.75543800  0.42172800  0.03278800  1
  N  1040  1  0.75359200  0.43616800  0.99023600  1
  N  1059  1  0.75406000  0.97734800  0.47663500  1
  N  1062  1  0.75553000  0.96296600  0.51921200  1
  N  1081  1  0.25396900  0.92148400  0.53275700  1
  N  1084  1  0.25555300  0.93562000  0.49014800  1
  N  1103  1  0.02098200  0.50841100  0.13486300  1
  N  1106  1  0.94963900  0.47686300  0.12718800  1
  N  1125  1  0.48849800  0.50796600  0.87445700  1
  N  1128  1  0.55992100  0.47646300  0.88207200  1
  N  1147  1  0.98849200  0.39021700  0.87439400  1
  N  1150  1  0.05973500  0.42189200  0.88217700  1
  N  1169  1  0.52068000  0.39058000  0.13484500  1
  N  1172  1  0.44936800  0.42218100  0.12711100  1
  N  1191  1  0.52083300  0.00848910  0.63487600  1
  N  1194  1  0.44959300  0.97680900  0.62711200  1
  N  1213  1  0.98862400  0.00809910  0.37444200  1
  N  1216  1  0.05993200  0.97648200  0.38217400  1
  N  1235  1  0.48837300  0.89035600  0.37439100  1
  N  1238  1  0.55972400  0.92190700  0.38206800  1
  N  1257  1  0.02081400  0.89077200  0.63483000  1
  N  1260  1  0.94939800  0.92228000  0.62720200  1
  N  1279  1  0.21997200  0.76268100  0.24790600  1
  N  1282  1  0.20630700  0.71467500  0.21800200  1
  N  1301  1  0.28937500  0.76277900  0.76208800  1
  N  1304  1  0.30332500  0.71399000  0.79137500  1
  N  1323  1  0.71946500  0.13618400  0.76144500  1
  N  1326  1  0.70659800  0.18419600  0.79145000  1
  N  1345  1  0.78979600  0.13598300  0.24711300  1
  N  1348  1  0.80298200  0.18483300  0.21776400  1
  O  341  1  0.25585000  0.99208900  0.96709000  1
  O  344  1  0.25489900  0.97410900  0.03505200  1
  O  345  1  0.25469000  0.94871800  0.00584500  1
  O  363  1  0.75572200  0.05019300  0.04219500  1
  O  366  1  0.75455200  0.06845600  0.97425900  1
  O  367  1  0.75470800  0.09373600  0.00350400  1
  O  385  1  0.75380100  0.49259300  0.46726700  1
  O  388  1  0.75477300  0.47439400  0.53520200  1
  O  389  1  0.75463600  0.44909200  0.50596700  1
  O  407  1  0.25360700  0.54999300  0.54201100  1
  O  410  1  0.25439800  0.56786900  0.47404900  1
  O  411  1  0.25461700  0.59329300  0.50324100  1
  O  429  1  0.00402100  0.12359600  0.11100300  1
  O  432  1  0.89097400  0.07371300  0.10307000  1
  O  433  1  0.92531100  0.11165700  0.08926100  1
  O  451  1  0.50537200  0.12316200  0.89830100  1
  O  454  1  0.61854800  0.07355800  0.90616300  1
  O  455  1  0.58421400  0.11163200  0.91982000  1
  O  473  1  0.00551100  0.91870100  0.89819300  1
  O  476  1  0.11842700  0.96866500  0.90623000  1
  O  477  1  0.08403200  0.93076700  0.92006100  1
  O  495  1  0.50366400  0.91898300  0.11112600  1
  O  498  1  0.39071000  0.96881100  0.10307100  1
  O  499  1  0.42517800  0.93092600  0.08927200  1
  O  517  1  0.50382400  0.62370000  0.61104900  1
  O  520  1  0.39088500  0.57374500  0.60306000  1
  O  521  1  0.42524400  0.61167200  0.58923900  1
  O  539  1  0.00552000  0.62331000  0.39826700  1
  O  542  1  0.11860200  0.57364600  0.40618300  1
  O  543  1  0.08424700  0.61170500  0.41984500  1
  O  561  1  0.50536000  0.41887800  0.39823100  1
  O  564  1  0.61837400  0.46876800  0.40617800  1
  O  565  1  0.58400800  0.43086600  0.42001500  1
  O  583  1  0.00388900  0.41928100  0.61101600  1
  O  586  1  0.89075300  0.46890200  0.60316100  1
  O  587  1  0.92511200  0.43088300  0.58945800  1
  O  605  1  0.18414800  0.37414000  0.22735100  1
  O  608  1  0.17053600  0.29769500  0.18057500  1
  O  609  1  0.14921600  0.34512500  0.18766700  1
  O  627  1  0.32548400  0.37369400  0.78288500  1
  O  630  1  0.33856900  0.29655200  0.82906400  1
  O  631  1  0.35986500  0.34411800  0.82232700  1
  O  649  1  0.68366000  0.66857200  0.78207500  1
  O  652  1  0.67058800  0.74509500  0.82884600  1
  O  653  1  0.64911500  0.69769700  0.82180400  1
  O  671  1  0.82576100  0.66891700  0.22618900  1
  O  674  1  0.83859900  0.74629600  0.18012300  1
  O  675  1  0.86026500  0.69882800  0.18684200  1
  O  1021  1  0.25585000  0.42022500  0.96709000  1
  O  1024  1  0.25489900  0.40224500  0.03505200  1
  O  1025  1  0.25469000  0.37685400  0.00584500  1
  O  1043  1  0.75572200  0.47832900  0.04219500  1
  O  1046  1  0.75455200  0.49659200  0.97425900  1
  O  1047  1  0.75470800  0.52187200  0.00350400  1
  O  1065  1  0.75380100  0.92072900  0.46726700  1
  O  1068  1  0.75477300  0.90253000  0.53520200  1
  O  1069  1  0.75463600  0.87722800  0.50596700  1
  O  1087  1  0.25360700  0.97812900  0.54201100  1
  O  1090  1  0.25439800  0.99600500  0.47404900  1
  O  1091  1  0.25461700  0.02142910  0.50324100  1
  O  1109  1  0.00402100  0.55173200  0.11100300  1
  O  1112  1  0.89097400  0.50184900  0.10307000  1
  O  1113  1  0.92531100  0.53979300  0.08926100  1
  O  1131  1  0.50537200  0.55129800  0.89830100  1
  O  1134  1  0.61854800  0.50169400  0.90616300  1
  O  1135  1  0.58421400  0.53976800  0.91982000  1
  O  1153  1  0.00551100  0.34683700  0.89819300  1
  O  1156  1  0.11842700  0.39680100  0.90623000  1
  O  1157  1  0.08403200  0.35890300  0.92006100  1
  O  1175  1  0.50366400  0.34711900  0.11112600  1
  O  1178  1  0.39071000  0.39694700  0.10307100  1
  O  1179  1  0.42517800  0.35906200  0.08927200  1
  O  1197  1  0.50382400  0.05183610  0.61104900  1
  O  1200  1  0.39088500  0.00188110  0.60306000  1
  O  1201  1  0.42524400  0.03980810  0.58923900  1
  O  1219  1  0.00552000  0.05144610  0.39826700  1
  O  1222  1  0.11860200  0.00178210  0.40618300  1
  O  1223  1  0.08424700  0.03984110  0.41984500  1
  O  1241  1  0.50536000  0.84701400  0.39823100  1
  O  1244  1  0.61837400  0.89690400  0.40617800  1
  O  1245  1  0.58400800  0.85900200  0.42001500  1
  O  1263  1  0.00388900  0.84741700  0.61101600  1
  O  1266  1  0.89075300  0.89703800  0.60316100  1
  O  1267  1  0.92511200  0.85901900  0.58945800  1
  O  1285  1  0.18414800  0.80227600  0.22735100  1
  O  1288  1  0.17053600  0.72583100  0.18057500  1
  O  1289  1  0.14921600  0.77326100  0.18766700  1
  O  1307  1  0.32548400  0.80183000  0.78288500  1
  O  1310  1  0.33856900  0.72468800  0.82906400  1
  O  1311  1  0.35986500  0.77225400  0.82232700  1
  O  1329  1  0.68366000  0.09670810  0.78207500  1
  O  1332  1  0.67058800  0.17323100  0.82884600  1
  O  1333  1  0.64911500  0.12583300  0.82180400  1
  O  1351  1  0.82576100  0.09705310  0.22618900  1
  O  1354  1  0.83859900  0.17443200  0.18012300  1
  O  1355  1  0.86026500  0.12696400  0.18684200  1
