# generated using pymatgen
data_H22C21
_symmetry_space_group_name_H-M   'P 1'
_cell_length_a   38.34770000
_cell_length_b   58.23815000
_cell_length_c   58.23820000
_cell_angle_alpha   120.00008520
_cell_angle_beta   90.00000000
_cell_angle_gamma   90.00000000
_symmetry_Int_Tables_number   1
_chemical_formula_structural   H22C21
_chemical_formula_sum   'H1056 C1008'
_cell_volume   112638.04244869
_cell_formula_units_Z   48
loop_
 _symmetry_equiv_pos_site_id
 _symmetry_equiv_pos_as_xyz
  1  'x, y, z'
loop_
 _atom_site_type_symbol
 _atom_site_label
 _atom_site_symmetry_multiplicity
 _atom_site_fract_x
 _atom_site_fract_y
 _atom_site_fract_z
 _atom_site_occupancy
  H  1  1  0.00883600  0.99079000  0.39106000  1
  H  2  1  0.90137900  0.98902000  0.34003100  1
  H  3  1  0.98508500  0.99150600  0.33543100  1
  H  5  1  0.92228500  0.98761600  0.42571400  1
  H  9  1  0.37085000  0.98537800  0.63761800  1
  H  10  1  0.41129800  0.98694500  0.58305600  1
  H  11  1  0.48502800  0.99132400  0.37322800  1
  H  13  1  0.63745700  0.98457900  0.37272200  1
  H  14  1  0.52940600  0.99444700  0.33126200  1
  H  16  1  0.11374700  0.99235700  0.63467500  1
  H  18  1  0.09713100  0.99439200  0.57369000  1
  H  19  1  0.05390800  0.99184700  0.56179000  1
  H  21  1  0.88314900  0.98428900  0.40807600  1
  H  24  1  0.50211700  0.98413600  0.57435200  1
  H  25  1  0.52937000  0.97610300  0.59396300  1
  H  26  1  0.39684800  0.97869300  0.65881600  1
  H  28  1  0.63348800  0.97694300  0.33927500  1
  H  29  1  0.56581300  0.97916800  0.40679900  1
  H  32  1  0.00360500  0.97471500  0.65528800  1
  H  33  1  0.04788400  0.97389900  0.66370600  1
  H  37  1  0.01082600  0.96311100  0.32593700  1
  H  38  1  0.97229100  0.96102100  0.30811800  1
  H  42  1  0.47960700  0.96490200  0.37948300  1
  H  43  1  0.47235500  0.96003300  0.34725100  1
  H  49  1  0.88552800  0.56242300  0.70848000  1
  H  50  1  0.89085900  0.52850900  0.69758200  1
  H  53  1  0.89335700  0.49356300  0.64897100  1
  H  54  1  0.88882900  0.50319000  0.62487900  1
  H  55  1  0.94859400  0.50644600  0.67815000  1
  H  56  1  0.98235700  0.52373600  0.67277700  1
  H  59  1  0.94033400  0.52978900  0.61823200  1
  H  60  1  0.97701100  0.53655500  0.63878900  1
  H  62  1  0.88075500  0.55149300  0.63775900  1
  H  63  1  0.87770500  0.57564800  0.67133200  1
  H  65  1  0.97277000  0.57488400  0.68729400  1
  H  66  1  0.93250000  0.58926200  0.70135400  1
  H  71  1  0.88553400  0.14436700  0.43622800  1
  H  72  1  0.89087000  0.16738400  0.47014400  1
  H  75  1  0.89336900  0.15370900  0.50508700  1
  H  76  1  0.88883900  0.11998800  0.49545400  1
  H  77  1  0.94860300  0.17000500  0.49220300  1
  H  78  1  0.98236600  0.14734400  0.47491100  1
  H  81  1  0.94034000  0.08674200  0.46884600  1
  H  82  1  0.97701700  0.10053400  0.46208300  1
  H  84  1  0.88075900  0.08457300  0.44714700  1
  H  85  1  0.87770900  0.09399800  0.42299700  1
  H  87  1  0.97277500  0.11071900  0.42375900  1
  H  88  1  0.93250400  0.11040600  0.40938500  1
  H  93  1  0.88552900  0.29015700  0.85426100  1
  H  94  1  0.89087300  0.30106200  0.83125200  1
  H  97  1  0.89336600  0.34968400  0.84493600  1
  H  98  1  0.88882800  0.37376600  0.87865800  1
  H  99  1  0.94860600  0.32050800  0.82864600  1
  H  100  1  0.98236100  0.32587600  0.85131100  1
  H  103  1  0.94031100  0.38040300  0.91191100  1
  H  104  1  0.97699600  0.35985700  0.89812200  1
  H  106  1  0.88073400  0.36085800  0.91406500  1
  H  107  1  0.87769300  0.32727900  0.90462600  1
  H  109  1  0.97276400  0.31134000  0.88792500  1
  H  110  1  0.93249400  0.29727300  0.88823100  1
  H  115  1  0.38553100  0.43554300  0.29083700  1
  H  116  1  0.39086600  0.46945800  0.30173700  1
  H  119  1  0.39336200  0.50440100  0.35035300  1
  H  120  1  0.38883000  0.49476900  0.37444100  1
  H  121  1  0.44860100  0.49151700  0.32117700  1
  H  122  1  0.48236100  0.47422300  0.32654700  1
  H  125  1  0.44032700  0.46816200  0.38108400  1
  H  126  1  0.47700700  0.46140000  0.36053200  1
  H  128  1  0.38074800  0.44646100  0.36155000  1
  H  129  1  0.37770300  0.42231100  0.32797400  1
  H  131  1  0.47277000  0.42307500  0.31202200  1
  H  132  1  0.43249900  0.40869900  0.29795900  1
  H  137  1  0.38552300  0.85359400  0.56309500  1
  H  138  1  0.39086100  0.83057700  0.52917900  1
  H  141  1  0.39336200  0.84424500  0.49423500  1
  H  142  1  0.38883000  0.87796400  0.50386400  1
  H  143  1  0.44859900  0.82795200  0.50712100  1
  H  144  1  0.48235800  0.85061700  0.52441500  1
  H  147  1  0.44033000  0.91121300  0.53046800  1
  H  148  1  0.47700700  0.89742500  0.53723500  1
  H  150  1  0.38074800  0.91338500  0.55216800  1
  H  151  1  0.37769700  0.90396500  0.57632200  1
  H  153  1  0.47276400  0.88724600  0.57556400  1
  H  154  1  0.43249300  0.88756000  0.58993700  1
  H  159  1  0.38553100  0.70779900  0.14504900  1
  H  160  1  0.39086400  0.69690000  0.16806400  1
  H  163  1  0.39336200  0.64828300  0.15439000  1
  H  164  1  0.38883200  0.62419600  0.12066900  1
  H  165  1  0.44859600  0.67746100  0.17068700  1
  H  166  1  0.48236100  0.67209000  0.14802400  1
  H  169  1  0.44033200  0.61755500  0.08742200  1
  H  170  1  0.47701000  0.63810900  0.10121500  1
  H  172  1  0.38075400  0.63708700  0.08525300  1
  H  173  1  0.37770500  0.67066100  0.09467800  1
  H  175  1  0.47277200  0.68661700  0.11139900  1
  H  176  1  0.43250100  0.70068000  0.11108500  1
  H  181  1  0.61123700  0.83927000  0.28431400  1
  H  182  1  0.60373700  0.81804300  0.29695900  1
  H  185  1  0.60279300  0.83482500  0.34686700  1
  H  186  1  0.61226700  0.86835600  0.36923500  1
  H  187  1  0.54453600  0.82296300  0.32170900  1
  H  188  1  0.51486800  0.84775700  0.32561500  1
  H  191  1  0.56816000  0.90515800  0.37691700  1
  H  192  1  0.52822500  0.89568300  0.36012800  1
  H  194  1  0.62568900  0.90045500  0.35258900  1
  H  195  1  0.62505200  0.88937900  0.31837100  1
  H  197  1  0.52859300  0.87898300  0.30836300  1
  H  198  1  0.56873100  0.87696300  0.29276300  1
  H  203  1  0.61124200  0.71432200  0.55529900  1
  H  204  1  0.60374700  0.70167500  0.52142500  1
  H  207  1  0.60279800  0.65176900  0.48830300  1
  H  208  1  0.61227200  0.62940100  0.49946700  1
  H  209  1  0.54454700  0.67692800  0.50159300  1
  H  210  1  0.51487400  0.67302400  0.52247900  1
  H  213  1  0.56815500  0.62172200  0.52858500  1
  H  214  1  0.52822300  0.63851200  0.53589600  1
  H  216  1  0.62568600  0.64604900  0.54821300  1
  H  217  1  0.62504700  0.68026800  0.57135500  1
  H  219  1  0.52859000  0.69027400  0.57095700  1
  H  220  1  0.56872800  0.70587600  0.58454100  1
  H  225  1  0.61123400  0.44332800  0.15935400  1
  H  226  1  0.60373900  0.47720200  0.18058400  1
  H  229  1  0.60279000  0.51032800  0.16380500  1
  H  230  1  0.61225900  0.49916700  0.13027300  1
  H  231  1  0.54453900  0.49703700  0.17567300  1
  H  232  1  0.51486300  0.47615100  0.15088300  1
  H  235  1  0.56814400  0.47005200  0.09347700  1
  H  236  1  0.52821000  0.46274000  0.10295500  1
  H  238  1  0.62567300  0.45041800  0.09816900  1
  H  239  1  0.62503700  0.42727800  0.10924700  1
  H  241  1  0.52858000  0.42767400  0.11965200  1
  H  242  1  0.56871800  0.41408900  0.12166700  1
  H  247  1  0.11123300  0.15868400  0.71500800  1
  H  248  1  0.10373600  0.17991100  0.70236200  1
  H  251  1  0.10278700  0.16313000  0.65245600  1
  H  252  1  0.11226100  0.12959800  0.63008600  1
  H  253  1  0.04453300  0.17499400  0.67761600  1
  H  254  1  0.01486300  0.15020200  0.67371200  1
  H  257  1  0.06814900  0.09279800  0.62240700  1
  H  258  1  0.02821700  0.10227300  0.63919600  1
  H  260  1  0.12568000  0.09749700  0.64673300  1
  H  261  1  0.12504600  0.10857500  0.68095100  1
  H  263  1  0.02858700  0.11897400  0.69096100  1
  H  264  1  0.06872500  0.12099200  0.70656100  1
  H  269  1  0.11122800  0.28363500  0.44401900  1
  H  270  1  0.10373100  0.29628100  0.47789300  1
  H  273  1  0.10278900  0.34618800  0.51101800  1
  H  274  1  0.11226300  0.36855600  0.49985400  1
  H  275  1  0.04453300  0.32102900  0.49772200  1
  H  276  1  0.01486300  0.32493600  0.47683700  1
  H  279  1  0.06815100  0.37623800  0.47073600  1
  H  280  1  0.02821700  0.35945000  0.46342400  1
  H  282  1  0.12568000  0.35190900  0.45110800  1
  H  283  1  0.12504100  0.31769100  0.42796500  1
  H  285  1  0.02858200  0.30768700  0.42836100  1
  H  286  1  0.06872000  0.29208400  0.41477600  1
  H  291  1  0.11123800  0.55461900  0.83995200  1
  H  292  1  0.10374100  0.52074400  0.81872500  1
  H  295  1  0.10279200  0.48762400  0.83551200  1
  H  296  1  0.11226900  0.49878900  0.86904400  1
  H  297  1  0.04453800  0.50091600  0.82364600  1
  H  298  1  0.01486800  0.52180500  0.84843900  1
  H  301  1  0.06815400  0.52791100  0.90584300  1
  H  302  1  0.02822200  0.53522300  0.89636600  1
  H  304  1  0.12568500  0.54753700  0.90114300  1
  H  305  1  0.12504900  0.57067500  0.89006200  1
  H  307  1  0.02859000  0.57028200  0.87966200  1
  H  308  1  0.06872700  0.58386400  0.87764200  1
  H  313  1  0.10952000  0.42681900  0.28934000  1
  H  314  1  0.10507100  0.45937700  0.29521100  1
  H  317  1  0.10345400  0.49903300  0.34393800  1
  H  318  1  0.10723000  0.49231300  0.36997600  1
  H  319  1  0.04922200  0.48577500  0.31469500  1
  H  320  1  0.01375400  0.47131100  0.32193400  1
  H  323  1  0.05103400  0.47013400  0.37969400  1
  H  324  1  0.01531600  0.46064600  0.35841200  1
  H  326  1  0.11044300  0.44541500  0.36135300  1
  H  327  1  0.11269600  0.41817300  0.32874200  1
  H  329  1  0.01915700  0.42119400  0.31159800  1
  H  330  1  0.05894900  0.40486200  0.29845900  1
  H  335  1  0.10951500  0.86081800  0.57181200  1
  H  336  1  0.10506900  0.83413500  0.53925200  1
  H  339  1  0.10345200  0.84321900  0.49960100  1
  H  340  1  0.10722800  0.87598100  0.50633200  1
  H  341  1  0.04922200  0.82723000  0.51285500  1
  H  342  1  0.01375200  0.84892900  0.52732100  1
  H  345  1  0.05103200  0.90787600  0.52851700  1
  H  346  1  0.01531600  0.89607900  0.53800100  1
  H  348  1  0.11044300  0.91424700  0.55323200  1
  H  349  1  0.11269900  0.90886900  0.58047000  1
  H  351  1  0.01915500  0.88870500  0.57744500  1
  H  352  1  0.05894300  0.89189200  0.59377500  1
  H  357  1  0.10951200  0.70930100  0.13781700  1
  H  358  1  0.10507400  0.70342800  0.16450200  1
  H  361  1  0.10346200  0.65469400  0.15542200  1
  H  362  1  0.10723600  0.62866100  0.12266200  1
  H  363  1  0.04923200  0.68393600  0.17141600  1
  H  364  1  0.01375700  0.67669900  0.14971700  1
  H  367  1  0.05103400  0.61894600  0.09077200  1
  H  368  1  0.01531600  0.64022700  0.10257200  1
  H  370  1  0.11044000  0.63729100  0.08439300  1
  H  371  1  0.11269100  0.66990500  0.08976800  1
  H  373  1  0.01915000  0.68704300  0.10993800  1
  H  374  1  0.05893800  0.70018700  0.10674800  1
  H  379  1  0.60950800  0.57114700  0.70998100  1
  H  380  1  0.60507200  0.53858800  0.70410900  1
  H  383  1  0.60346300  0.49893300  0.65538000  1
  H  384  1  0.60723400  0.50565600  0.62934300  1
  H  385  1  0.54923000  0.51218100  0.68462000  1
  H  386  1  0.51375500  0.52664100  0.67738200  1
  H  389  1  0.55103000  0.52782700  0.61962500  1
  H  390  1  0.51531200  0.53730700  0.64090400  1
  H  392  1  0.61043300  0.55255600  0.63797000  1
  H  393  1  0.61268100  0.57979600  0.67058100  1
  H  395  1  0.51914500  0.57676100  0.68772000  1
  H  396  1  0.55893100  0.59309800  0.70086300  1
  H  401  1  0.60952900  0.13713600  0.42750200  1
  H  402  1  0.60508000  0.16382300  0.46005900  1
  H  405  1  0.60346000  0.15475000  0.49971400  1
  H  406  1  0.60723400  0.12199100  0.49299400  1
  H  407  1  0.54922800  0.17073500  0.48645600  1
  H  408  1  0.51376000  0.14903200  0.47199000  1
  H  411  1  0.55103700  0.09009600  0.47081400  1
  H  412  1  0.51532200  0.10189000  0.46132600  1
  H  414  1  0.61044900  0.08371800  0.44609600  1
  H  415  1  0.61270500  0.08909000  0.41885600  1
  H  417  1  0.51916600  0.10925000  0.42187200  1
  H  418  1  0.55895700  0.10606000  0.40554200  1
  H  423  1  0.60951500  0.28866000  0.86149400  1
  H  424  1  0.60506900  0.29453800  0.83481200  1
  H  427  1  0.60345500  0.34327300  0.84389800  1
  H  428  1  0.60723100  0.36930300  0.87666000  1
  H  429  1  0.54922300  0.31403200  0.82790800  1
  H  430  1  0.51375200  0.32126500  0.84960700  1
  H  433  1  0.55103500  0.37901400  0.90855500  1
  H  434  1  0.51532000  0.35773200  0.89675500  1
  H  436  1  0.61044600  0.36066600  0.91492400  1
  H  437  1  0.61269700  0.32805000  0.90954400  1
  H  439  1  0.51915600  0.31091400  0.88938100  1
  H  440  1  0.55894400  0.29776900  0.89256800  1
  H  445  1  0.39327600  0.15059200  0.71194800  1
  H  446  1  0.39686700  0.17555000  0.70359400  1
  H  449  1  0.39268900  0.16182600  0.65244000  1
  H  450  1  0.38619300  0.12834900  0.62889700  1
  H  451  1  0.44871300  0.17719700  0.67718800  1
  H  452  1  0.48451200  0.15544600  0.67082700  1
  H  455  1  0.44017800  0.09522900  0.61765800  1
  H  456  1  0.47881700  0.10691300  0.63572700  1
  H  458  1  0.38360100  0.09369800  0.64248600  1
  H  459  1  0.38642500  0.10180400  0.67592300  1
  H  461  1  0.48182600  0.11976900  0.68441200  1
  H  462  1  0.44440500  0.11716800  0.70041300  1
  H  467  1  0.39327600  0.28668700  0.43898200  1
  H  468  1  0.39686400  0.29504100  0.47229400  1
  H  471  1  0.39268700  0.34619500  0.50972500  1
  H  472  1  0.38619300  0.36974000  0.49979300  1
  H  473  1  0.44870800  0.32144800  0.50035100  1
  H  474  1  0.48450900  0.32780900  0.48496200  1
  H  477  1  0.44018100  0.38098100  0.47791600  1
  H  478  1  0.47881900  0.36290900  0.47153200  1
  H  480  1  0.38360400  0.35615200  0.45155300  1
  H  481  1  0.38642800  0.32271600  0.42622300  1
  H  483  1  0.48182600  0.31422500  0.43570000  1
  H  484  1  0.44440500  0.29822500  0.41709700  1
  H  489  1  0.39327100  0.55965700  0.84804600  1
  H  490  1  0.39687200  0.52634400  0.82308800  1
  H  493  1  0.39270200  0.48891600  0.83681400  1
  H  494  1  0.38620100  0.49884700  0.87029000  1
  H  495  1  0.44872400  0.49829900  0.82144900  1
  H  496  1  0.48451700  0.51369600  0.84320200  1
  H  499  1  0.44017800  0.52073700  0.90341600  1
  H  500  1  0.47881700  0.52712700  0.89173400  1
  H  502  1  0.38359600  0.54709000  0.90494100  1
  H  503  1  0.38641500  0.57241900  0.89683200  1
  H  505  1  0.48182100  0.56295500  0.87887800  1
  H  506  1  0.44439500  0.58155400  0.88147400  1
  H  511  1  0.89327400  0.84736400  0.28736600  1
  H  512  1  0.89687300  0.82240900  0.29572400  1
  H  515  1  0.89270500  0.83613700  0.34687800  1
  H  516  1  0.88620500  0.86961400  0.37042200  1
  H  517  1  0.94872600  0.82077100  0.32212800  1
  H  518  1  0.98452000  0.84252400  0.32848500  1
  H  521  1  0.94018100  0.90274000  0.38165400  1
  H  522  1  0.97882000  0.89105700  0.36358300  1
  H  524  1  0.88360000  0.90426300  0.35682700  1
  H  525  1  0.88641800  0.89615300  0.32339000  1
  H  527  1  0.98182200  0.87819700  0.31489700  1
  H  528  1  0.94439700  0.88079400  0.29889600  1
  H  533  1  0.89328200  0.71127300  0.56033400  1
  H  534  1  0.89687400  0.70291900  0.52702100  1
  H  537  1  0.89269600  0.65176500  0.48959200  1
  H  538  1  0.88619700  0.62822100  0.49952400  1
  H  539  1  0.94871900  0.67651100  0.49897000  1
  H  540  1  0.98451700  0.67015000  0.51435900  1
  H  543  1  0.94018000  0.61698000  0.52140600  1
  H  544  1  0.97882000  0.63505000  0.52779000  1
  H  546  1  0.88360500  0.64181000  0.54776500  1
  H  547  1  0.88642800  0.67524600  0.57309600  1
  H  549  1  0.98183000  0.68373400  0.56362000  1
  H  550  1  0.94440900  0.69973600  0.58222300  1
  H  555  1  0.89327200  0.43830400  0.15126900  1
  H  556  1  0.89686000  0.47161500  0.17622900  1
  H  559  1  0.89268800  0.50904600  0.16250700  1
  H  560  1  0.88619700  0.49911700  0.12903000  1
  H  561  1  0.94870800  0.49967100  0.17788100  1
  H  562  1  0.98450900  0.48428100  0.15613200  1
  H  565  1  0.94018700  0.47724000  0.09591400  1
  H  566  1  0.97882300  0.47085300  0.10760400  1
  H  568  1  0.88360800  0.45087700  0.09437500  1
  H  569  1  0.88642900  0.42554600  0.10248100  1
  H  571  1  0.98182600  0.43502000  0.12045300  1
  H  572  1  0.94440200  0.41641700  0.11784800  1
  H  579  1  0.05380900  0.51118000  0.79199500  1
  H  586  1  0.00504700  0.56218600  0.71102800  1
  H  587  1  0.91011000  0.55094300  0.73993000  1
  H  588  1  0.02778100  0.58857800  0.85080500  1
  H  590  1  0.05885700  0.57255300  0.76740200  1
  H  591  1  0.05140400  0.58732200  0.74793400  1
  H  592  1  0.05985600  0.55279600  0.73252000  1
  H  594  1  0.94492900  0.55277600  0.79914700  1
  H  595  1  0.91865500  0.53219200  0.77170700  1
  H  596  1  0.91030300  0.56674700  0.79049500  1
  H  598  1  0.05005900  0.50333900  0.74357300  1
  H  599  1  0.00837700  0.51136800  0.73701000  1
  H  600  1  0.01205400  0.49172400  0.75191900  1
  H  602  1  0.97566600  0.60900300  0.83748600  1
  H  603  1  0.98371200  0.60768000  0.80706000  1
  H  604  1  0.01620500  0.61986300  0.83163700  1
  H  611  1  0.05379300  0.27911400  0.48745600  1
  H  618  1  0.00505500  0.14715300  0.43646800  1
  H  619  1  0.91010500  0.18728100  0.44768200  1
  H  620  1  0.02778100  0.26052900  0.41005500  1
  H  622  1  0.05885200  0.19314900  0.42607300  1
  H  623  1  0.05140700  0.15891400  0.41132000  1
  H  624  1  0.05985900  0.17804000  0.44584400  1
  H  626  1  0.94491300  0.24465300  0.44582200  1
  H  627  1  0.91863500  0.23780600  0.46641000  1
  H  628  1  0.91029600  0.22202300  0.43185400  1
  H  630  1  0.05003500  0.23853400  0.49529800  1
  H  631  1  0.00835100  0.22394300  0.48726400  1
  H  632  1  0.01203300  0.25849600  0.50690900  1
  H  634  1  0.97567200  0.22678100  0.38962400  1
  H  635  1  0.98371700  0.19767900  0.39094700  1
  H  636  1  0.01621300  0.21007500  0.37876900  1
  H  643  1  0.05380100  0.20664300  0.71952900  1
  H  650  1  0.00505200  0.28762000  0.85149200  1
  H  651  1  0.91010800  0.25870200  0.81135600  1
  H  652  1  0.02778600  0.14782800  0.73811600  1
  H  654  1  0.05885500  0.23123300  0.80550000  1
  H  655  1  0.05140700  0.25071200  0.83973500  1
  H  656  1  0.05986100  0.26611200  0.82061200  1
  H  658  1  0.94492500  0.19947200  0.75398600  1
  H  659  1  0.91864700  0.22690600  0.76083100  1
  H  660  1  0.91030400  0.20813300  0.77661300  1
  H  662  1  0.05004800  0.25506400  0.76010900  1
  H  663  1  0.00836700  0.26162400  0.77470100  1
  H  664  1  0.01204400  0.24671400  0.74014800  1
  H  666  1  0.97567600  0.16115000  0.77186800  1
  H  667  1  0.98372300  0.19157300  0.80096800  1
  H  668  1  0.01621900  0.16699800  0.78857100  1
  H  675  1  0.55380900  0.48676800  0.20732100  1
  H  682  1  0.50505600  0.43577800  0.28829300  1
  H  683  1  0.41010900  0.44700500  0.25938300  1
  H  684  1  0.52777900  0.40937200  0.14850500  1
  H  686  1  0.55885500  0.42538800  0.23190600  1
  H  687  1  0.55140500  0.41062900  0.25138200  1
  H  688  1  0.55986200  0.44515300  0.26678700  1
  H  690  1  0.44492200  0.44515400  0.20015600  1
  H  691  1  0.41864600  0.46574100  0.22759400  1
  H  692  1  0.41030200  0.43118600  0.20881500  1
  H  694  1  0.55005700  0.49460800  0.25574100  1
  H  695  1  0.50837300  0.48657800  0.26230200  1
  H  696  1  0.51205500  0.50622500  0.24739400  1
  H  698  1  0.47566400  0.38894500  0.16182600  1
  H  699  1  0.48371100  0.39026500  0.19224800  1
  H  700  1  0.51620600  0.37808500  0.16767200  1
  H  707  1  0.55381700  0.71884400  0.51185900  1
  H  714  1  0.50504500  0.85081500  0.56286600  1
  H  715  1  0.41010900  0.81066500  0.55161600  1
  H  716  1  0.52778200  0.73742700  0.58925600  1
  H  718  1  0.55885500  0.80481000  0.57323300  1
  H  719  1  0.55140300  0.83904600  0.58800300  1
  H  720  1  0.55985700  0.81993500  0.55347800  1
  H  722  1  0.44493000  0.75328200  0.55344900  1
  H  723  1  0.41865900  0.76013600  0.53286400  1
  H  724  1  0.41030400  0.77590200  0.56741800  1
  H  726  1  0.55006700  0.75942500  0.50401800  1
  H  727  1  0.50838300  0.77401700  0.51204700  1
  H  728  1  0.51206300  0.73946200  0.49240000  1
  H  730  1  0.47566100  0.77117100  0.60967800  1
  H  731  1  0.48370600  0.80027400  0.60835800  1
  H  732  1  0.51620100  0.78787800  0.62054000  1
  H  739  1  0.55379600  0.79131400  0.27979300  1
  H  746  1  0.50505300  0.71034100  0.14783200  1
  H  747  1  0.41010300  0.73925900  0.18796100  1
  H  748  1  0.52779000  0.85013100  0.26120900  1
  H  750  1  0.55885300  0.76673000  0.19382800  1
  H  751  1  0.55140800  0.74725000  0.15959300  1
  H  752  1  0.55985900  0.73185100  0.17871900  1
  H  754  1  0.44491400  0.79849000  0.24533400  1
  H  755  1  0.41863600  0.77105700  0.23848800  1
  H  756  1  0.41029600  0.78983000  0.22270400  1
  H  758  1  0.55003600  0.74289200  0.23921300  1
  H  759  1  0.50835200  0.73633700  0.22462400  1
  H  760  1  0.51203400  0.75124500  0.25917700  1
  H  762  1  0.47567700  0.83681600  0.22746000  1
  H  763  1  0.48371900  0.80639000  0.19835800  1
  H  764  1  0.51621900  0.83096200  0.21075400  1
  H  771  1  0.98405000  0.48633400  0.19844800  1
  H  778  1  0.98825200  0.43607200  0.28708400  1
  H  779  1  0.08607100  0.42876700  0.25196700  1
  H  780  1  0.94266300  0.40980600  0.15334800  1
  H  782  1  0.93557900  0.43298600  0.23327000  1
  H  783  1  0.93619300  0.41893000  0.25383200  1
  H  784  1  0.94060900  0.45371300  0.26770500  1
  H  786  1  0.05346500  0.41879200  0.18839500  1
  H  787  1  0.08384400  0.43967800  0.21272700  1
  H  788  1  0.08391500  0.40500500  0.20059200  1
  H  790  1  0.99433000  0.50028000  0.24676500  1
  H  791  1  0.02172900  0.47885800  0.25136000  1
  H  792  1  0.03491300  0.49042600  0.22998700  1
  H  794  1  0.97795500  0.37459700  0.15982600  1
  H  795  1  0.98058000  0.38318400  0.19334200  1
  H  796  1  0.93982200  0.38391000  0.17974300  1
  H  803  1  0.98407600  0.71041200  0.51231000  1
  H  810  1  0.98824800  0.84930800  0.56255200  1
  H  811  1  0.08607100  0.82151500  0.56988100  1
  H  812  1  0.94266500  0.74184600  0.58883100  1
  H  814  1  0.93558200  0.79857800  0.56564500  1
  H  815  1  0.93619100  0.83319700  0.57969600  1
  H  816  1  0.94061000  0.81228300  0.54491400  1
  H  818  1  0.05346700  0.76792300  0.57986900  1
  H  819  1  0.08385500  0.77136700  0.55898700  1
  H  820  1  0.08391000  0.79391500  0.59365800  1
  H  822  1  0.99436200  0.74477800  0.49835900  1
  H  823  1  0.02175500  0.77080000  0.51978500  1
  H  824  1  0.03494200  0.73786000  0.50822300  1
  H  826  1  0.97794600  0.78353800  0.62404300  1
  H  827  1  0.98057500  0.80846500  0.61545200  1
  H  828  1  0.93981700  0.79413700  0.61472200  1
  H  835  1  0.98407800  0.80020900  0.28822600  1
  H  842  1  0.98824800  0.71154800  0.14933500  1
  H  843  1  0.08607100  0.74667500  0.17712200  1
  H  844  1  0.94265600  0.84529100  0.25678900  1
  H  846  1  0.93558000  0.76537300  0.20006100  1
  H  847  1  0.93618800  0.74480000  0.16544200  1
  H  848  1  0.94061200  0.73093700  0.18636200  1
  H  850  1  0.05346500  0.81025600  0.23071000  1
  H  851  1  0.08385500  0.78593200  0.22726800  1
  H  852  1  0.08390400  0.79805200  0.20471800  1
  H  854  1  0.99437000  0.75189300  0.25386300  1
  H  855  1  0.02176300  0.74729600  0.22784000  1
  H  856  1  0.03494700  0.76867800  0.26078000  1
  H  858  1  0.97793600  0.83881100  0.21509600  1
  H  859  1  0.98056900  0.80529300  0.19017100  1
  H  860  1  0.93980900  0.81888700  0.20449700  1
  H  867  1  0.48406600  0.51163800  0.80088300  1
  H  874  1  0.48824100  0.56187400  0.71222900  1
  H  875  1  0.58606400  0.56921000  0.74735500  1
  H  876  1  0.44265600  0.58816000  0.84597300  1
  H  878  1  0.43557300  0.56497100  0.76605100  1
  H  879  1  0.43618100  0.57901900  0.74548100  1
  H  880  1  0.44060300  0.54423600  0.73161600  1
  H  882  1  0.55346000  0.57919800  0.81093300  1
  H  883  1  0.58384800  0.55831500  0.78660800  1
  H  884  1  0.58390300  0.59298400  0.79872900  1
  H  886  1  0.49434800  0.49768700  0.75256600  1
  H  887  1  0.52174500  0.51911300  0.74797100  1
  H  888  1  0.53493200  0.50754900  0.76934800  1
  H  890  1  0.47793300  0.62337200  0.83949100  1
  H  891  1  0.48056100  0.61478000  0.80597300  1
  H  892  1  0.43980500  0.61404800  0.81956900  1
  H  899  1  0.48405600  0.28754600  0.48701600  1
  H  906  1  0.48825900  0.14864500  0.43675200  1
  H  907  1  0.58608000  0.17645800  0.42945100  1
  H  908  1  0.44266900  0.25611500  0.41048700  1
  H  910  1  0.43558600  0.19937600  0.43367000  1
  H  911  1  0.43620200  0.16475600  0.41961100  1
  H  912  1  0.44061600  0.18566400  0.45439400  1
  H  914  1  0.55347600  0.23005800  0.41947900  1
  H  915  1  0.58385600  0.22660900  0.44036200  1
  H  916  1  0.58392600  0.20407200  0.40569100  1
  H  918  1  0.49433800  0.25317700  0.50096400  1
  H  919  1  0.52173700  0.22715800  0.47954100  1
  H  920  1  0.53492200  0.26010100  0.49110800  1
  H  922  1  0.47796400  0.21442800  0.37527800  1
  H  923  1  0.48059000  0.18950000  0.38386700  1
  H  924  1  0.43983100  0.20382200  0.38459000  1
  H  931  1  0.48406900  0.19775700  0.71108800  1
  H  938  1  0.48824600  0.28641300  0.84998400  1
  H  939  1  0.58607000  0.25128900  0.82219000  1
  H  940  1  0.44266100  0.15267000  0.74252400  1
  H  942  1  0.43557800  0.23259000  0.79925600  1
  H  943  1  0.43618800  0.25315900  0.83387400  1
  H  944  1  0.44060900  0.26702400  0.81295800  1
  H  946  1  0.55346300  0.18770900  0.76859900  1
  H  947  1  0.58385300  0.21203400  0.77204200  1
  H  948  1  0.58390500  0.19991200  0.79459000  1
  H  950  1  0.49435600  0.24607400  0.74545400  1
  H  951  1  0.52175000  0.25067100  0.77147600  1
  H  952  1  0.53493700  0.22929100  0.73853500  1
  H  954  1  0.47794300  0.15915000  0.78421500  1
  H  955  1  0.48056900  0.19266800  0.80914200  1
  H  956  1  0.43981300  0.17907200  0.79481600  1
  H  963  1  0.83408900  0.49451600  0.63468600  1
  H  970  1  0.66628300  0.55999300  0.64859000  1
  H  971  1  0.65485800  0.51466500  0.68581000  1
  H  972  1  0.83372200  0.57273500  0.69816200  1
  H  974  1  0.76043900  0.55524100  0.64111000  1
  H  975  1  0.72852600  0.58036100  0.65328600  1
  H  976  1  0.72279500  0.55095300  0.62230500  1
  H  978  1  0.74855700  0.50588400  0.69251300  1
  H  979  1  0.71057700  0.48631100  0.68149100  1
  H  980  1  0.71099000  0.51619200  0.71251100  1
  H  982  1  0.77506300  0.48144800  0.60897300  1
  H  983  1  0.73954700  0.48498900  0.62958900  1
  H  984  1  0.77708800  0.46808400  0.63044000  1
  H  986  1  0.77928300  0.58433100  0.72813900  1
  H  987  1  0.73978400  0.57773200  0.71074800  1
  H  988  1  0.77237600  0.59612900  0.70569900  1
  H  995  1  0.83410100  0.13847600  0.50413300  1
  H  1002  1  0.66629600  0.08690500  0.43866400  1
  H  1003  1  0.65486100  0.16945200  0.48398900  1
  H  1004  1  0.83372600  0.12374200  0.42591900  1
  H  1006  1  0.76045400  0.08418300  0.44342000  1
  H  1007  1  0.72854200  0.07123600  0.41829900  1
  H  1008  1  0.72281000  0.06966400  0.44770600  1
  H  1010  1  0.74856000  0.18494000  0.49277300  1
  H  1011  1  0.71058000  0.19349200  0.51234500  1
  H  1012  1  0.71099200  0.19462900  0.48246300  1
  H  1014  1  0.77507400  0.12583100  0.51720400  1
  H  1015  1  0.73956000  0.14291100  0.51366800  1
  H  1016  1  0.77710500  0.16066300  0.53057100  1
  H  1018  1  0.77928600  0.14212400  0.41432600  1
  H  1019  1  0.73978800  0.13133200  0.42092800  1
  H  1020  1  0.77237700  0.10788700  0.40252700  1
  H  1027  1  0.83409300  0.36396000  0.86016600  1
  H  1034  1  0.66629300  0.35004900  0.91173200  1
  H  1035  1  0.65485100  0.31284200  0.82918600  1
  H  1036  1  0.83371500  0.30046400  0.87487800  1
  H  1038  1  0.76044900  0.35752700  0.91445000  1
  H  1039  1  0.72853900  0.34534900  0.92739500  1
  H  1040  1  0.72280800  0.37633200  0.92897400  1
  H  1042  1  0.74854700  0.30614400  0.81369300  1
  H  1043  1  0.71056200  0.31716700  0.80514800  1
  H  1044  1  0.71097900  0.28614300  0.80400200  1
  H  1046  1  0.77506700  0.38967500  0.87281700  1
  H  1047  1  0.73955300  0.36906100  0.85573200  1
  H  1048  1  0.77709700  0.36821900  0.83798300  1
  H  1050  1  0.77927400  0.27049200  0.85649100  1
  H  1051  1  0.73977700  0.28788700  0.86728800  1
  H  1052  1  0.77236700  0.29292400  0.89073000  1
  H  1059  1  0.33409400  0.50344900  0.36463000  1
  H  1066  1  0.16629000  0.43798200  0.35073400  1
  H  1067  1  0.15485500  0.48330400  0.31350900  1
  H  1068  1  0.33372100  0.42523300  0.30115200  1
  H  1070  1  0.26044700  0.44273500  0.35820900  1
  H  1071  1  0.22853300  0.41761500  0.34603600  1
  H  1072  1  0.22280400  0.44702300  0.37701600  1
  H  1074  1  0.24855600  0.49208700  0.30680300  1
  H  1075  1  0.21057400  0.51165900  0.31782400  1
  H  1076  1  0.21098600  0.48177600  0.28680400  1
  H  1078  1  0.27506600  0.51652000  0.39034300  1
  H  1079  1  0.23955400  0.51298400  0.36972600  1
  H  1080  1  0.27710000  0.52988800  0.36887900  1
  H  1082  1  0.27928200  0.41364000  0.27117500  1
  H  1083  1  0.23978300  0.42024300  0.28856800  1
  H  1084  1  0.27237200  0.40184200  0.29361500  1
  H  1091  1  0.33409400  0.85947900  0.49518500  1
  H  1098  1  0.16629000  0.91105500  0.56065200  1
  H  1099  1  0.15485200  0.82850900  0.51532600  1
  H  1100  1  0.33371300  0.87421800  0.57340100  1
  H  1102  1  0.26044700  0.91377600  0.55589400  1
  H  1103  1  0.22853600  0.92672300  0.58101500  1
  H  1104  1  0.22280400  0.92829500  0.55160900  1
  H  1106  1  0.24854800  0.81301800  0.50653800  1
  H  1107  1  0.21056600  0.80446900  0.48696700  1
  H  1108  1  0.21098100  0.80333000  0.51684800  1
  H  1110  1  0.27507100  0.87212300  0.48211100  1
  H  1111  1  0.23955400  0.85504400  0.48564700  1
  H  1112  1  0.27709700  0.83729200  0.46874500  1
  H  1114  1  0.27927200  0.85583700  0.58499300  1
  H  1115  1  0.23977500  0.86662800  0.57838900  1
  H  1116  1  0.27236400  0.89007300  0.59678800  1
  H  1123  1  0.33409100  0.63400200  0.13915400  1
  H  1130  1  0.16628700  0.64790800  0.08758000  1
  H  1131  1  0.15485500  0.68512500  0.17012600  1
  H  1132  1  0.33372100  0.69748500  0.12442200  1
  H  1134  1  0.26044400  0.64042500  0.08485600  1
  H  1135  1  0.22853300  0.65260000  0.07191000  1
  H  1136  1  0.22280200  0.62162100  0.07033700  1
  H  1138  1  0.24855300  0.69182200  0.18561500  1
  H  1139  1  0.21057200  0.68080000  0.19416200  1
  H  1140  1  0.21098900  0.71182200  0.19530500  1
  H  1142  1  0.27506600  0.60828700  0.12650300  1
  H  1143  1  0.23955100  0.62890200  0.14358100  1
  H  1144  1  0.27709200  0.62975000  0.16133500  1
  H  1146  1  0.27928200  0.72745900  0.14280100  1
  H  1147  1  0.23978300  0.71006500  0.13200600  1
  H  1148  1  0.27237700  0.70502200  0.10856300  1
  H  1155  1  0.66460900  0.84804300  0.35949600  1
  H  1162  1  0.82985500  0.89822400  0.34157000  1
  H  1163  1  0.84564000  0.81720500  0.31357700  1
  H  1164  1  0.66556300  0.85516400  0.29130900  1
  H  1166  1  0.73545800  0.89860500  0.34604000  1
  H  1167  1  0.76743500  0.91008000  0.33246700  1
  H  1168  1  0.77180100  0.91571600  0.36520900  1
  H  1170  1  0.75286000  0.79866600  0.30455900  1
  H  1171  1  0.79024900  0.79343000  0.31891700  1
  H  1172  1  0.79187100  0.78843200  0.28627500  1
  H  1174  1  0.72333400  0.86315700  0.38535400  1
  H  1175  1  0.75902300  0.84479000  0.36587700  1
  H  1176  1  0.72148800  0.82801900  0.36696200  1
  H  1178  1  0.71997600  0.83415900  0.26174100  1
  H  1179  1  0.75946700  0.84591400  0.27893000  1
  H  1180  1  0.72722000  0.86877400  0.28165400  1
  H  1187  1  0.66460900  0.63914900  0.48888600  1
  H  1194  1  0.82986000  0.65706600  0.55698800  1
  H  1195  1  0.84563800  0.68507200  0.50397200  1
  H  1196  1  0.66556300  0.70732500  0.56420400  1
  H  1198  1  0.73546300  0.65259400  0.55290000  1
  H  1199  1  0.76744000  0.66616400  0.57794600  1
  H  1200  1  0.77180700  0.63342400  0.55083700  1
  H  1202  1  0.75285600  0.69409300  0.49445600  1
  H  1203  1  0.79024400  0.67973800  0.47486100  1
  H  1204  1  0.79186800  0.71237600  0.50250600  1
  H  1206  1  0.72333700  0.61329200  0.47812900  1
  H  1207  1  0.75902400  0.63277500  0.47924600  1
  H  1208  1  0.72148800  0.63169600  0.46139500  1
  H  1210  1  0.71997000  0.73689800  0.57276800  1
  H  1211  1  0.75946700  0.71971100  0.56732800  1
  H  1212  1  0.72722500  0.71698100  0.58746300  1
  H  1219  1  0.66460100  0.50974100  0.15059000  1
  H  1226  1  0.82986000  0.44164500  0.10040600  1
  H  1227  1  0.84562700  0.49466500  0.18142800  1
  H  1228  1  0.66555800  0.43442600  0.14345300  1
  H  1230  1  0.73546000  0.44571600  0.10001600  1
  H  1231  1  0.76744500  0.42067600  0.08854400  1
  H  1232  1  0.77180300  0.44778400  0.08291100  1
  H  1234  1  0.75284500  0.50416700  0.19995900  1
  H  1235  1  0.79022700  0.52376800  0.20520200  1
  H  1236  1  0.79185900  0.49612300  0.21019400  1
  H  1238  1  0.72332400  0.52049300  0.13548400  1
  H  1239  1  0.75901600  0.51937600  0.15384500  1
  H  1240  1  0.72148300  0.53722900  0.17061900  1
  H  1242  1  0.71996800  0.42586100  0.16445800  1
  H  1243  1  0.75946100  0.43129600  0.15270300  1
  H  1244  1  0.72721500  0.41116100  0.12984200  1
  H  1251  1  0.16460300  0.14990900  0.63982400  1
  H  1258  1  0.32985600  0.09973200  0.65774700  1
  H  1259  1  0.34563000  0.18075100  0.68574200  1
  H  1260  1  0.16556000  0.14278600  0.70801000  1
  H  1262  1  0.23545700  0.09934500  0.65327800  1
  H  1263  1  0.26743800  0.08787100  0.66684700  1
  H  1264  1  0.27180300  0.08223700  0.63410800  1
  H  1266  1  0.25285000  0.19928500  0.69476100  1
  H  1267  1  0.29023700  0.20452400  0.68040500  1
  H  1268  1  0.29185900  0.20952100  0.71304300  1
  H  1270  1  0.22332600  0.13479600  0.61396400  1
  H  1271  1  0.25901800  0.15316000  0.63344100  1
  H  1272  1  0.22148200  0.16993100  0.63235700  1
  H  1274  1  0.21997200  0.16379100  0.73757700  1
  H  1275  1  0.25946400  0.15203400  0.72038700  1
  H  1276  1  0.22721700  0.12917400  0.71766200  1
  H  1283  1  0.16460800  0.35881800  0.51042400  1
  H  1290  1  0.32985900  0.34088200  0.44231600  1
  H  1291  1  0.34562800  0.31289300  0.49534700  1
  H  1292  1  0.16555200  0.29062800  0.43511600  1
  H  1294  1  0.23546000  0.34534800  0.44639200  1
  H  1295  1  0.26744300  0.33177500  0.42135000  1
  H  1296  1  0.27180300  0.36451900  0.44845500  1
  H  1298  1  0.25284500  0.30387200  0.50485600  1
  H  1299  1  0.29022900  0.31823100  0.52445400  1
  H  1300  1  0.29185900  0.28559000  0.49681100  1
  H  1302  1  0.22333100  0.38467300  0.52116400  1
  H  1303  1  0.25902300  0.36519500  0.52005100  1
  H  1304  1  0.22149000  0.36628200  0.53791000  1
  H  1306  1  0.21996500  0.26105700  0.42655100  1
  H  1307  1  0.25945600  0.27824700  0.43198200  1
  H  1308  1  0.22720900  0.28097000  0.41184800  1
  H  1315  1  0.16460500  0.48820800  0.84871600  1
  H  1322  1  0.32985100  0.55631300  0.89890100  1
  H  1323  1  0.34563800  0.50329000  0.81788200  1
  H  1324  1  0.16556200  0.56352200  0.85585000  1
  H  1326  1  0.23545400  0.55222800  0.89928200  1
  H  1327  1  0.26743300  0.57727300  0.91075500  1
  H  1328  1  0.27179500  0.55016900  0.91639300  1
  H  1330  1  0.25285800  0.49377700  0.79934200  1
  H  1331  1  0.29024500  0.47418000  0.79410200  1
  H  1332  1  0.29187200  0.50182500  0.78910900  1
  H  1334  1  0.22333400  0.47745400  0.86381900  1
  H  1335  1  0.25902000  0.47856800  0.84545100  1
  H  1336  1  0.22148200  0.46071700  0.82868200  1
  H  1338  1  0.21997000  0.57208200  0.83483800  1
  H  1339  1  0.25946400  0.56664500  0.84658700  1
  H  1340  1  0.22722400  0.58678200  0.86945300  1
  H  1347  1  0.99084600  0.47867600  0.64644400  1
  H  1354  1  0.07558600  0.40492500  0.51635400  1
  H  1355  1  0.00378500  0.35333200  0.52157700  1
  H  1356  1  0.92841800  0.48511000  0.59074200  1
  H  1358  1  0.04148500  0.46630900  0.57229000  1
  H  1359  1  0.05293300  0.45402600  0.53888100  1
  H  1360  1  0.08177100  0.45022200  0.56057400  1
  H  1362  1  0.95447900  0.40328400  0.57810200  1
  H  1363  1  0.97472800  0.37259900  0.56795000  1
  H  1364  1  0.94644400  0.37656000  0.54606900  1
  H  1366  1  0.04902900  0.45317500  0.62657800  1
  H  1367  1  0.04196500  0.42141500  0.59912200  1
  H  1368  1  0.01797100  0.43155400  0.62838800  1
  H  1370  1  0.92411000  0.44075200  0.54535200  1
  H  1371  1  0.96538400  0.42856000  0.53143300  1
  H  1372  1  0.95529600  0.46208600  0.54317300  1
  H  1379  1  0.99084100  0.16607500  0.51997700  1
  H  1386  1  0.07558300  0.10973000  0.59372000  1
  H  1387  1  0.00378000  0.16654200  0.64531400  1
  H  1388  1  0.92843000  0.10392200  0.51352400  1
  H  1390  1  0.04148500  0.10428800  0.53234000  1
  H  1391  1  0.05293300  0.08315900  0.54461800  1
  H  1392  1  0.08177100  0.10865800  0.54842600  1
  H  1394  1  0.95447100  0.17311500  0.59536300  1
  H  1395  1  0.97472100  0.19364900  0.62604700  1
  H  1396  1  0.94643900  0.16780600  0.62208900  1
  H  1398  1  0.04901600  0.17172300  0.54549000  1
  H  1399  1  0.04194400  0.17602200  0.57724700  1
  H  1400  1  0.01794500  0.19514600  0.56710700  1
  H  1402  1  0.92411000  0.10289100  0.55788200  1
  H  1403  1  0.96538000  0.10117400  0.57008400  1
  H  1404  1  0.95530700  0.07938400  0.53655600  1
  H  1411  1  0.99084000  0.35221300  0.83258500  1
  H  1418  1  0.07558800  0.48229200  0.88891600  1
  H  1419  1  0.00377700  0.47707500  0.83210900  1
  H  1420  1  0.92842000  0.40790800  0.89473400  1
  H  1422  1  0.04147400  0.42637200  0.89438100  1
  H  1423  1  0.05293300  0.45977800  0.91550100  1
  H  1424  1  0.08176300  0.43807700  0.89000100  1
  H  1426  1  0.95445400  0.42056400  0.82555500  1
  H  1427  1  0.97470400  0.43070400  0.80501200  1
  H  1428  1  0.94643100  0.45259700  0.83085900  1
  H  1430  1  0.04901600  0.37208000  0.82694200  1
  H  1431  1  0.04194600  0.39953800  0.82264500  1
  H  1432  1  0.01794700  0.37027500  0.80351900  1
  H  1434  1  0.92410300  0.45330000  0.89576800  1
  H  1435  1  0.96537400  0.46722000  0.89749000  1
  H  1436  1  0.95529500  0.45548000  0.91927800  1
  H  1443  1  0.49084900  0.51928300  0.35288200  1
  H  1450  1  0.57559200  0.59303300  0.48296800  1
  H  1451  1  0.50378800  0.64462500  0.47774700  1
  H  1452  1  0.42842000  0.51284400  0.40858000  1
  H  1454  1  0.54148000  0.53164700  0.42704200  1
  H  1455  1  0.55293300  0.54393400  0.46044900  1
  H  1456  1  0.58176900  0.54773300  0.43875200  1
  H  1458  1  0.45447100  0.59467000  0.42122900  1
  H  1459  1  0.47472000  0.62535300  0.43137500  1
  H  1460  1  0.44644200  0.62139800  0.45326300  1
  H  1462  1  0.54903200  0.54478500  0.37275000  1
  H  1463  1  0.54196500  0.57654400  0.40020600  1
  H  1464  1  0.51797400  0.56640700  0.37094200  1
  H  1466  1  0.42411000  0.55720100  0.45397200  1
  H  1467  1  0.46538200  0.56939200  0.46789000  1
  H  1468  1  0.45529500  0.53586600  0.45615000  1
  H  1475  1  0.49084900  0.83189100  0.47935500  1
  H  1482  1  0.57559200  0.88822700  0.40560400  1
  H  1483  1  0.50378800  0.83141400  0.35401000  1
  H  1484  1  0.42842000  0.89402700  0.48578800  1
  H  1486  1  0.54149100  0.89367700  0.46698700  1
  H  1487  1  0.55293800  0.91480200  0.45470500  1
  H  1488  1  0.58177700  0.88930400  0.45090000  1
  H  1490  1  0.45447900  0.82484200  0.40396300  1
  H  1491  1  0.47472800  0.80430800  0.37327800  1
  H  1492  1  0.44644500  0.83015100  0.37723900  1
  H  1494  1  0.54903200  0.82625400  0.45385300  1
  H  1495  1  0.54196800  0.82195000  0.42209200  1
  H  1496  1  0.51797400  0.80282400  0.43223100  1
  H  1498  1  0.42411200  0.89505800  0.44143100  1
  H  1499  1  0.46538700  0.89678500  0.42923900  1
  H  1500  1  0.45529800  0.91857200  0.46276600  1
  H  1507  1  0.49083300  0.64575700  0.16675700  1
  H  1514  1  0.57558100  0.51567200  0.11041100  1
  H  1515  1  0.50378000  0.52088500  0.16722200  1
  H  1516  1  0.42842000  0.59005700  0.10460500  1
  H  1518  1  0.54147200  0.57160600  0.10496400  1
  H  1519  1  0.55292300  0.53819900  0.08383800  1
  H  1520  1  0.58176200  0.55989200  0.10933600  1
  H  1522  1  0.45446100  0.57740600  0.17379300  1
  H  1523  1  0.47471200  0.56725700  0.19432800  1
  H  1524  1  0.44643400  0.54537200  0.16848400  1
  H  1526  1  0.54900900  0.62589200  0.17240300  1
  H  1527  1  0.54193900  0.59843400  0.17670300  1
  H  1528  1  0.51794000  0.62769700  0.19582600  1
  H  1530  1  0.42410200  0.54466700  0.10357200  1
  H  1531  1  0.46537100  0.53074900  0.10185400  1
  H  1532  1  0.45529500  0.54248600  0.08006500  1
  H  1539  1  0.00514900  0.51571400  0.34560600  1
  H  1546  1  0.92288700  0.59112100  0.47736200  1
  H  1547  1  0.98861600  0.64432300  0.46940500  1
  H  1548  1  0.06825800  0.51423800  0.40369700  1
  H  1550  1  0.95523000  0.53064000  0.41932300  1
  H  1551  1  0.94755200  0.54232500  0.45322100  1
  H  1552  1  0.91527500  0.54596900  0.43344100  1
  H  1554  1  0.03545000  0.59544400  0.41052700  1
  H  1555  1  0.01395200  0.62590600  0.42201200  1
  H  1556  1  0.04517200  0.62204700  0.44231700  1
  H  1558  1  0.94641800  0.54106900  0.36458800  1
  H  1559  1  0.95317500  0.57372800  0.39057700  1
  H  1560  1  0.97674900  0.56199800  0.36088200  1
  H  1562  1  0.07255300  0.56012400  0.44719000  1
  H  1563  1  0.03141600  0.57292000  0.46088600  1
  H  1564  1  0.04154200  0.53984500  0.45128400  1
  H  1571  1  0.00517200  0.82819100  0.48291100  1
  H  1578  1  0.92289700  0.88455500  0.40752000  1
  H  1579  1  0.98862900  0.82340000  0.35431300  1
  H  1580  1  0.06825300  0.88778700  0.48441600  1
  H  1582  1  0.95524100  0.88699000  0.46799700  1
  H  1583  1  0.94756000  0.90920500  0.45631700  1
  H  1584  1  0.91528600  0.88577900  0.45266700  1
  H  1586  1  0.03547400  0.81340200  0.40318800  1
  H  1587  1  0.01397100  0.79442400  0.37272800  1
  H  1588  1  0.04518800  0.81859000  0.37658500  1
  H  1590  1  0.94644900  0.82180000  0.45754000  1
  H  1591  1  0.95321600  0.81514100  0.42488500  1
  H  1592  1  0.97679900  0.79717900  0.43661500  1
  H  1594  1  0.07256100  0.88539700  0.43853100  1
  H  1595  1  0.03142900  0.88628300  0.42572200  1
  H  1596  1  0.04153700  0.90976100  0.45880000  1
  H  1603  1  0.00518000  0.65302800  0.17045500  1
  H  1610  1  0.92289100  0.52128400  0.11410200  1
  H  1611  1  0.98862900  0.52922600  0.17525000  1
  H  1612  1  0.06826300  0.59493700  0.11086300  1
  H  1614  1  0.95525700  0.57931300  0.11165200  1
  H  1615  1  0.94756400  0.54541800  0.08944300  1
  H  1616  1  0.91529600  0.56520500  0.11286800  1
  H  1618  1  0.03549500  0.58808800  0.18523600  1
  H  1619  1  0.01399200  0.57661000  0.20421900  1
  H  1620  1  0.04519800  0.55629400  0.18004600  1
  H  1622  1  0.94645700  0.63404900  0.17684300  1
  H  1623  1  0.95322100  0.60805400  0.18350500  1
  H  1624  1  0.97680400  0.63774700  0.20146600  1
  H  1626  1  0.07256900  0.55144100  0.11325300  1
  H  1627  1  0.03143500  0.53774700  0.11236300  1
  H  1628  1  0.04154500  0.54734800  0.08888700  1
  H  1635  1  0.50516300  0.48223800  0.65370800  1
  H  1642  1  0.42288700  0.40683800  0.52195800  1
  H  1643  1  0.48862200  0.35363700  0.52990800  1
  H  1644  1  0.56826400  0.48372500  0.59562000  1
  H  1646  1  0.45524800  0.46732000  0.57998700  1
  H  1647  1  0.44755600  0.45563200  0.54609100  1
  H  1648  1  0.41528800  0.45199500  0.56587900  1
  H  1650  1  0.53548000  0.40251500  0.58877400  1
  H  1651  1  0.51397900  0.37205400  0.57729300  1
  H  1652  1  0.54518800  0.37591000  0.55698100  1
  H  1654  1  0.44643200  0.45688100  0.63472400  1
  H  1655  1  0.45319100  0.42422300  0.60873200  1
  H  1656  1  0.47676500  0.43595200  0.63842800  1
  H  1658  1  0.57256200  0.43784200  0.55212400  1
  H  1659  1  0.53142500  0.42504400  0.53842800  1
  H  1660  1  0.54154800  0.45812100  0.54803200  1
  H  1667  1  0.50515200  0.16976300  0.51639200  1
  H  1674  1  0.42288400  0.11341300  0.59179800  1
  H  1675  1  0.48861100  0.17457200  0.64500000  1
  H  1676  1  0.56825900  0.11019600  0.51491700  1
  H  1678  1  0.45523000  0.11097000  0.53131700  1
  H  1679  1  0.44755000  0.08875900  0.54300200  1
  H  1680  1  0.41527500  0.11218100  0.54664500  1
  H  1682  1  0.53544900  0.18457100  0.59612200  1
  H  1683  1  0.51394800  0.20354900  0.62658400  1
  H  1684  1  0.54517000  0.17938500  0.62272500  1
  H  1686  1  0.44641900  0.17613400  0.54174600  1
  H  1687  1  0.45317300  0.18280500  0.57440600  1
  H  1688  1  0.47674900  0.20077100  0.56267700  1
  H  1690  1  0.57255400  0.11259000  0.56080400  1
  H  1691  1  0.53141400  0.11168900  0.57359800  1
  H  1692  1  0.54154300  0.08821500  0.54052300  1
  H  1699  1  0.50517600  0.34493900  0.82887000  1
  H  1706  1  0.42289400  0.47668900  0.88523100  1
  H  1707  1  0.48863700  0.46874800  0.82408500  1
  H  1708  1  0.56825600  0.40302800  0.88847000  1
  H  1710  1  0.45525100  0.41865400  0.88767500  1
  H  1711  1  0.44755800  0.45255000  0.90988600  1
  H  1712  1  0.41529300  0.43276500  0.88645700  1
  H  1714  1  0.53549800  0.40988400  0.81409700  1
  H  1715  1  0.51400000  0.42136400  0.79511500  1
  H  1716  1  0.54520700  0.44167600  0.81928700  1
  H  1718  1  0.44645500  0.36392200  0.82248000  1
  H  1719  1  0.45322500  0.38991800  0.81582000  1
  H  1720  1  0.47680600  0.36022700  0.79785900  1
  H  1722  1  0.57256900  0.44652400  0.88608300  1
  H  1723  1  0.53143500  0.46022100  0.88697200  1
  H  1724  1  0.54154300  0.45061700  0.91044600  1
  H  1731  1  0.97273800  0.67971300  0.60365300  1
  H  1738  1  0.98767000  0.56758100  0.63024300  1
  H  1739  1  0.90012600  0.61085400  0.67298600  1
  H  1740  1  0.91424100  0.61215200  0.55316900  1
  H  1742  1  0.00882800  0.60756600  0.60004700  1
  H  1743  1  0.00210300  0.57366400  0.58917500  1
  H  1744  1  0.02936700  0.59326700  0.61681400  1
  H  1746  1  0.90138500  0.65860700  0.64931700  1
  H  1747  1  0.89688100  0.65814700  0.67911100  1
  H  1748  1  0.87086900  0.63695600  0.65123900  1
  H  1750  1  0.01082100  0.67270100  0.63750500  1
  H  1751  1  0.98507600  0.66320600  0.65640500  1
  H  1752  1  0.97228200  0.69051700  0.65322900  1
  H  1754  1  0.88314500  0.59056200  0.57653600  1
  H  1755  1  0.91129100  0.58238400  0.59509300  1
  H  1756  1  0.92228100  0.57292000  0.56222900  1
  H  1760  1  0.97273700  0.92224900  0.31892200  1
  H  1767  1  0.98768300  0.06097100  0.43104400  1
  H  1768  1  0.90011700  0.06044000  0.38778900  1
  H  1769  1  0.91423400  0.93932900  0.38648200  1
  H  1771  1  0.00212100  0.01382100  0.42496000  1
  H  1772  1  0.02937700  0.02185500  0.40535300  1
  H  1774  1  0.89686600  0.01927500  0.34049600  1
  H  1775  1  0.87086400  0.01258800  0.36169000  1
  H  1776  1  0.91130400  0.01102100  0.41625600  1
  H  1783  1  0.97272100  0.39498200  0.07639800  1
  H  1790  1  0.98771700  0.36829200  0.93764600  1
  H  1791  1  0.90003400  0.32570200  0.93823200  1
  H  1792  1  0.91426600  0.44548000  0.05931700  1
  H  1794  1  0.00886700  0.39852400  0.00783200  1
  H  1795  1  0.00219900  0.40937200  0.98478000  1
  H  1796  1  0.02940100  0.38170800  0.97676600  1
  H  1798  1  0.90131200  0.34938500  0.00965500  1
  H  1799  1  0.89674900  0.31959200  0.97940600  1
  H  1800  1  0.87080500  0.34750000  0.98609300  1
  H  1802  1  0.01078900  0.36110900  0.03553600  1
  H  1803  1  0.98504200  0.34222300  0.00714200  1
  H  1804  1  0.97223200  0.34540400  0.03762800  1
  H  1806  1  0.88318900  0.42211900  0.01434800  1
  H  1807  1  0.91135700  0.40357200  0.98762200  1
  H  1808  1  0.92233500  0.43643300  0.01103800  1
  H  1815  1  0.47273300  0.31824600  0.39566500  1
  H  1822  1  0.48768600  0.43035300  0.36903900  1
  H  1823  1  0.40009200  0.38711300  0.32635000  1
  H  1824  1  0.41424700  0.38581300  0.44615400  1
  H  1826  1  0.50883900  0.39038000  0.39925000  1
  H  1827  1  0.50213500  0.42428200  0.41011300  1
  H  1828  1  0.52937800  0.40466200  0.38246700  1
  H  1830  1  0.40135700  0.33936600  0.35002500  1
  H  1831  1  0.39683300  0.33982400  0.32023000  1
  H  1832  1  0.37084400  0.36102800  0.34811600  1
  H  1834  1  0.51081100  0.32525200  0.36180700  1
  H  1835  1  0.48506500  0.33475000  0.34291200  1
  H  1836  1  0.47226600  0.30744200  0.34609000  1
  H  1838  1  0.38315800  0.40740900  0.42279000  1
  H  1839  1  0.41131300  0.41558700  0.40423500  1
  H  1840  1  0.42229700  0.42504400  0.43709900  1
  H  1847  1  0.47273000  0.07571300  0.68039100  1
  H  1851  1  0.48767300  0.93698700  0.56827200  1
  H  1852  1  0.40010300  0.93752700  0.61152500  1
  H  1853  1  0.41424200  0.05863600  0.61282600  1
  H  1854  1  0.50883200  0.00716900  0.60825300  1
  H  1855  1  0.40136500  0.00894800  0.65927700  1
  H  1857  1  0.51080800  0.03484700  0.67338200  1
  H  1858  1  0.48506200  0.00645500  0.66388600  1
  H  1859  1  0.47226600  0.03694100  0.69119500  1
  H  1861  1  0.38314800  0.01367900  0.59123400  1
  H  1862  1  0.42228700  0.01034800  0.57359600  1
  H  1869  1  0.47273800  0.60297900  0.92292900  1
  H  1876  1  0.48768300  0.62959000  0.06165500  1
  H  1877  1  0.40011100  0.67230200  0.06111600  1
  H  1878  1  0.41423200  0.55250000  0.94000700  1
  H  1880  1  0.50883900  0.59938700  0.99147200  1
  H  1881  1  0.50212500  0.58852100  0.01450900  1
  H  1882  1  0.52937800  0.61616300  0.02253800  1
  H  1884  1  0.40137500  0.64863500  0.98969500  1
  H  1885  1  0.39685900  0.67842800  0.01995000  1
  H  1886  1  0.37086000  0.65054700  0.01326400  1
  H  1888  1  0.51082900  0.63682400  0.96379100  1
  H  1889  1  0.48508800  0.65572700  0.99218700  1
  H  1890  1  0.47229200  0.65255500  0.96170100  1
  H  1892  1  0.38314800  0.57586700  0.98497000  1
  H  1893  1  0.41130800  0.59441600  0.01170000  1
  H  1894  1  0.42228400  0.56155000  0.98829100  1
  H  1901  1  0.53484600  0.06451700  0.38298400  1
  H  1905  1  0.51180200  0.92173300  0.34344000  1
  H  1906  1  0.61905200  0.93455100  0.34097700  1
  H  1907  1  0.57166700  0.05115500  0.44314900  1
  H  1908  1  0.61376100  0.00560700  0.36468200  1
  H  1910  1  0.50361100  0.02323400  0.34404000  1
  H  1911  1  0.54789000  0.02405100  0.33562400  1
  H  1913  1  0.59713100  0.00357800  0.42565600  1
  H  1914  1  0.55390900  0.00612600  0.43755600  1
  H  1921  1  0.53484900  0.61566300  0.68188300  1
  H  1928  1  0.51179400  0.65519800  0.57863300  1
  H  1929  1  0.61904400  0.65767200  0.59392500  1
  H  1930  1  0.57164400  0.55549500  0.60835100  1
  H  1932  1  0.48502100  0.62542400  0.61844800  1
  H  1933  1  0.47959900  0.61915900  0.58576700  1
  H  1934  1  0.47234700  0.65139500  0.61312600  1
  H  1936  1  0.61375000  0.63397300  0.64128100  1
  H  1937  1  0.63347500  0.65938200  0.63802400  1
  H  1938  1  0.63744900  0.62593500  0.61221400  1
  H  1940  1  0.50362700  0.65461400  0.67955400  1
  H  1941  1  0.52942000  0.66739100  0.66354200  1
  H  1942  1  0.54790800  0.66302200  0.68877800  1
  H  1944  1  0.59712400  0.57299000  0.57827400  1
  H  1945  1  0.56581500  0.59185300  0.57271900  1
  H  1946  1  0.55389800  0.56109800  0.56891900  1
  H  1953  1  0.53483100  0.31675200  0.93411200  1
  H  1960  1  0.51178100  0.42000800  0.07690100  1
  H  1961  1  0.61902600  0.40469500  0.06408900  1
  H  1962  1  0.57167200  0.39027900  0.94749100  1
  H  1964  1  0.48500800  0.38018200  0.00731100  1
  H  1965  1  0.47959400  0.41286700  0.03372000  1
  H  1966  1  0.47232600  0.38551600  0.03860900  1
  H  1968  1  0.61372700  0.35732200  0.99303600  1
  H  1969  1  0.63344600  0.36058400  0.02170700  1
  H  1970  1  0.63743600  0.38638500  0.01405700  1
  H  1972  1  0.50358000  0.31908700  0.97538800  1
  H  1973  1  0.52937000  0.33508800  0.00417900  1
  H  1974  1  0.54785600  0.30984800  0.97457700  1
  H  1976  1  0.59713700  0.42035200  0.99507200  1
  H  1977  1  0.56581300  0.42590600  0.01947900  1
  H  1978  1  0.55391600  0.42971100  0.99252200  1
  H  1982  1  0.03484300  0.93343600  0.61634100  1
  H  1989  1  0.01179300  0.07622400  0.65588200  1
  H  1990  1  0.11904300  0.06341000  0.65836300  1
  H  1991  1  0.07166400  0.94681300  0.55618700  1
  H  1993  1  0.98502100  0.00663500  0.62611400  1
  H  1994  1  0.97960100  0.03304900  0.61984500  1
  H  1995  1  0.97234500  0.03792900  0.65208300  1
  H  1997  1  0.13347200  0.02102500  0.66008200  1
  H  1998  1  0.13744900  0.01338100  0.62663300  1
  H  1999  1  0.02939800  0.00350300  0.66807400  1
  H  2000  1  0.06581500  0.01880100  0.59254700  1
  H  2007  1  0.03483200  0.38230600  0.31744500  1
  H  2014  1  0.01179100  0.34276400  0.42068800  1
  H  2015  1  0.11904100  0.34029500  0.40539900  1
  H  2016  1  0.07166400  0.44247000  0.39096800  1
  H  2018  1  0.98501700  0.37255200  0.38088500  1
  H  2019  1  0.97959800  0.37881000  0.41356500  1
  H  2020  1  0.97234300  0.34657600  0.38620100  1
  H  2022  1  0.11374400  0.36400000  0.35804700  1
  H  2023  1  0.13347200  0.33859100  0.36130400  1
  H  2024  1  0.13744300  0.37203800  0.38711500  1
  H  2026  1  0.00359200  0.34336500  0.31978600  1
  H  2027  1  0.02938500  0.33058400  0.33579400  1
  H  2028  1  0.04787100  0.33494500  0.31055100  1
  H  2030  1  0.09712300  0.42497400  0.42105400  1
  H  2031  1  0.06580400  0.40612000  0.42660900  1
  H  2032  1  0.05390300  0.43687700  0.43040700  1
  H  2039  1  0.03485800  0.68120900  0.06520100  1
  H  2046  1  0.01179600  0.57796200  0.92241600  1
  H  2047  1  0.11904900  0.59325000  0.93523000  1
  H  2048  1  0.07165300  0.60767700  0.05183200  1
  H  2050  1  0.98502900  0.61778000  0.99200700  1
  H  2051  1  0.97960700  0.58509700  0.96559100  1
  H  2052  1  0.97235200  0.61245400  0.96071100  1
  H  2054  1  0.11375800  0.64060900  0.00628400  1
  H  2055  1  0.13348200  0.63735000  0.97761700  1
  H  2056  1  0.13745400  0.61154000  0.98525500  1
  H  2058  1  0.00363600  0.67888400  0.02392100  1
  H  2059  1  0.02942900  0.66287200  0.99513200  1
  H  2060  1  0.04791800  0.68810700  0.02473700  1
  H  2062  1  0.09713100  0.57760000  0.00426000  1
  H  2063  1  0.06582200  0.57204700  0.97984300  1
  H  2064  1  0.05390500  0.56824400  0.00679600  1
  C  4  1  0.91057200  0.99001200  0.40995200  1
  C  6  1  0.45010100  0.98851100  0.62004500  1
  C  7  1  0.50540000  0.98619600  0.59391800  1
  C  8  1  0.39671800  0.98781100  0.64637400  1
  C  12  1  0.61983700  0.98497600  0.35820100  1
  C  15  1  0.05008200  0.99126600  0.61846800  1
  C  17  1  0.06969500  0.99761700  0.57945800  1
  C  20  1  0.94726900  0.98155500  0.36903600  1
  C  22  1  0.47506700  0.97395300  0.59986600  1
  C  23  1  0.42322000  0.97463000  0.62494500  1
  C  27  1  0.55412500  0.97896600  0.36288800  1
  C  30  1  0.05986100  0.98109100  0.59150500  1
  C  31  1  0.02976000  0.98205500  0.65516900  1
  C  34  1  0.92903800  0.97257700  0.38437800  1
  C  35  1  0.96381400  0.96275900  0.34496000  1
  C  36  1  0.98405100  0.97020500  0.32781700  1
  C  39  1  0.52564600  0.96136600  0.35768400  1
  C  40  1  0.58839300  0.96850200  0.35494400  1
  C  41  1  0.48874200  0.97008200  0.36489300  1
  C  44  1  0.04024900  0.97342400  0.62737100  1
  C  45  1  0.93789000  0.54866900  0.69443700  1
  C  46  1  0.95401200  0.52164700  0.67278800  1
  C  47  1  0.89724800  0.54410400  0.69299300  1
  C  48  1  0.88078800  0.53583100  0.66516200  1
  C  51  1  0.89941100  0.50930300  0.64451900  1
  C  52  1  0.94006500  0.51200300  0.64394900  1
  C  57  1  0.94859200  0.53498600  0.63822900  1
  C  58  1  0.93153000  0.56257000  0.65822800  1
  C  61  1  0.89094000  0.55733700  0.65750400  1
  C  64  1  0.94493300  0.57072900  0.68673000  1
  C  67  1  0.93789800  0.14407800  0.44998000  1
  C  68  1  0.95402100  0.14944400  0.47700100  1
  C  69  1  0.89725600  0.14719800  0.45454800  1
  C  70  1  0.88079600  0.12763800  0.46281700  1
  C  73  1  0.89942100  0.13351700  0.48934200  1
  C  74  1  0.94007400  0.13024400  0.48664000  1
  C  79  1  0.94859800  0.10154400  0.46365200  1
  C  80  1  0.93153400  0.09396500  0.43607000  1
  C  83  1  0.89094600  0.09847600  0.44130800  1
  C  86  1  0.94493800  0.11431000  0.42791500  1
  C  89  1  0.93789300  0.30420400  0.85456600  1
  C  90  1  0.95401700  0.32586300  0.84920600  1
  C  91  1  0.89725200  0.30564800  0.85143600  1
  C  92  1  0.88078600  0.33347500  0.87099700  1
  C  95  1  0.89941300  0.35412600  0.86512700  1
  C  96  1  0.94006500  0.35469900  0.86840600  1
  C  101  1  0.94857800  0.36041100  0.89710800  1
  C  102  1  0.93151600  0.34039900  0.90467800  1
  C  105  1  0.89092800  0.34112000  0.90016000  1
  C  108  1  0.94492700  0.31190300  0.88433100  1
  C  111  1  0.43789400  0.44929300  0.30488100  1
  C  112  1  0.45401500  0.47631400  0.32653500  1
  C  113  1  0.39725000  0.45386200  0.30632500  1
  C  114  1  0.38079000  0.46213100  0.33415600  1
  C  117  1  0.39941400  0.48865700  0.35480100  1
  C  118  1  0.44006600  0.48595600  0.35537300  1
  C  123  1  0.44858800  0.46296900  0.36109000  1
  C  124  1  0.43152600  0.43538600  0.34108500  1
  C  127  1  0.39093700  0.44062200  0.34180900  1
  C  130  1  0.44493200  0.42723100  0.31258500  1
  C  133  1  0.43788900  0.85388500  0.54934400  1
  C  134  1  0.45401200  0.84851500  0.52232300  1
  C  135  1  0.39724700  0.85076200  0.54477600  1
  C  136  1  0.38078800  0.87032000  0.53650200  1
  C  139  1  0.39941200  0.86443700  0.50997700  1
  C  140  1  0.44006600  0.86771000  0.51267900  1
  C  145  1  0.44858800  0.89641400  0.53566300  1
  C  146  1  0.43152300  0.90399600  0.56324700  1
  C  149  1  0.39093400  0.89948300  0.55801000  1
  C  152  1  0.44492700  0.88365300  0.57140500  1
  C  155  1  0.43789400  0.69375700  0.14475700  1
  C  156  1  0.45401500  0.67210200  0.15012400  1
  C  157  1  0.39725000  0.69231200  0.14788000  1
  C  158  1  0.38079000  0.66448100  0.12831900  1
  C  161  1  0.39941400  0.64383600  0.13419900  1
  C  162  1  0.44006600  0.64326400  0.13092600  1
  C  167  1  0.44859100  0.63754900  0.10222600  1
  C  168  1  0.43152800  0.65755300  0.09464600  1
  C  171  1  0.39093900  0.65682900  0.09915600  1
  C  174  1  0.44493500  0.68605400  0.11499200  1
  C  177  1  0.55988500  0.84465700  0.30147800  1
  C  178  1  0.54264600  0.84313700  0.32513300  1
  C  179  1  0.59976000  0.83831300  0.30096900  1
  C  180  1  0.61877800  0.85765500  0.32775200  1
  C  183  1  0.59963200  0.85501300  0.35036400  1
  C  184  1  0.55967900  0.86197100  0.35295000  1
  C  189  1  0.55603400  0.89097800  0.35806900  1
  C  190  1  0.57297900  0.89483600  0.33558700  1
  C  193  1  0.61265300  0.88687700  0.33388700  1
  C  196  1  0.55627900  0.87443700  0.30827600  1
  C  199  1  0.55988800  0.69716000  0.54351800  1
  C  200  1  0.54265100  0.67350500  0.51834500  1
  C  201  1  0.59976500  0.69766600  0.53768600  1
  C  202  1  0.61878100  0.67088400  0.53024700  1
  C  205  1  0.59963700  0.64827100  0.50499100  1
  C  206  1  0.55968200  0.64568700  0.50936200  1
  C  211  1  0.55603100  0.64056800  0.53325100  1
  C  212  1  0.57297400  0.66305100  0.55959200  1
  C  215  1  0.61265000  0.66475000  0.55333400  1
  C  218  1  0.55627900  0.69036300  0.56650200  1
  C  221  1  0.55988000  0.45511000  0.15397600  1
  C  222  1  0.54264300  0.48028800  0.15550000  1
  C  223  1  0.59975700  0.46094300  0.16031400  1
  C  224  1  0.61877300  0.46838400  0.14097100  1
  C  227  1  0.59962700  0.49364100  0.14361700  1
  C  228  1  0.55967200  0.48927000  0.13666400  1
  C  233  1  0.55601800  0.46538400  0.10765700  1
  C  234  1  0.57296300  0.43904200  0.10379500  1
  C  237  1  0.61264000  0.44529800  0.11175000  1
  C  240  1  0.55626900  0.43212900  0.12419400  1
  C  243  1  0.05988200  0.15330000  0.69784600  1
  C  244  1  0.04264000  0.15481900  0.67419100  1
  C  245  1  0.09975700  0.15964100  0.69835200  1
  C  246  1  0.11877200  0.14029800  0.67156800  1
  C  249  1  0.09962600  0.14294000  0.64895600  1
  C  250  1  0.05967300  0.13598400  0.64637200  1
  C  255  1  0.05602500  0.10697700  0.64125300  1
  C  256  1  0.07297000  0.10311900  0.66373500  1
  C  259  1  0.11264700  0.11107700  0.66543400  1
  C  262  1  0.05627300  0.12351800  0.69104800  1
  C  265  1  0.05987700  0.30079900  0.45579800  1
  C  266  1  0.04264000  0.32445400  0.48097300  1
  C  267  1  0.09975400  0.30029100  0.46163200  1
  C  268  1  0.11877200  0.32707300  0.46907200  1
  C  271  1  0.09962900  0.34968600  0.49432800  1
  C  272  1  0.05967300  0.35227200  0.48995700  1
  C  277  1  0.05602500  0.35739100  0.46606900  1
  C  278  1  0.07296800  0.33490900  0.43972800  1
  C  281  1  0.11264400  0.33320800  0.44598500  1
  C  284  1  0.05627000  0.30759900  0.43281700  1
  C  287  1  0.05988700  0.54284200  0.84533800  1
  C  288  1  0.04264800  0.51766700  0.84381900  1
  C  289  1  0.09976200  0.53700600  0.83899600  1
  C  290  1  0.11877700  0.52956800  0.85834100  1
  C  293  1  0.09963200  0.50431500  0.85570100  1
  C  294  1  0.05967900  0.50868600  0.86265500  1
  C  299  1  0.05603100  0.53257600  0.89166300  1
  C  300  1  0.07297500  0.55891600  0.89551900  1
  C  303  1  0.11264900  0.55265700  0.88756000  1
  C  306  1  0.05627800  0.56582500  0.87511800  1
  C  309  1  0.05671400  0.44361900  0.30160200  1
  C  310  1  0.04217800  0.47206300  0.32167500  1
  C  311  1  0.09780400  0.44615900  0.30266500  1
  C  312  1  0.11348900  0.45708800  0.33128400  1
  C  315  1  0.09624700  0.48480000  0.35018300  1
  C  316  1  0.05516000  0.48346600  0.35099600  1
  C  321  1  0.04377900  0.46250200  0.35910000  1
  C  322  1  0.06041700  0.43428700  0.34124700  1
  C  325  1  0.10088800  0.43773500  0.34113000  1
  C  328  1  0.04734200  0.42415200  0.31205200  1
  C  331  1  0.05671100  0.85628400  0.55501300  1
  C  332  1  0.04217600  0.84792000  0.52657000  1
  C  333  1  0.09780100  0.85480600  0.55247200  1
  C  334  1  0.11348600  0.87250200  0.54155000  1
  C  337  1  0.09624400  0.86369600  0.51383800  1
  C  338  1  0.05515700  0.86584300  0.51517400  1
  C  343  1  0.04377700  0.89491000  0.53614400  1
  C  344  1  0.06041700  0.90526400  0.56435800  1
  C  347  1  0.10088800  0.90170000  0.56090700  1
  C  350  1  0.04733900  0.88620100  0.57448700  1
  C  353  1  0.05671100  0.69703600  0.14235700  1
  C  354  1  0.04218400  0.67695900  0.15072600  1
  C  355  1  0.09780100  0.69597500  0.14383200  1
  C  356  1  0.11348900  0.66735700  0.12613700  1
  C  359  1  0.09625200  0.64845200  0.13494600  1
  C  360  1  0.05516500  0.64764000  0.13280200  1
  C  365  1  0.04377900  0.63953900  0.10373600  1
  C  366  1  0.06041100  0.65739700  0.09337800  1
  C  369  1  0.10088600  0.65751400  0.09693900  1
  C  372  1  0.04733600  0.68659000  0.11244100  1
  C  375  1  0.55670700  0.55433800  0.69771600  1
  C  376  1  0.54218200  0.52589100  0.67764000  1
  C  377  1  0.59779900  0.55180500  0.69665500  1
  C  378  1  0.61348400  0.54088000  0.66803700  1
  C  381  1  0.59625000  0.51316500  0.64913500  1
  C  382  1  0.55516300  0.51449400  0.64832200  1
  C  387  1  0.54377500  0.53545600  0.64021700  1
  C  388  1  0.56040700  0.56367300  0.65807300  1
  C  391  1  0.60087900  0.56023200  0.65819100  1
  C  394  1  0.54732900  0.57380500  0.68726600  1
  C  397  1  0.55672000  0.14167300  0.44430000  1
  C  398  1  0.54218400  0.15004400  0.47274400  1
  C  399  1  0.59781200  0.14315300  0.44684200  1
  C  400  1  0.61349500  0.12546000  0.45777000  1
  C  403  1  0.59625000  0.13427300  0.48548200  1
  C  404  1  0.55516500  0.13212500  0.48414500  1
  C  409  1  0.54378500  0.10305600  0.46318200  1
  C  410  1  0.56042500  0.09269700  0.43496800  1
  C  413  1  0.60089700  0.09626000  0.43841600  1
  C  416  1  0.54735000  0.11175700  0.42483300  1
  C  419  1  0.55670900  0.30092600  0.85696000  1
  C  420  1  0.54217900  0.32100400  0.84859600  1
  C  421  1  0.59779900  0.30198700  0.85548200  1
  C  422  1  0.61348700  0.33060400  0.87317800  1
  C  425  1  0.59624700  0.34951100  0.86437400  1
  C  426  1  0.55516000  0.35032600  0.86652400  1
  C  431  1  0.54378000  0.35842100  0.89558800  1
  C  432  1  0.56041700  0.34056100  0.90594200  1
  C  435  1  0.60088900  0.34044400  0.90237700  1
  C  438  1  0.54734000  0.31136800  0.88687700  1
  C  441  1  0.44409000  0.15193200  0.69504500  1
  C  442  1  0.45602500  0.15702400  0.67210500  1
  C  443  1  0.40325000  0.15485100  0.69686200  1
  C  444  1  0.38457900  0.13599700  0.66964000  1
  C  447  1  0.39928400  0.14162100  0.64761700  1
  C  448  1  0.44006900  0.13800600  0.64409400  1
  C  453  1  0.45040600  0.10914900  0.63721700  1
  C  454  1  0.43654100  0.10178600  0.65811400  1
  C  457  1  0.39618400  0.10695100  0.66137700  1
  C  460  1  0.45344600  0.12211200  0.68562900  1
  C  463  1  0.44409000  0.30359000  0.45722800  1
  C  464  1  0.45602300  0.32653000  0.48526200  1
  C  465  1  0.40324800  0.30177500  0.45832900  1
  C  466  1  0.38457700  0.32899600  0.46669500  1
  C  469  1  0.39928400  0.35101900  0.49434400  1
  C  470  1  0.44006600  0.35454300  0.49425600  1
  C  475  1  0.45040800  0.36141900  0.47227500  1
  C  476  1  0.43654300  0.34052300  0.44401500  1
  C  479  1  0.39618400  0.33726200  0.44591600  1
  C  482  1  0.45344600  0.31300700  0.43682500  1
  C  485  1  0.44409000  0.54142100  0.84671100  1
  C  486  1  0.45603300  0.51338900  0.84162100  1
  C  487  1  0.40325000  0.54031200  0.84378700  1
  C  488  1  0.38457900  0.53194300  0.86264100  1
  C  491  1  0.39929200  0.50429800  0.85702000  1
  C  492  1  0.44007700  0.50439500  0.86063800  1
  C  497  1  0.45040600  0.52637800  0.88949600  1
  C  498  1  0.43653500  0.55463600  0.89685600  1
  C  501  1  0.39617800  0.55272700  0.89168700  1
  C  504  1  0.45343900  0.56182600  0.87653100  1
  C  507  1  0.94409200  0.84603100  0.30426800  1
  C  508  1  0.95603500  0.84094200  0.32720800  1
  C  509  1  0.90325200  0.84310900  0.30245400  1
  C  510  1  0.88458100  0.86196400  0.32967600  1
  C  513  1  0.89929600  0.85634300  0.35170000  1
  C  514  1  0.94007900  0.85996100  0.35522100  1
  C  519  1  0.95041000  0.88881800  0.36209400  1
  C  520  1  0.93653800  0.89617700  0.34119500  1
  C  523  1  0.89618100  0.89100900  0.33793600  1
  C  526  1  0.95344200  0.87585200  0.31368000  1
  C  529  1  0.94409600  0.69436800  0.54209000  1
  C  530  1  0.95603200  0.67142900  0.51405800  1
  C  531  1  0.90325600  0.69618500  0.54098900  1
  C  532  1  0.88458300  0.66896400  0.53262000  1
  C  535  1  0.89929000  0.64694100  0.50497400  1
  C  536  1  0.94007300  0.64341700  0.50506400  1
  C  541  1  0.95041000  0.63654000  0.52704600  1
  C  542  1  0.93654400  0.65743800  0.55530500  1
  C  545  1  0.89618600  0.66070000  0.55340200  1
  C  548  1  0.95345000  0.68495200  0.56249500  1
  C  551  1  0.94408700  0.45655000  0.15261600  1
  C  552  1  0.95602300  0.48458200  0.15771000  1
  C  553  1  0.90324600  0.45765000  0.15553000  1
  C  554  1  0.88457800  0.46601800  0.13667300  1
  C  557  1  0.89928600  0.49366700  0.14230200  1
  C  558  1  0.94007000  0.49357700  0.13869100  1
  C  563  1  0.95041200  0.47159800  0.10983600  1
  C  564  1  0.93654500  0.44333600  0.10246800  1
  C  567  1  0.89618700  0.44523900  0.10763100  1
  C  570  1  0.95344600  0.43614600  0.12279400  1
  C  573  1  0.04292700  0.54876200  0.82512600  1
  C  574  1  0.02722600  0.57333700  0.83168800  1
  C  575  1  0.01050200  0.57806000  0.81279200  1
  C  576  1  0.00829600  0.55703200  0.78603400  1
  C  577  1  0.02431300  0.53217900  0.77847900  1
  C  578  1  0.04198500  0.52900700  0.79795500  1
  C  580  1  0.98978300  0.56034700  0.76668700  1
  C  581  1  0.00852100  0.56417100  0.74776700  1
  C  582  1  0.99058800  0.56136500  0.72532800  1
  C  583  1  0.95439700  0.55585800  0.72108600  1
  C  584  1  0.93624800  0.55459800  0.74163600  1
  C  585  1  0.95308400  0.55610100  0.76393600  1
  C  589  1  0.04675700  0.56946100  0.74914300  1
  C  593  1  0.93080400  0.55174100  0.78244500  1
  C  597  1  0.02350200  0.50852400  0.75120700  1
  C  601  1  0.99560600  0.60504500  0.82257300  1
  C  605  1  0.04291900  0.27466700  0.44987500  1
  C  606  1  0.02722300  0.25665100  0.42529700  1
  C  607  1  0.01049700  0.23303200  0.42057100  1
  C  608  1  0.00828800  0.22730300  0.44159900  1
  C  609  1  0.02429700  0.24459900  0.46645400  1
  C  610  1  0.04197500  0.26725000  0.46962800  1
  C  612  1  0.98977800  0.20463800  0.43828200  1
  C  613  1  0.00852100  0.18189800  0.43446500  1
  C  614  1  0.99059500  0.16227000  0.43728100  1
  C  615  1  0.95440700  0.16354400  0.44280000  1
  C  616  1  0.93624400  0.18533500  0.44403300  1
  C  617  1  0.95307700  0.20612800  0.44252000  1
  C  621  1  0.04675700  0.17798700  0.42917600  1
  C  625  1  0.93079100  0.22898800  0.44686500  1
  C  629  1  0.02348100  0.24098300  0.49010800  1
  C  633  1  0.99561100  0.21582800  0.39358400  1
  C  637  1  0.04292400  0.17350900  0.72397800  1
  C  638  1  0.02722800  0.16694800  0.74199500  1
  C  639  1  0.01050500  0.18584200  0.76561400  1
  C  640  1  0.00829600  0.21260000  0.77134300  1
  C  641  1  0.02430800  0.22015800  0.75404500  1
  C  642  1  0.04198300  0.20068000  0.73139700  1
  C  644  1  0.98978300  0.23194700  0.79400500  1
  C  645  1  0.00852300  0.25087300  0.81674800  1
  C  646  1  0.99059400  0.27331700  0.83637400  1
  C  647  1  0.95440700  0.27755900  0.83509600  1
  C  648  1  0.93624700  0.25700100  0.81330500  1
  C  649  1  0.95308300  0.23469600  0.79251300  1
  C  653  1  0.04675700  0.24949600  0.82066300  1
  C  657  1  0.93080100  0.21617900  0.76965000  1
  C  661  1  0.02349100  0.24742700  0.75766100  1
  C  665  1  0.99561600  0.17606200  0.78281800  1
  C  669  1  0.54292500  0.44918700  0.17418500  1
  C  670  1  0.52722400  0.42461300  0.16762600  1
  C  671  1  0.51050100  0.41988800  0.18651900  1
  C  672  1  0.50829400  0.44091400  0.21327700  1
  C  673  1  0.52431100  0.46576800  0.22083600  1
  C  674  1  0.54198600  0.46894000  0.20135700  1
  C  676  1  0.48978200  0.43759900  0.23262500  1
  C  677  1  0.50852400  0.43378000  0.25154700  1
  C  678  1  0.49059300  0.43659400  0.27399000  1
  C  679  1  0.45440600  0.44211100  0.27823600  1
  C  680  1  0.43624800  0.44335200  0.25767900  1
  C  681  1  0.45308100  0.44184300  0.23537600  1
  C  685  1  0.54675800  0.42848700  0.25016800  1
  C  689  1  0.43079800  0.44619500  0.21686300  1
  C  693  1  0.52350000  0.48942200  0.24810400  1
  C  697  1  0.49560500  0.39290400  0.17673700  1
  C  701  1  0.54293000  0.72329200  0.54944000  1
  C  702  1  0.52722600  0.74130500  0.57401400  1
  C  703  1  0.51050100  0.76492300  0.57873700  1
  C  704  1  0.50830000  0.77065400  0.55770900  1
  C  705  1  0.52431600  0.75335800  0.53285700  1
  C  706  1  0.54199100  0.73070900  0.52968600  1
  C  708  1  0.48978200  0.79331500  0.56102300  1
  C  709  1  0.50852100  0.81606100  0.56485000  1
  C  710  1  0.49058500  0.83569200  0.56204200  1
  C  711  1  0.45439600  0.83442600  0.55653300  1
  C  712  1  0.43624800  0.81261600  0.55527200  1
  C  713  1  0.45308400  0.79181900  0.55677700  1
  C  717  1  0.54675600  0.81997700  0.57014200  1
  C  721  1  0.43080600  0.76894800  0.55241200  1
  C  725  1  0.52350800  0.75697500  0.50920400  1
  C  729  1  0.49560300  0.78212500  0.60572000  1
  C  733  1  0.54292500  0.82444800  0.27534500  1
  C  734  1  0.52722900  0.83101100  0.25733000  1
  C  735  1  0.51050300  0.81211800  0.23371200  1
  C  736  1  0.50829200  0.78536100  0.22798200  1
  C  737  1  0.52430100  0.77780200  0.24527800  1
  C  738  1  0.54197800  0.79727800  0.26792800  1
  C  740  1  0.48977700  0.76601400  0.20531800  1
  C  741  1  0.50852100  0.74709000  0.18257900  1
  C  742  1  0.49059300  0.72464500  0.16294900  1
  C  743  1  0.45440300  0.72040200  0.16422400  1
  C  744  1  0.43624300  0.74096200  0.18601600  1
  C  745  1  0.45307600  0.76326700  0.20680800  1
  C  749  1  0.54675600  0.74846700  0.17866600  1
  C  753  1  0.43079300  0.78178400  0.22966900  1
  C  757  1  0.52348200  0.75053300  0.24166300  1
  C  761  1  0.49561600  0.82190100  0.21650800  1
  C  765  1  0.96099800  0.44920400  0.17199500  1
  C  766  1  0.95710700  0.42359400  0.16889100  1
  C  767  1  0.97261600  0.41594600  0.18618000  1
  C  768  1  0.99157500  0.43507500  0.20875900  1
  C  769  1  0.99490500  0.46135100  0.21321300  1
  C  770  1  0.98045500  0.46742300  0.19458800  1
  C  772  1  0.00673400  0.42893900  0.22754900  1
  C  773  1  0.98631500  0.43150900  0.24913600  1
  C  774  1  0.00343800  0.43330700  0.27148100  1
  C  775  1  0.04024100  0.43449000  0.27440400  1
  C  776  1  0.05949100  0.42921900  0.25150700  1
  C  777  1  0.04362800  0.42618500  0.22817800  1
  C  781  1  0.94759200  0.43443800  0.25087700  1
  C  785  1  0.06730900  0.42223800  0.20618600  1
  C  789  1  0.01250300  0.48374600  0.23665500  1
  C  793  1  0.96760100  0.38793100  0.17959200  1
  C  797  1  0.96101000  0.72109400  0.54943700  1
  C  798  1  0.95711300  0.74360000  0.57504400  1
  C  799  1  0.97262000  0.76853700  0.58269200  1
  C  800  1  0.99158400  0.77198700  0.56356500  1
  C  801  1  0.99492400  0.75016200  0.53729000  1
  C  802  1  0.98047500  0.72546500  0.53121900  1
  C  804  1  0.00673700  0.79691300  0.56969800  1
  C  805  1  0.98631500  0.81592500  0.56712300  1
  C  806  1  0.00343600  0.83647300  0.56532100  1
  C  807  1  0.04023800  0.83820500  0.56412900  1
  C  808  1  0.05949400  0.82059600  0.56942200  1
  C  809  1  0.04363100  0.80030400  0.57246100  1
  C  813  1  0.94759200  0.81473400  0.56419300  1
  C  817  1  0.06731100  0.78226700  0.57642000  1
  C  821  1  0.01252900  0.75120700  0.51489800  1
  C  825  1  0.96759700  0.78996600  0.61070600  1
  C  829  1  0.96100400  0.82665100  0.27754200  1
  C  830  1  0.95710600  0.82975000  0.25503600  1
  C  831  1  0.97261500  0.81246200  0.23009800  1
  C  832  1  0.99158200  0.78988700  0.22665100  1
  C  833  1  0.99492500  0.78543900  0.24847600  1
  C  834  1  0.98047500  0.80406500  0.27317300  1
  C  836  1  0.00673400  0.77109300  0.20172400  1
  C  837  1  0.98631400  0.74950400  0.18271500  1
  C  838  1  0.00343300  0.72715300  0.16216800  1
  C  839  1  0.04023600  0.72423100  0.16043600  1
  C  840  1  0.05949100  0.74713400  0.17804100  1
  C  841  1  0.04362800  0.77046700  0.19833200  1
  C  845  1  0.94759100  0.74776300  0.18390800  1
  C  849  1  0.06730900  0.79246400  0.21636600  1
  C  853  1  0.01253400  0.76200300  0.24743300  1
  C  857  1  0.96758900  0.81904400  0.20866900  1
  C  861  1  0.46100600  0.54876800  0.82733400  1
  C  862  1  0.45710200  0.57437200  0.83043100  1
  C  863  1  0.47261000  0.58202100  0.81314100  1
  C  864  1  0.49157400  0.56289400  0.79056600  1
  C  865  1  0.49491400  0.53662000  0.78611600  1
  C  866  1  0.48046500  0.53054800  0.80474200  1
  C  868  1  0.50672700  0.56902700  0.77177200  1
  C  869  1  0.48630600  0.56644900  0.75018400  1
  C  870  1  0.50342800  0.56464600  0.72783400  1
  C  871  1  0.54023100  0.56345800  0.72491100  1
  C  872  1  0.55948400  0.56875100  0.74781300  1
  C  873  1  0.54362100  0.57179000  0.77114500  1
  C  877  1  0.44758400  0.56351600  0.74844300  1
  C  881  1  0.56730400  0.57574900  0.79314100  1
  C  885  1  0.51251900  0.51422600  0.76267700  1
  C  889  1  0.46758300  0.61003400  0.81972500  1
  C  893  1  0.46100300  0.27686700  0.44988400  1
  C  894  1  0.45711300  0.25436000  0.42427500  1
  C  895  1  0.47262300  0.22942400  0.41662700  1
  C  896  1  0.49158200  0.22597500  0.43575700  1
  C  897  1  0.49491200  0.24779800  0.46203300  1
  C  898  1  0.48046000  0.27249400  0.46810400  1
  C  900  1  0.50674300  0.20104900  0.42962300  1
  C  901  1  0.48632200  0.18203200  0.43219000  1
  C  902  1  0.50344700  0.16148400  0.43398900  1
  C  903  1  0.54024900  0.15974200  0.43517000  1
  C  904  1  0.55950000  0.17737000  0.42990100  1
  C  905  1  0.54363700  0.19766500  0.42686800  1
  C  909  1  0.44760000  0.18322100  0.43512000  1
  C  913  1  0.56732000  0.21571200  0.42292400  1
  C  917  1  0.51251100  0.24675200  0.48442900  1
  C  921  1  0.46760900  0.20799600  0.38861200  1
  C  925  1  0.46100600  0.17131100  0.72177000  1
  C  926  1  0.45710800  0.16821100  0.74427700  1
  C  927  1  0.47261600  0.18550000  0.76921500  1
  C  928  1  0.49157900  0.20807800  0.77266400  1
  C  929  1  0.49491900  0.21252600  0.75083900  1
  C  930  1  0.48047000  0.19390000  0.72614000  1
  C  932  1  0.50673200  0.22687000  0.79758800  1
  C  933  1  0.48631100  0.24845700  0.81660000  1
  C  934  1  0.50343400  0.27080900  0.83715000  1
  C  935  1  0.54023600  0.27373100  0.83888000  1
  C  936  1  0.55949200  0.25082900  0.82127200  1
  C  937  1  0.54362600  0.22749700  0.80097900  1
  C  941  1  0.44758900  0.25019800  0.81540800  1
  C  945  1  0.56730700  0.20550100  0.78294300  1
  C  949  1  0.51252400  0.23596500  0.75188300  1
  C  953  1  0.46759300  0.17891700  0.79064400  1
  C  957  1  0.84100800  0.53376300  0.66629200  1
  C  958  1  0.82116300  0.55556400  0.68531400  1
  C  959  1  0.78447500  0.55510800  0.68747700  1
  C  960  1  0.76574400  0.53210600  0.66891900  1
  C  961  1  0.78459200  0.50973100  0.64939600  1
  C  962  1  0.82147100  0.51088800  0.64890900  1
  C  964  1  0.72848500  0.53303500  0.66778800  1
  C  965  1  0.71282000  0.54676400  0.65595000  1
  C  966  1  0.67617700  0.54950100  0.65677500  1
  C  967  1  0.65337500  0.53832100  0.66779700  1
  C  968  1  0.66997000  0.52370100  0.67817500  1
  C  969  1  0.70670500  0.52138000  0.67905100  1
  C  973  1  0.73247700  0.55892400  0.64251700  1
  C  977  1  0.72020300  0.50667700  0.69204700  1
  C  981  1  0.76790000  0.48481500  0.62856500  1
  C  985  1  0.76781600  0.57956000  0.70909700  1
  C  989  1  0.84101700  0.13083900  0.46488800  1
  C  990  1  0.82116900  0.12806200  0.44308900  1
  C  991  1  0.78448100  0.13068300  0.44354800  1
  C  992  1  0.76575300  0.13512600  0.46655200  1
  C  993  1  0.78460300  0.13797500  0.48892300  1
  C  994  1  0.82148200  0.13633000  0.48776300  1
  C  996  1  0.72849500  0.13306300  0.46562300  1
  C  997  1  0.71283100  0.10749600  0.45189300  1
  C  998  1  0.67619000  0.10558300  0.44915700  1
  C  999  1  0.65338500  0.12778300  0.46033700  1
  C  1000  1  0.66997800  0.15278200  0.47495400  1
  C  1001  1  0.70671300  0.15598100  0.47727700  1
  C  1005  1  0.73249300  0.08190500  0.43973700  1
  C  1009  1  0.72020800  0.18368000  0.49197900  1
  C  1013  1  0.76791300  0.14205900  0.51384100  1
  C  1017  1  0.76781900  0.12785300  0.41909700  1
  C  1021  1  0.84100800  0.33234300  0.86779100  1
  C  1022  1  0.82115900  0.31331700  0.87056100  1
  C  1023  1  0.78447200  0.31115600  0.86794000  1
  C  1024  1  0.76574300  0.32972200  0.86350600  1
  C  1025  1  0.78459400  0.34924900  0.86066200  1
  C  1026  1  0.82147300  0.34973300  0.86230800  1
  C  1028  1  0.72848500  0.33085700  0.86556900  1
  C  1029  1  0.71282500  0.34269100  0.89113900  1
  C  1030  1  0.67618200  0.34186600  0.89305300  1
  C  1031  1  0.65337700  0.33084500  0.87085500  1
  C  1032  1  0.66996800  0.32047300  0.84585400  1
  C  1033  1  0.70670000  0.31960100  0.84265500  1
  C  1037  1  0.73248800  0.35612100  0.91673000  1
  C  1041  1  0.72019500  0.30660900  0.81495500  1
  C  1045  1  0.76790600  0.37008500  0.85658500  1
  C  1049  1  0.76780900  0.28953300  0.87076600  1
  C  1053  1  0.34100900  0.46420100  0.33302400  1
  C  1054  1  0.32116200  0.44240300  0.31399900  1
  C  1055  1  0.28447700  0.44286300  0.31183800  1
  C  1056  1  0.26574600  0.46586600  0.33039800  1
  C  1057  1  0.28459700  0.48823900  0.34992000  1
  C  1058  1  0.32147500  0.48707800  0.35040600  1
  C  1060  1  0.22848700  0.46493900  0.33153100  1
  C  1061  1  0.21282500  0.45120900  0.34337000  1
  C  1062  1  0.17618100  0.44847300  0.34254700  1
  C  1063  1  0.15337900  0.45965300  0.33152700  1
  C  1064  1  0.16996900  0.47426900  0.32114500  1
  C  1065  1  0.20670700  0.47659300  0.32026900  1
  C  1069  1  0.23248400  0.43905200  0.35680400  1
  C  1073  1  0.22020200  0.49129300  0.30727000  1
  C  1077  1  0.26790700  0.51315600  0.37075200  1
  C  1081  1  0.26781400  0.41841100  0.29021800  1
  C  1085  1  0.34100700  0.86711900  0.53443200  1
  C  1086  1  0.32115700  0.86989600  0.55622900  1
  C  1087  1  0.28447200  0.86727500  0.55576900  1
  C  1088  1  0.26574300  0.86283300  0.53276700  1
  C  1089  1  0.28459400  0.85998200  0.51039400  1
  C  1090  1  0.32147200  0.86162600  0.51155400  1
  C  1092  1  0.22848400  0.86489500  0.53369300  1
  C  1093  1  0.21282200  0.89046300  0.54742200  1
  C  1094  1  0.17618100  0.89237800  0.55016000  1
  C  1095  1  0.15337700  0.87017800  0.53898600  1
  C  1096  1  0.16996700  0.84517900  0.52436200  1
  C  1097  1  0.20670200  0.84197900  0.52203700  1
  C  1101  1  0.23248400  0.91605400  0.55957800  1
  C  1105  1  0.22019700  0.81427800  0.50733200  1
  C  1109  1  0.26790700  0.85589700  0.48547600  1
  C  1113  1  0.26780800  0.87010600  0.58022000  1
  C  1117  1  0.34100900  0.66561300  0.13151900  1
  C  1118  1  0.32116500  0.68463600  0.12874200  1
  C  1119  1  0.28447700  0.68679600  0.13136000  1
  C  1120  1  0.26574600  0.66823500  0.13580000  1
  C  1121  1  0.28459400  0.64871100  0.13864900  1
  C  1122  1  0.32147200  0.64822600  0.13700600  1
  C  1124  1  0.22848700  0.66710200  0.13373700  1
  C  1125  1  0.21282500  0.65526700  0.10817000  1
  C  1126  1  0.17618100  0.65609200  0.10625700  1
  C  1127  1  0.15337900  0.66711800  0.12845800  1
  C  1128  1  0.16996900  0.67749000  0.15345600  1
  C  1129  1  0.20670400  0.67836300  0.15665500  1
  C  1133  1  0.23248400  0.64183100  0.08257800  1
  C  1137  1  0.22020200  0.69135700  0.18435500  1
  C  1141  1  0.26790200  0.62787700  0.14273000  1
  C  1145  1  0.26781600  0.70841700  0.12853000  1
  C  1149  1  0.65803700  0.85210500  0.32562200  1
  C  1150  1  0.67792400  0.85215900  0.30511800  1
  C  1151  1  0.71457000  0.84927400  0.30315900  1
  C  1152  1  0.73311900  0.84751600  0.32341900  1
  C  1153  1  0.71416000  0.84682900  0.34411100  1
  C  1154  1  0.67730800  0.84839700  0.34430100  1
  C  1156  1  0.77017100  0.85075700  0.32515100  1
  C  1157  1  0.78439100  0.87657000  0.33484000  1
  C  1158  1  0.82094400  0.87951100  0.33510100  1
  C  1159  1  0.84488100  0.85832400  0.32759800  1
  C  1160  1  0.82963700  0.83312300  0.31888000  1
  C  1161  1  0.79312300  0.82874000  0.31684400  1
  C  1165  1  0.76337100  0.90142900  0.34511600  1
  C  1169  1  0.78110700  0.80087800  0.30610100  1
  C  1173  1  0.73066700  0.84563200  0.36669900  1
  C  1177  1  0.73147800  0.84956300  0.28022000  1
  C  1181  1  0.65804200  0.67301000  0.52683300  1
  C  1182  1  0.67792600  0.69351900  0.54738800  1
  C  1183  1  0.71457000  0.69548100  0.54646100  1
  C  1184  1  0.73311900  0.67522400  0.52443900  1
  C  1185  1  0.71416000  0.65453300  0.50305600  1
  C  1186  1  0.67730800  0.65434000  0.50443600  1
  C  1188  1  0.77017200  0.67349200  0.52594700  1
  C  1189  1  0.78439400  0.66379800  0.54206600  1
  C  1190  1  0.82094700  0.66353800  0.54474700  1
  C  1191  1  0.84488200  0.67104700  0.53106400  1
  C  1192  1  0.82963600  0.67976500  0.51458400  1
  C  1193  1  0.79312200  0.68180200  0.51223900  1
  C  1197  1  0.76337600  0.65351900  0.55664700  1
  C  1201  1  0.78110300  0.69255100  0.49512500  1
  C  1205  1  0.73066700  0.63195100  0.47926700  1
  C  1209  1  0.73148100  0.71841900  0.56968900  1
  C  1213  1  0.65803200  0.47179700  0.14651100  1
  C  1214  1  0.67791800  0.45124100  0.14646000  1
  C  1215  1  0.71456500  0.45216500  0.14934500  1
  C  1216  1  0.73311300  0.47418600  0.15110700  1
  C  1217  1  0.71415500  0.49556800  0.15179900  1
  C  1218  1  0.67730000  0.49419200  0.15023300  1
  C  1220  1  0.77016600  0.47268000  0.14787000  1
  C  1221  1  0.78439000  0.45656100  0.12205700  1
  C  1222  1  0.82094500  0.45388500  0.11911800  1
  C  1223  1  0.84487700  0.46757700  0.14030800  1
  C  1224  1  0.82962800  0.48404900  0.16550800  1
  C  1225  1  0.79311300  0.48639100  0.16988900  1
  C  1229  1  0.76337500  0.44197400  0.09719600  1
  C  1233  1  0.78109200  0.50350300  0.19775100  1
  C  1237  1  0.73066000  0.51935800  0.15300400  1
  C  1241  1  0.73147300  0.42893700  0.14905300  1
  C  1245  1  0.15803100  0.14584700  0.67369900  1
  C  1246  1  0.17792000  0.14579200  0.69420100  1
  C  1247  1  0.21456700  0.14867500  0.69616000  1
  C  1248  1  0.23311500  0.15043300  0.67589800  1
  C  1249  1  0.21415500  0.15112100  0.65520600  1
  C  1250  1  0.17730200  0.14955500  0.65501800  1
  C  1252  1  0.27016600  0.14719500  0.67416700  1
  C  1253  1  0.28438800  0.12138300  0.66447600  1
  C  1254  1  0.32094300  0.11844500  0.66421700  1
  C  1255  1  0.34487700  0.13963300  0.67172200  1
  C  1256  1  0.32962900  0.16483200  0.68043900  1
  C  1257  1  0.29311600  0.16921400  0.68247500  1
  C  1261  1  0.26337300  0.09652300  0.65420100  1
  C  1265  1  0.28109700  0.19707400  0.69321800  1
  C  1269  1  0.23066100  0.15231800  0.63261800  1
  C  1273  1  0.23147500  0.14838500  0.71909700  1
  C  1277  1  0.15803100  0.32494100  0.47248800  1
  C  1278  1  0.17791800  0.30443700  0.45193000  1
  C  1279  1  0.21456100  0.30247600  0.45285200  1
  C  1280  1  0.23311300  0.32273600  0.47486800  1
  C  1281  1  0.21415700  0.34343100  0.49625000  1
  C  1282  1  0.17730500  0.34362100  0.49487400  1
  C  1284  1  0.27016600  0.32446500  0.47336000  1
  C  1285  1  0.28439100  0.33415200  0.45723600  1
  C  1286  1  0.32094300  0.33441500  0.45456100  1
  C  1287  1  0.34487700  0.32691900  0.46825400  1
  C  1288  1  0.32962700  0.31819700  0.48473200  1
  C  1289  1  0.29311400  0.31615800  0.48707200  1
  C  1293  1  0.26337500  0.34442400  0.44264700  1
  C  1297  1  0.28109200  0.30541400  0.50419000  1
  C  1301  1  0.23066700  0.36601800  0.52003300  1
  C  1305  1  0.23146700  0.27953700  0.42962500  1
  C  1309  1  0.15803900  0.52615300  0.85279800  1
  C  1310  1  0.17792300  0.54670700  0.85284300  1
  C  1311  1  0.21456700  0.54577900  0.84995200  1
  C  1312  1  0.23311500  0.52375900  0.84819200  1
  C  1313  1  0.21416000  0.50237700  0.84750100  1
  C  1314  1  0.17730500  0.50375600  0.84907300  1
  C  1316  1  0.27016800  0.52526700  0.85143300  1
  C  1317  1  0.28438800  0.54139000  0.87724500  1
  C  1318  1  0.32094000  0.54407000  0.88018900  1
  C  1319  1  0.34487900  0.53037900  0.85900300  1
  C  1320  1  0.32963500  0.51390300  0.83379900  1
  C  1321  1  0.29312100  0.51156000  0.82941800  1
  C  1325  1  0.26336700  0.55597500  0.90210500  1
  C  1329  1  0.28110500  0.49444400  0.80155200  1
  C  1333  1  0.23066400  0.47858900  0.84629700  1
  C  1337  1  0.23147800  0.56900600  0.85023900  1
  C  1341  1  0.95674500  0.48633400  0.62243800  1
  C  1342  1  0.94751800  0.47593000  0.59545500  1
  C  1343  1  0.96422500  0.45384300  0.57433200  1
  C  1344  1  0.99169600  0.44116200  0.58023300  1
  C  1345  1  0.00105200  0.45032700  0.60709600  1
  C  1346  1  0.98332100  0.47245400  0.62743100  1
  C  1348  1  0.00951700  0.41924000  0.55925700  1
  C  1349  1  0.03900700  0.42348500  0.54697200  1
  C  1350  1  0.05483100  0.40141200  0.52517700  1
  C  1351  1  0.04277800  0.37503300  0.51471800  1
  C  1352  1  0.01382500  0.37175500  0.52800000  1
  C  1353  1  0.99698300  0.39303800  0.54984600  1
  C  1357  1  0.05441900  0.45003800  0.55528700  1
  C  1361  1  0.96647800  0.38623600  0.56126000  1
  C  1365  1  0.02906700  0.43831700  0.61552900  1
  C  1369  1  0.95179800  0.44570400  0.54701700  1
  C  1373  1  0.95676000  0.13439700  0.51230400  1
  C  1374  1  0.94752500  0.11781900  0.52270900  1
  C  1375  1  0.96422700  0.11878700  0.54479800  1
  C  1376  1  0.99169200  0.13737300  0.55748400  1
  C  1377  1  0.00104400  0.15507500  0.54832200  1
  C  1378  1  0.98331900  0.15328100  0.52619500  1
  C  1380  1  0.00951100  0.13831800  0.57940800  1
  C  1381  1  0.03900200  0.12178900  0.57516200  1
  C  1382  1  0.05482600  0.12206500  0.59723200  1
  C  1383  1  0.04277300  0.13798200  0.62361200  1
  C  1384  1  0.01381900  0.15454400  0.62689200  1
  C  1385  1  0.99697800  0.15510700  0.60560700  1
  C  1389  1  0.05441600  0.10355400  0.54861000  1
  C  1393  1  0.96647100  0.17332300  0.61241300  1
  C  1397  1  0.02904800  0.17552600  0.56034200  1
  C  1401  1  0.95180100  0.09960900  0.55293600  1
  C  1405  1  0.95675100  0.37621500  0.86426000  1
  C  1406  1  0.94751800  0.40319700  0.88083900  1
  C  1407  1  0.96422000  0.42432000  0.87987400  1
  C  1408  1  0.99168700  0.41842200  0.86128900  1
  C  1409  1  0.00104200  0.39156000  0.84358700  1
  C  1410  1  0.98331600  0.37122400  0.84537800  1
  C  1412  1  0.00950400  0.43940200  0.86034400  1
  C  1413  1  0.03900000  0.45168400  0.87686900  1
  C  1414  1  0.05482800  0.47347300  0.87658400  1
  C  1415  1  0.04278300  0.48392800  0.86065900  1
  C  1416  1  0.01381700  0.47065200  0.84410900  1
  C  1417  1  0.99697000  0.44881000  0.84355200  1
  C  1421  1  0.05441100  0.44337000  0.89510700  1
  C  1425  1  0.96645900  0.43740100  0.82534200  1
  C  1429  1  0.02904800  0.38312900  0.82313800  1
  C  1433  1  0.95179200  0.45163400  0.89905100  1
  C  1437  1  0.45674800  0.51162100  0.37688500  1
  C  1438  1  0.44751900  0.52202500  0.40386800  1
  C  1439  1  0.46422400  0.54411000  0.42499100  1
  C  1440  1  0.49169600  0.55679300  0.41909200  1
  C  1441  1  0.50105500  0.54762900  0.39222900  1
  C  1442  1  0.48332300  0.52550400  0.37189400  1
  C  1444  1  0.50951500  0.57871700  0.44007100  1
  C  1445  1  0.53900500  0.57447300  0.45235500  1
  C  1446  1  0.55483400  0.59654600  0.47414600  1
  C  1447  1  0.54278900  0.62292600  0.48460100  1
  C  1448  1  0.51382500  0.62620100  0.47132400  1
  C  1449  1  0.49698200  0.60491700  0.44947900  1
  C  1453  1  0.55441700  0.54791900  0.44404200  1
  C  1457  1  0.46647200  0.61171900  0.43806800  1
  C  1461  1  0.52906700  0.55964200  0.38380000  1
  C  1465  1  0.45179600  0.55224900  0.45230700  1
  C  1469  1  0.45674800  0.86355400  0.48701300  1
  C  1470  1  0.44752200  0.88013400  0.47660800  1
  C  1471  1  0.46422700  0.87916900  0.45452300  1
  C  1472  1  0.49169900  0.86058600  0.44184100  1
  C  1473  1  0.50105500  0.84288900  0.45100700  1
  C  1474  1  0.48332300  0.84468100  0.47313200  1
  C  1476  1  0.50952000  0.85964100  0.41991800  1
  C  1477  1  0.53901100  0.87617000  0.42416200  1
  C  1478  1  0.55483400  0.87589100  0.40208900  1
  C  1479  1  0.54278100  0.85997300  0.37571100  1
  C  1480  1  0.51382800  0.84341300  0.37243300  1
  C  1481  1  0.49698500  0.84285000  0.39371700  1
  C  1485  1  0.55442200  0.89440800  0.45071600  1
  C  1489  1  0.46648000  0.82463500  0.38691500  1
  C  1493  1  0.52907000  0.82244600  0.43899500  1
  C  1497  1  0.45180100  0.89834500  0.44638300  1
  C  1501  1  0.45675300  0.62175100  0.13507800  1
  C  1502  1  0.44751600  0.59476900  0.11850100  1
  C  1503  1  0.46421600  0.57364700  0.11946800  1
  C  1504  1  0.49168300  0.57954700  0.13805400  1
  C  1505  1  0.50103700  0.60641000  0.15575700  1
  C  1506  1  0.48331000  0.62674500  0.15396200  1
  C  1508  1  0.50950400  0.55856800  0.13899800  1
  C  1509  1  0.53899800  0.54628600  0.12246900  1
  C  1510  1  0.55482400  0.52449300  0.12274700  1
  C  1511  1  0.54277600  0.51403300  0.13866800  1
  C  1512  1  0.51381800  0.52731000  0.15522400  1
  C  1513  1  0.49697200  0.54915700  0.15578600  1
  C  1517  1  0.55440700  0.55460300  0.10423100  1
  C  1521  1  0.46646400  0.56056500  0.17400100  1
  C  1525  1  0.52904400  0.61484100  0.17620700  1
  C  1529  1  0.45179000  0.54633100  0.10029100  1
  C  1533  1  0.03946100  0.51031700  0.37101200  1
  C  1534  1  0.04907300  0.52263400  0.39812000  1
  C  1535  1  0.03217800  0.54529700  0.41836300  1
  C  1536  1  0.00406100  0.55662500  0.41141600  1
  C  1537  1  0.99475000  0.54580700  0.38427600  1
  C  1538  1  0.01279700  0.52322200  0.36481400  1
  C  1540  1  0.98498000  0.57826500  0.43178300  1
  C  1541  1  0.95712600  0.57341800  0.44499900  1
  C  1542  1  0.94205600  0.59508700  0.46763500  1
  C  1543  1  0.95359600  0.62159400  0.47819500  1
  C  1544  1  0.97970900  0.62565600  0.46331200  1
  C  1545  1  0.99575700  0.60477100  0.44061700  1
  C  1549  1  0.94325400  0.54654700  0.43716400  1
  C  1553  1  0.02416400  0.61221800  0.42804200  1
  C  1557  1  0.96617300  0.55637800  0.37478200  1
  C  1561  1  0.04487700  0.55524500  0.44599400  1
  C  1565  1  0.03945100  0.85902100  0.48832900  1
  C  1566  1  0.04907600  0.87381000  0.47601200  1
  C  1567  1  0.03218600  0.87138500  0.45334500  1
  C  1568  1  0.00407700  0.85310400  0.44201000  1
  C  1569  1  0.99477300  0.83677300  0.45282000  1
  C  1570  1  0.01281300  0.83989700  0.47540700  1
  C  1572  1  0.98499600  0.85183100  0.42037000  1
  C  1573  1  0.95714000  0.86989400  0.42521900  1
  C  1574  1  0.94206800  0.87086200  0.40355200  1
  C  1575  1  0.95361100  0.85492100  0.37704500  1
  C  1576  1  0.97972300  0.83597400  0.37298000  1
  C  1577  1  0.99577300  0.83416200  0.39386400  1
  C  1581  1  0.94326400  0.88892600  0.45209000  1
  C  1585  1  0.02418200  0.81414200  0.38641500  1
  C  1589  1  0.96621100  0.81669600  0.44223700  1
  C  1593  1  0.04488500  0.88907200  0.44340100  1
  C  1597  1  0.03946600  0.62761700  0.13962900  1
  C  1598  1  0.04908600  0.60051100  0.12484000  1
  C  1599  1  0.03219300  0.58026800  0.12726300  1
  C  1600  1  0.00408500  0.58721600  0.14554400  1
  C  1601  1  0.99478100  0.61435700  0.16187400  1
  C  1602  1  0.01282100  0.63382000  0.15874900  1
  C  1604  1  0.98500200  0.56684900  0.14681700  1
  C  1605  1  0.95714300  0.55363800  0.12875600  1
  C  1606  1  0.94206400  0.53100700  0.12779200  1
  C  1607  1  0.95358900  0.52044900  0.14374500  1
  C  1608  1  0.97972200  0.53532000  0.16267700  1
  C  1609  1  0.99578000  0.55801200  0.16448500  1
  C  1613  1  0.94327300  0.56147500  0.10972100  1
  C  1617  1  0.02419600  0.57057500  0.18449900  1
  C  1621  1  0.96621700  0.62385100  0.18194900  1
  C  1625  1  0.04489000  0.55263800  0.10957600  1
  C  1629  1  0.53947000  0.48764100  0.62830300  1
  C  1630  1  0.54908400  0.47532700  0.60119500  1
  C  1631  1  0.53218900  0.45266400  0.58095100  1
  C  1632  1  0.50407500  0.44133300  0.58789600  1
  C  1633  1  0.49476300  0.45214800  0.61503700  1
  C  1634  1  0.51280800  0.47473200  0.63450000  1
  C  1636  1  0.48499200  0.41969400  0.56753000  1
  C  1637  1  0.45713400  0.42454200  0.55431600  1
  C  1638  1  0.44205600  0.40287200  0.53168400  1
  C  1639  1  0.45358500  0.37636300  0.52112800  1
  C  1640  1  0.47971400  0.37230400  0.53600200  1
  C  1641  1  0.49577000  0.39318800  0.55869300  1
  C  1645  1  0.44326300  0.45141300  0.56215000  1
  C  1649  1  0.52418600  0.38574100  0.57126200  1
  C  1653  1  0.46618800  0.44157300  0.62452900  1
  C  1657  1  0.54488800  0.44272000  0.55332100  1
  C  1661  1  0.53946400  0.13895900  0.51099700  1
  C  1662  1  0.54907600  0.12416700  0.52331300  1
  C  1663  1  0.53217800  0.12658800  0.54597500  1
  C  1664  1  0.50406200  0.14486300  0.55730300  1
  C  1665  1  0.49475000  0.16118500  0.54648500  1
  C  1666  1  0.51279800  0.15806400  0.52390200  1
  C  1668  1  0.48497900  0.14613800  0.57894400  1
  C  1669  1  0.45712300  0.12807300  0.57409600  1
  C  1670  1  0.44205300  0.12710600  0.59576400  1
  C  1671  1  0.45359200  0.14305300  0.62227100  1
  C  1672  1  0.47970600  0.16199800  0.62633300  1
  C  1673  1  0.49575400  0.16381000  0.60544900  1
  C  1677  1  0.44325300  0.10903600  0.54722300  1
  C  1681  1  0.52416000  0.18383100  0.61289800  1
  C  1685  1  0.46617500  0.18125100  0.55705600  1
  C  1689  1  0.54487800  0.10890500  0.55592300  1
  C  1693  1  0.53945700  0.37034900  0.85970000  1
  C  1694  1  0.54908200  0.39745500  0.87449200  1
  C  1695  1  0.53219400  0.41769800  0.87206800  1
  C  1696  1  0.50408600  0.41075300  0.85378600  1
  C  1697  1  0.49477900  0.38361200  0.83745300  1
  C  1698  1  0.51281900  0.36414900  0.84057700  1
  C  1700  1  0.48500500  0.43112100  0.85251500  1
  C  1701  1  0.45714400  0.44433300  0.87057400  1
  C  1702  1  0.44206900  0.46696500  0.87153900  1
  C  1703  1  0.45360000  0.47752700  0.85559200  1
  C  1704  1  0.47972900  0.46265300  0.83665800  1
  C  1705  1  0.49578500  0.43996100  0.83485000  1
  C  1709  1  0.44326800  0.43649300  0.88960600  1
  C  1713  1  0.52420400  0.42739600  0.81483600  1
  C  1717  1  0.46621900  0.37412100  0.81737600  1
  C  1721  1  0.54489100  0.44532800  0.88975700  1
  C  1725  1  0.94272000  0.64775600  0.57504300  1
  C  1726  1  0.92769100  0.62351800  0.57034500  1
  C  1727  1  0.92903800  0.61425600  0.58852400  1
  C  1728  1  0.94726700  0.62959800  0.61284300  1
  C  1729  1  0.96381200  0.65367400  0.61812500  1
  C  1730  1  0.96105700  0.66224000  0.59927800  1
  C  1732  1  0.95011000  0.61936600  0.63051000  1
  C  1733  1  0.97507000  0.59918300  0.62488200  1
  C  1734  1  0.96981200  0.58226700  0.63542600  1
  C  1735  1  0.94052800  0.58401900  0.65117800  1
  C  1736  1  0.91979500  0.60706200  0.65977800  1
  C  1737  1  0.92323600  0.62427200  0.64929700  1
  C  1741  1  0.00539400  0.59322900  0.60668300  1
  C  1745  1  0.89674100  0.64570400  0.65755200  1
  C  1749  1  0.98404400  0.67082100  0.64271700  1
  C  1753  1  0.91056600  0.58868600  0.58038600  1
  C  1757  1  0.94270500  0.92559800  0.35087400  1
  C  1758  1  0.92768500  0.94513700  0.37511600  1
  C  1759  1  0.96105500  0.93534700  0.33639400  1
  C  1761  1  0.95011300  0.00945300  0.37926800  1
  C  1762  1  0.97507700  0.02400800  0.39944600  1
  C  1763  1  0.96982000  0.05146800  0.41636200  1
  C  1764  1  0.94053100  0.06546600  0.41461700  1
  C  1765  1  0.91979200  0.05102400  0.39157800  1
  C  1766  1  0.92323300  0.02333400  0.37436700  1
  C  1770  1  0.00540400  0.01176100  0.40539500  1
  C  1773  1  0.89673400  0.01015500  0.35293600  1
  C  1777  1  0.94272600  0.42360000  0.07304800  1
  C  1778  1  0.92771000  0.42830300  0.05350900  1
  C  1779  1  0.92906300  0.41012700  0.02606900  1
  C  1780  1  0.94727400  0.38579900  0.01709200  1
  C  1781  1  0.96380300  0.38051300  0.03588800  1
  C  1782  1  0.96105100  0.39936000  0.06330000  1
  C  1784  1  0.95009600  0.36812200  0.98919400  1
  C  1785  1  0.97508400  0.37370800  0.97462500  1
  C  1786  1  0.96982800  0.36314900  0.94716200  1
  C  1787  1  0.94050800  0.34744100  0.93317700  1
  C  1788  1  0.91973400  0.33888300  0.94763400  1
  C  1789  1  0.92318300  0.34936800  0.97532700  1
  C  1793  1  0.00544100  0.39187300  0.98685600  1
  C  1797  1  0.89665900  0.34115200  0.98851800  1
  C  1801  1  0.98401200  0.35591000  0.02844300  1
  C  1805  1  0.91061400  0.41827300  0.00863400  1
  C  1809  1  0.44272100  0.35020600  0.42427700  1
  C  1810  1  0.42769800  0.37444700  0.42897900  1
  C  1811  1  0.42904600  0.38370800  0.41080000  1
  C  1812  1  0.44726900  0.36836400  0.38647800  1
  C  1813  1  0.46380700  0.34428600  0.38119500  1
  C  1814  1  0.46105600  0.33572000  0.40004100  1
  C  1816  1  0.45010300  0.37859300  0.36880800  1
  C  1817  1  0.47507500  0.39876500  0.37442100  1
  C  1818  1  0.46981800  0.41567600  0.36387100  1
  C  1819  1  0.44052200  0.41393300  0.34813200  1
  C  1820  1  0.41977300  0.39090100  0.33954800  1
  C  1821  1  0.42321800  0.37369300  0.35003300  1
  C  1825  1  0.50541000  0.40471400  0.39260900  1
  C  1829  1  0.39671000  0.35227000  0.34179100  1
  C  1833  1  0.48403200  0.32713600  0.35659900  1
  C  1837  1  0.41058100  0.40928300  0.41894100  1
  C  1841  1  0.44271600  0.07236600  0.64843200  1
  C  1842  1  0.42769000  0.05282600  0.62419300  1
  C  1843  1  0.42903800  0.02538700  0.61493100  1
  C  1844  1  0.44726300  0.01640800  0.63027400  1
  C  1845  1  0.46380400  0.03520300  0.65435100  1
  C  1846  1  0.46105000  0.06261600  0.66291900  1
  C  1848  1  0.46981000  0.94649300  0.58295200  1
  C  1849  1  0.44052000  0.93249500  0.58469700  1
  C  1850  1  0.41977800  0.94694100  0.60773600  1
  C  1856  1  0.48403200  0.02775600  0.67150000  1
  C  1860  1  0.41057000  0.00795400  0.58935900  1
  C  1863  1  0.44270300  0.57437800  0.92627700  1
  C  1864  1  0.42768200  0.56967500  0.94581700  1
  C  1865  1  0.42903800  0.58785100  0.97325600  1
  C  1866  1  0.44726900  0.61217000  0.98223300  1
  C  1867  1  0.46381500  0.61745000  0.96343900  1
  C  1868  1  0.46105600  0.59860600  0.93602600  1
  C  1870  1  0.45011100  0.62983800  0.01013200  1
  C  1871  1  0.47507500  0.62421700  0.02468900  1
  C  1872  1  0.46981800  0.63476500  0.05215000  1
  C  1873  1  0.44052500  0.65050700  0.06614700  1
  C  1874  1  0.41978600  0.65910000  0.05170300  1
  C  1875  1  0.42322800  0.64861900  0.02401200  1
  C  1879  1  0.50540500  0.60602600  0.01244600  1
  C  1883  1  0.39672900  0.65686800  0.01083100  1
  C  1887  1  0.48405300  0.64204100  0.97088500  1
  C  1891  1  0.41057300  0.57971100  0.99068900  1
  C  1895  1  0.55316000  0.06315400  0.41653000  1
  C  1896  1  0.56192700  0.04456500  0.42458500  1
  C  1897  1  0.55986500  0.01687300  0.40783400  1
  C  1898  1  0.55008800  0.00669600  0.38087100  1
  C  1899  1  0.54025200  0.02453300  0.37196300  1
  C  1900  1  0.54134200  0.05219400  0.39003200  1
  C  1902  1  0.53251500  0.93396700  0.34644800  1
  C  1903  1  0.56673900  0.92330900  0.34177800  1
  C  1904  1  0.59394200  0.94113800  0.34496300  1
  C  1909  1  0.52976900  0.01589500  0.34416000  1
  C  1912  1  0.56969600  0.00035300  0.41988700  1
  C  1915  1  0.55312400  0.58210500  0.64696700  1
  C  1916  1  0.56190600  0.57406200  0.62032800  1
  C  1917  1  0.55985200  0.59081400  0.60938900  1
  C  1918  1  0.55008000  0.61777800  0.62617500  1
  C  1919  1  0.54025200  0.62668700  0.65292300  1
  C  1920  1  0.54133900  0.60861400  0.66251000  1
  C  1922  1  0.55411500  0.63576100  0.61642900  1
  C  1923  1  0.52563800  0.64096100  0.60402800  1
  C  1924  1  0.53250700  0.65219300  0.58786300  1
  C  1925  1  0.56673100  0.65686000  0.58187300  1
  C  1926  1  0.59393400  0.65368500  0.59652500  1
  C  1927  1  0.58838500  0.64370700  0.61391000  1
  C  1931  1  0.48873400  0.63375300  0.60553600  1
  C  1935  1  0.61982600  0.64045600  0.62713100  1
  C  1939  1  0.52977900  0.65448900  0.67208900  1
  C  1943  1  0.56968800  0.57876400  0.58081700  1
  C  1947  1  0.55315200  0.35166400  0.93548200  1
  C  1948  1  0.56192500  0.37830300  0.95407700  1
  C  1949  1  0.55985700  0.38923800  0.98176600  1
  C  1950  1  0.55007000  0.37245300  0.99194200  1
  C  1951  1  0.54023400  0.34570900  0.97409900  1
  C  1952  1  0.54132900  0.33612200  0.94643900  1
  C  1954  1  0.55409900  0.38219600  0.01967300  1
  C  1955  1  0.52562300  0.39460300  0.03727000  1
  C  1956  1  0.53249100  0.41077100  0.06466700  1
  C  1957  1  0.56671800  0.41676600  0.07532100  1
  C  1958  1  0.59391600  0.40209800  0.05749800  1
  C  1959  1  0.58836700  0.38470800  0.03013700  1
  C  1963  1  0.48872100  0.39309900  0.02855300  1
  C  1967  1  0.61980600  0.37147400  0.01366600  1
  C  1971  1  0.52973800  0.32654200  0.98273000  1
  C  1975  1  0.56969800  0.41781200  0.99829500  1
  C  1979  1  0.05315200  0.93480500  0.58279400  1
  C  1980  1  0.06192100  0.95340100  0.57475000  1
  C  1981  1  0.04133900  0.94576500  0.60929700  1
  C  1983  1  0.05411400  0.01899400  0.63645300  1
  C  1984  1  0.02563500  0.03659300  0.64165000  1
  C  1985  1  0.03250400  0.06399000  0.65288000  1
  C  1986  1  0.06673000  0.07464500  0.65754100  1
  C  1987  1  0.09393400  0.05682100  0.65437600  1
  C  1988  1  0.08838200  0.02946000  0.64440100  1
  C  1992  1  0.98873400  0.02787600  0.63444200  1
  C  1996  1  0.11982600  0.01298500  0.64115300  1
  C  2001  1  0.05315200  0.41585300  0.35235400  1
  C  2002  1  0.06191900  0.42390600  0.37899700  1
  C  2003  1  0.05985300  0.40715500  0.38993600  1
  C  2004  1  0.05007400  0.38019300  0.37315400  1
  C  2005  1  0.04023800  0.37128500  0.34640700  1
  C  2006  1  0.04133100  0.38935300  0.33681600  1
  C  2008  1  0.05411100  0.36220800  0.38289800  1
  C  2009  1  0.02563200  0.35700700  0.39529800  1
  C  2010  1  0.03250100  0.34577200  0.41146100  1
  C  2011  1  0.06672700  0.34110100  0.41744800  1
  C  2012  1  0.09393100  0.34428200  0.40279900  1
  C  2013  1  0.08837900  0.35426300  0.38541700  1
  C  2017  1  0.98873100  0.36421800  0.39379400  1
  C  2021  1  0.11982300  0.35751800  0.37219800  1
  C  2025  1  0.02975000  0.34348400  0.32724500  1
  C  2029  1  0.06968700  0.41920700  0.41851000  1
  C  2033  1  0.05313300  0.64629100  0.06384000  1
  C  2034  1  0.06191400  0.61965300  0.04524400  1
  C  2035  1  0.05986100  0.60871500  0.01755200  1
  C  2036  1  0.05008800  0.62550100  0.00737500  1
  C  2037  1  0.04026200  0.65225000  0.02521600  1
  C  2038  1  0.04134900  0.66183600  0.05287400  1
  C  2040  1  0.05412200  0.61575600  0.97964500  1
  C  2041  1  0.02564300  0.60335700  0.96204700  1
  C  2042  1  0.03250900  0.58719000  0.93464800  1
  C  2043  1  0.06673300  0.58119800  0.92399100  1
  C  2044  1  0.09393900  0.59585100  0.94181800  1
  C  2045  1  0.08839000  0.61323700  0.96917900  1
  C  2049  1  0.98874100  0.60486700  0.97076400  1
  C  2053  1  0.11983300  0.62645800  0.98565200  1
  C  2057  1  0.02978900  0.67141900  0.01658100  1
  C  2061  1  0.06969500  0.58014200  0.00102800  1
