# generated using pymatgen
data_H3C5N
_symmetry_space_group_name_H-M   'P 1'
_cell_length_a   35.16760000
_cell_length_b   40.23610000
_cell_length_c   40.23610000
_cell_angle_alpha   90.00000000
_cell_angle_beta   90.00000000
_cell_angle_gamma   90.00000000
_symmetry_Int_Tables_number   1
_chemical_formula_structural   H3C5N
_chemical_formula_sum   'H288 C480 N96'
_cell_volume   56934.36598371
_cell_formula_units_Z   96
loop_
 _symmetry_equiv_pos_site_id
 _symmetry_equiv_pos_as_xyz
  1  'x, y, z'
loop_
 _atom_site_type_symbol
 _atom_site_label
 _atom_site_symmetry_multiplicity
 _atom_site_fract_x
 _atom_site_fract_y
 _atom_site_fract_z
 _atom_site_occupancy
  H  91  1  0.14484700  0.20946500  0.42149500  1
  H  92  1  0.18957100  0.18175200  0.45618500  1
  H  93  1  0.22845600  0.28052400  0.39629100  1
  H  94  1  0.35225000  0.10777400  0.50250400  1
  H  95  1  0.23308500  0.10255200  0.49032100  1
  H  96  1  0.23581500  0.04353300  0.49537100  1
  H  97  1  0.35470700  0.04874700  0.50859800  1
  H  98  1  0.38245400  0.19882800  0.53638200  1
  H  99  1  0.31188600  0.28607900  0.59191100  1
  H  100  1  0.28103800  0.25288200  0.55150700  1
  H  101  1  0.41344800  0.23181800  0.57781700  1
  H  108  1  0.25106800  0.14905700  0.45399500  1
  H  109  1  0.32804300  0.15642000  0.53357800  1
  H  110  1  0.28180600  0.24264100  0.49118300  1
  H  111  1  0.27323300  0.25237300  0.43037700  1
  H  115  1  0.36400800  0.29304000  0.62957900  1
  H  116  1  0.29849000  0.99872000  0.53080200  1
  H  117  1  0.12732600  0.25816900  0.38789100  1
  H  136  1  0.14481900  0.78071500  0.56880300  1
  H  137  1  0.18954700  0.80842400  0.53411500  1
  H  138  1  0.22846200  0.70971600  0.59410400  1
  H  139  1  0.35186300  0.88297100  0.48823300  1
  H  140  1  0.23252700  0.88721400  0.49946500  1
  H  141  1  0.23462300  0.94622000  0.49427800  1
  H  142  1  0.35372000  0.94206000  0.48209700  1
  H  143  1  0.38251400  0.79156100  0.45397600  1
  H  144  1  0.31195500  0.70428600  0.39847300  1
  H  145  1  0.28112400  0.73745500  0.43890200  1
  H  146  1  0.41349400  0.75859000  0.41251000  1
  H  153  1  0.25091800  0.84115800  0.53635700  1
  H  154  1  0.32802900  0.83396800  0.45686900  1
  H  155  1  0.28194300  0.74763500  0.49922100  1
  H  156  1  0.27324600  0.73787000  0.56002200  1
  H  160  1  0.36403900  0.69742100  0.36072300  1
  H  161  1  0.29310800  0.99150600  0.45926900  1
  H  162  1  0.12731400  0.73204700  0.60245400  1
  H  181  1  0.64484600  0.56883800  0.20951600  1
  H  182  1  0.68956600  0.53413300  0.18181500  1
  H  183  1  0.72844800  0.59403600  0.28058400  1
  H  184  1  0.85215000  0.48788500  0.10772200  1
  H  185  1  0.73294700  0.49987000  0.10271800  1
  H  186  1  0.73553400  0.49479500  0.04370200  1
  H  187  1  0.85447300  0.48178400  0.04868000  1
  H  188  1  0.88245400  0.45392300  0.19884900  1
  H  189  1  0.81190300  0.39840900  0.28611900  1
  H  190  1  0.78105100  0.43881300  0.25292500  1
  H  191  1  0.91345400  0.41248800  0.23183800  1
  H  198  1  0.75103200  0.53632500  0.14913100  1
  H  199  1  0.82803400  0.45675900  0.15644000  1
  H  200  1  0.78183300  0.49913400  0.24269600  1
  H  201  1  0.77322200  0.55993800  0.25244300  1
  H  205  1  0.86401600  0.36072100  0.29305300  1
  H  206  1  0.79722500  0.45939600  0.99879500  1
  H  207  1  0.62733300  0.60248900  0.25818400  1
  H  226  1  0.64483700  0.42149000  0.78081200  1
  H  227  1  0.68957200  0.45617300  0.80851600  1
  H  228  1  0.72844500  0.39623400  0.70976800  1
  H  229  1  0.85196200  0.50219100  0.88291600  1
  H  230  1  0.73266800  0.49068900  0.88738500  1
  H  231  1  0.73490900  0.49585300  0.94639700  1
  H  232  1  0.85395300  0.50832700  0.94199000  1
  H  233  1  0.88250800  0.53631500  0.79154600  1
  H  234  1  0.81190600  0.59185900  0.70432600  1
  H  235  1  0.78107900  0.55143500  0.73751000  1
  H  236  1  0.91348500  0.57777000  0.75856000  1
  H  243  1  0.75097500  0.45395100  0.84123000  1
  H  244  1  0.82803400  0.53347100  0.83399000  1
  H  245  1  0.78190900  0.49110600  0.74768700  1
  H  246  1  0.77323700  0.43031000  0.73791500  1
  H  250  1  0.86402200  0.62953400  0.69735200  1
  H  251  1  0.79437800  0.53104300  0.99156000  1
  H  252  1  0.62731600  0.38784800  0.73214100  1
  H  271  1  0.92632300  0.78619000  0.57582600  1
  H  272  1  0.88320100  0.81296700  0.53908800  1
  H  273  1  0.84250200  0.71414000  0.59825700  1
  H  274  1  0.72350600  0.88279200  0.48475600  1
  H  275  1  0.84209000  0.88957700  0.50094100  1
  H  276  1  0.83869200  0.94854900  0.49531700  1
  H  277  1  0.72033600  0.94187300  0.47830000  1
  H  278  1  0.69985700  0.79105100  0.45016300  1
  H  279  1  0.77605700  0.70569500  0.39694500  1
  H  280  1  0.80412600  0.74021900  0.43820600  1
  H  281  1  0.67191100  0.75712400  0.40829800  1
  H  288  1  0.82029400  0.84434700  0.53909300  1
  H  289  1  0.75296800  0.83490500  0.45328700  1
  H  290  1  0.79737000  0.74982900  0.49960900  1
  H  291  1  0.79918100  0.74146900  0.56198800  1
  H  295  1  0.72291500  0.69423300  0.35969200  1
  H  296  1  0.77901800  0.99309600  0.45898400  1
  H  297  1  0.94258000  0.73881400  0.60961700  1
  H  316  1  0.92630900  0.20403000  0.41452600  1
  H  317  1  0.88317900  0.17724400  0.45125400  1
  H  318  1  0.84252200  0.27613300  0.39217000  1
  H  319  1  0.72332100  0.10771800  0.50582200  1
  H  320  1  0.84177400  0.10043900  0.48912800  1
  H  321  1  0.83804300  0.04146800  0.49461300  1
  H  322  1  0.71983500  0.04866000  0.51218000  1
  H  323  1  0.69988800  0.19924800  0.54022200  1
  H  324  1  0.77606600  0.28461000  0.59345500  1
  H  325  1  0.80415400  0.25008600  0.55220300  1
  H  326  1  0.67192800  0.23317200  0.58207700  1
  H  333  1  0.82020600  0.14590900  0.45127700  1
  H  334  1  0.75295700  0.15540900  0.53713000  1
  H  335  1  0.79744400  0.24043900  0.49080600  1
  H  336  1  0.79919500  0.24879700  0.42842900  1
  H  340  1  0.72290600  0.29608700  0.63067800  1
  H  341  1  0.77605700  0.99713500  0.53111000  1
  H  342  1  0.94258300  0.25143100  0.38076300  1
  H  361  1  0.42631300  0.41449600  0.78627700  1
  H  362  1  0.38318500  0.45121700  0.81306100  1
  H  363  1  0.34251400  0.39210100  0.71420000  1
  H  364  1  0.22341500  0.50571800  0.88271800  1
  H  365  1  0.34192000  0.48921000  0.88978600  1
  H  366  1  0.33833400  0.49476200  0.94876000  1
  H  367  1  0.22006700  0.51212700  0.94178400  1
  H  368  1  0.19987900  0.54017700  0.79110100  1
  H  369  1  0.27606300  0.59337500  0.70571700  1
  H  370  1  0.30413800  0.55211900  0.74024400  1
  H  371  1  0.17192900  0.58203700  0.75717600  1
  H  378  1  0.32024300  0.45123700  0.84442900  1
  H  379  1  0.25298300  0.53708000  0.83494000  1
  H  380  1  0.29739900  0.49072400  0.74989700  1
  H  381  1  0.29918100  0.42835200  0.74153800  1
  H  385  1  0.22291400  0.63061100  0.69424300  1
  H  386  1  0.27723600  0.53121500  0.99319300  1
  H  387  1  0.44258900  0.38075300  0.73886400  1
  H  406  1  0.42632100  0.57580400  0.20411600  1
  H  407  1  0.38320200  0.53906600  0.17733200  1
  H  408  1  0.34251400  0.59817200  0.27620000  1
  H  409  1  0.22345900  0.48462200  0.10762200  1
  H  410  1  0.34199300  0.50100600  0.10065500  1
  H  411  1  0.33847300  0.49544600  0.04168200  1
  H  412  1  0.22017200  0.47821300  0.04854700  1
  H  413  1  0.19988200  0.45010600  0.19928700  1
  H  414  1  0.27607000  0.39687500  0.28464700  1
  H  415  1  0.30414900  0.43812700  0.25011900  1
  H  416  1  0.17192500  0.40824800  0.23321700  1
  H  423  1  0.32028000  0.53903900  0.14597900  1
  H  424  1  0.25298400  0.45321300  0.15543200  1
  H  425  1  0.29741000  0.49952900  0.24049700  1
  H  426  1  0.29919800  0.56190600  0.24886100  1
  H  430  1  0.22291500  0.35964000  0.29611500  1
  H  431  1  0.27791200  0.45904300  0.99720200  1
  H  432  1  0.44258000  0.60957200  0.25151100  1
  H  523  1  0.37232900  0.60711800  0.84400100  1
  H  524  1  0.41705300  0.57940500  0.87869100  1
  H  525  1  0.45593800  0.67817700  0.81879700  1
  H  526  1  0.57973200  0.50542700  0.92501000  1
  H  527  1  0.46056700  0.50020500  0.91282700  1
  H  528  1  0.46329700  0.44118600  0.91787700  1
  H  529  1  0.58218900  0.44640000  0.93110400  1
  H  530  1  0.60993600  0.59648100  0.95888800  1
  H  531  1  0.53936800  0.68373200  0.01441720  1
  H  532  1  0.50852000  0.65053500  0.97401300  1
  H  533  1  0.64093000  0.62947100  0.00032316  1
  H  540  1  0.47855000  0.54671000  0.87650100  1
  H  541  1  0.55552500  0.55407300  0.95608400  1
  H  542  1  0.50928800  0.64029400  0.91368900  1
  H  543  1  0.50071500  0.65002600  0.85288300  1
  H  547  1  0.59149000  0.69069300  0.05208520  1
  H  548  1  0.52597200  0.39637300  0.95330800  1
  H  549  1  0.35480800  0.65582200  0.81039700  1
  H  568  1  0.37230100  0.17836800  0.99130900  1
  H  569  1  0.41702900  0.20607700  0.95662100  1
  H  570  1  0.45594400  0.10736900  0.01661020  1
  H  571  1  0.57934500  0.28062400  0.91073900  1
  H  572  1  0.46000900  0.28486700  0.92197100  1
  H  573  1  0.46210500  0.34387300  0.91678400  1
  H  574  1  0.58120200  0.33971300  0.90460300  1
  H  575  1  0.60999600  0.18921400  0.87648200  1
  H  576  1  0.53943700  0.10193900  0.82097900  1
  H  577  1  0.50860600  0.13510800  0.86140800  1
  H  578  1  0.64097600  0.15624300  0.83501600  1
  H  585  1  0.47840000  0.23881100  0.95886300  1
  H  586  1  0.55551100  0.23162100  0.87937500  1
  H  587  1  0.50942500  0.14528800  0.92172700  1
  H  588  1  0.50072800  0.13552300  0.98252800  1
  H  592  1  0.59152100  0.09507390  0.78322900  1
  H  593  1  0.52059000  0.38915900  0.88177500  1
  H  594  1  0.35479600  0.12970000  0.02496020  1
  H  613  1  0.87232800  0.96649100  0.63202200  1
  H  614  1  0.91704800  0.93178600  0.60432100  1
  H  615  1  0.95593000  0.99168900  0.70309000  1
  H  616  1  0.07963210  0.88553800  0.53022800  1
  H  617  1  0.96042900  0.89752300  0.52522400  1
  H  618  1  0.96301600  0.89244800  0.46620800  1
  H  619  1  0.08195510  0.87943700  0.47118600  1
  H  620  1  0.10993600  0.85157600  0.62135500  1
  H  621  1  0.03938510  0.79606200  0.70862500  1
  H  622  1  0.00853311  0.83646600  0.67543100  1
  H  623  1  0.14093600  0.81014100  0.65434400  1
  H  630  1  0.97851400  0.93397800  0.57163700  1
  H  631  1  0.05551610  0.85441200  0.57894600  1
  H  632  1  0.00931511  0.89678700  0.66520200  1
  H  633  1  0.00070411  0.95759100  0.67494900  1
  H  637  1  0.09149810  0.75837400  0.71555900  1
  H  638  1  0.02470710  0.85704900  0.42130100  1
  H  639  1  0.85481500  0.00014185  0.68069000  1
  H  658  1  0.87231900  0.81914300  0.20331800  1
  H  659  1  0.91705400  0.85382600  0.23102200  1
  H  660  1  0.95592700  0.79388700  0.13227400  1
  H  661  1  0.07944410  0.89984400  0.30542200  1
  H  662  1  0.96015000  0.88834200  0.30989100  1
  H  663  1  0.96239100  0.89350600  0.36890300  1
  H  664  1  0.08143510  0.90598000  0.36449600  1
  H  665  1  0.10999000  0.93396800  0.21405200  1
  H  666  1  0.03938810  0.98951200  0.12683200  1
  H  667  1  0.00856111  0.94908800  0.16001600  1
  H  668  1  0.14096700  0.97542300  0.18106600  1
  H  675  1  0.97845700  0.85160400  0.26373600  1
  H  676  1  0.05551610  0.93112400  0.25649600  1
  H  677  1  0.00939111  0.88875900  0.17019300  1
  H  678  1  0.00071911  0.82796300  0.16042100  1
  H  682  1  0.09150410  0.02718690  0.11985800  1
  H  683  1  0.02186010  0.92869600  0.41406600  1
  H  684  1  0.85479800  0.78550100  0.15464700  1
  H  703  1  0.15380500  0.18384300  0.99833200  1
  H  704  1  0.11068300  0.21062000  0.96159400  1
  H  705  1  0.06998410  0.11179300  0.02076320  1
  H  706  1  0.95098800  0.28044500  0.90726200  1
  H  707  1  0.06957210  0.28723000  0.92344700  1
  H  708  1  0.06617410  0.34620200  0.91782300  1
  H  709  1  0.94781800  0.33952600  0.90080600  1
  H  710  1  0.92733900  0.18870400  0.87266900  1
  H  711  1  0.00353911  0.10334800  0.81945100  1
  H  712  1  0.03160810  0.13787200  0.86071200  1
  H  713  1  0.89939300  0.15477700  0.83080400  1
  H  720  1  0.04777610  0.24200000  0.96159900  1
  H  721  1  0.98045000  0.23255800  0.87579300  1
  H  722  1  0.02485210  0.14748200  0.92211500  1
  H  723  1  0.02666310  0.13912200  0.98449400  1
  H  727  1  0.95039700  0.09188590  0.78219800  1
  H  728  1  0.00650011  0.39074900  0.88149000  1
  H  729  1  0.17006200  0.13646700  0.03212320  1
  H  748  1  0.15379100  0.60168300  0.83703200  1
  H  749  1  0.11066100  0.57489700  0.87376000  1
  H  750  1  0.07000410  0.67378600  0.81467600  1
  H  751  1  0.95080300  0.50537100  0.92832800  1
  H  752  1  0.06925610  0.49809200  0.91163400  1
  H  753  1  0.06552510  0.43912100  0.91711900  1
  H  754  1  0.94731700  0.44631300  0.93468600  1
  H  755  1  0.92737000  0.59690100  0.96272800  1
  H  756  1  0.00354811  0.68226300  0.01596120  1
  H  757  1  0.03163610  0.64773900  0.97470900  1
  H  758  1  0.89941000  0.63082500  0.00458316  1
  H  765  1  0.04768810  0.54356200  0.87378300  1
  H  766  1  0.98043900  0.55306200  0.95963600  1
  H  767  1  0.02492610  0.63809200  0.91331200  1
  H  768  1  0.02667710  0.64645000  0.85093500  1
  H  772  1  0.95038800  0.69374000  0.05318420  1
  H  773  1  0.00353911  0.39478800  0.95361600  1
  H  774  1  0.17006500  0.64908400  0.80326900  1
  H  793  1  0.65379500  0.81214900  0.20878300  1
  H  794  1  0.61066700  0.84887000  0.23556700  1
  H  795  1  0.56999600  0.78975400  0.13670600  1
  H  796  1  0.45089700  0.90337100  0.30522400  1
  H  797  1  0.56940200  0.88686300  0.31229200  1
  H  798  1  0.56581600  0.89241500  0.37126600  1
  H  799  1  0.44754900  0.90978000  0.36429000  1
  H  800  1  0.42736100  0.93783000  0.21360700  1
  H  801  1  0.50354500  0.99102800  0.12822300  1
  H  802  1  0.53162000  0.94977200  0.16275000  1
  H  803  1  0.39941100  0.97969000  0.17968200  1
  H  810  1  0.54772500  0.84889000  0.26693500  1
  H  811  1  0.48046500  0.93473300  0.25744600  1
  H  812  1  0.52488100  0.88837700  0.17240300  1
  H  813  1  0.52666300  0.82600500  0.16404400  1
  H  817  1  0.45039600  0.02826390  0.11674900  1
  H  818  1  0.50471800  0.92886800  0.41569900  1
  H  819  1  0.67007100  0.77840600  0.16137000  1
  H  838  1  0.65380300  0.97345700  0.62662200  1
  H  839  1  0.61068400  0.93671900  0.59983800  1
  H  840  1  0.56999600  0.99582500  0.69870600  1
  H  841  1  0.45094100  0.88227500  0.53012800  1
  H  842  1  0.56947500  0.89865900  0.52316100  1
  H  843  1  0.56595500  0.89309900  0.46418800  1
  H  844  1  0.44765400  0.87586600  0.47105300  1
  H  845  1  0.42736400  0.84775900  0.62179300  1
  H  846  1  0.50355200  0.79452800  0.70715300  1
  H  847  1  0.53163100  0.83578000  0.67262500  1
  H  848  1  0.39940700  0.80590100  0.65572300  1
  H  855  1  0.54776200  0.93669200  0.56848500  1
  H  856  1  0.48046600  0.85086600  0.57793800  1
  H  857  1  0.52489200  0.89718200  0.66300300  1
  H  858  1  0.52668000  0.95955900  0.67136700  1
  H  862  1  0.45039700  0.75729300  0.71862100  1
  H  863  1  0.50539400  0.85669600  0.41970800  1
  H  864  1  0.67006200  0.00722485  0.67401700  1
  C  1  1  0.08906000  0.33075500  0.32091100  1
  C  3  1  0.14973900  0.34988200  0.30482300  1
  C  5  1  0.14442000  0.30735100  0.34519300  1
  C  10  1  0.08905500  0.65950500  0.66947600  1
  C  12  1  0.14973500  0.64038000  0.68556100  1
  C  14  1  0.14441200  0.68289500  0.64517700  1
  C  19  1  0.58906400  0.66948100  0.33074800  1
  C  21  1  0.64974000  0.68554100  0.34990500  1
  C  23  1  0.64442500  0.64518200  0.30736300  1
  C  28  1  0.58905000  0.32081700  0.65960200  1
  C  30  1  0.64973100  0.30475100  0.64046000  1
  C  32  1  0.64440800  0.34511300  0.68299400  1
  C  37  1  0.49027500  0.66359100  0.32247400  1
  C  39  1  0.42973000  0.64654400  0.30362300  1
  C  41  1  0.43458100  0.68498500  0.34825200  1
  C  46  1  0.49026900  0.32671700  0.66788800  1
  C  48  1  0.42973300  0.34376100  0.68676400  1
  C  50  1  0.43456200  0.30533800  0.64211800  1
  C  55  1  0.99027400  0.32246700  0.32680900  1
  C  57  1  0.92973900  0.30355800  0.34381300  1
  C  59  1  0.93457000  0.34820700  0.30539300  1
  C  64  1  0.99027100  0.66779400  0.66358600  1
  C  66  1  0.92973300  0.68671400  0.64660600  1
  C  68  1  0.93457000  0.64205800  0.68501400  1
  C  73  1  0.29243400  0.11146400  0.49555500  1
  C  74  1  0.23620400  0.21400000  0.44677600  1
  C  75  1  0.32861800  0.22259500  0.53935200  1
  C  76  1  0.24625800  0.24296100  0.42880900  1
  C  77  1  0.21974900  0.25949300  0.40840200  1
  C  78  1  0.18185200  0.24789300  0.40510700  1
  C  79  1  0.17191300  0.21875800  0.42284400  1
  C  80  1  0.19851100  0.20213200  0.44313000  1
  C  81  1  0.25916100  0.09166300  0.49324100  1
  C  82  1  0.26064000  0.05680300  0.49639300  1
  C  83  1  0.29560700  0.04044600  0.50189500  1
  C  84  1  0.32897000  0.05982800  0.50423900  1
  C  85  1  0.32736900  0.09468800  0.50094100  1
  C  86  1  0.36721600  0.21713900  0.54796100  1
  C  87  1  0.38567000  0.23684000  0.57215300  1
  C  88  1  0.36603800  0.26259300  0.58889900  1
  C  89  1  0.32746300  0.26795400  0.58030500  1
  C  90  1  0.30920500  0.24844600  0.55611800  1
  C  102  1  0.30913100  0.20259000  0.51518400  1
  C  103  1  0.31181200  0.16747000  0.51558200  1
  C  104  1  0.29056000  0.14713200  0.49355900  1
  C  105  1  0.26616100  0.16319000  0.47053300  1
  C  106  1  0.26254800  0.19821800  0.46903700  1
  C  107  1  0.28451200  0.21730900  0.49151200  1
  C  112  1  0.38207600  0.28173500  0.61420700  1
  C  113  1  0.29674400  0.00639300  0.50734100  1
  C  114  1  0.15459000  0.26448600  0.38589700  1
  C  118  1  0.29203300  0.87881300  0.49475200  1
  C  119  1  0.23619900  0.77620900  0.54357700  1
  C  120  1  0.32870000  0.76775400  0.45105500  1
  C  121  1  0.24626100  0.74726500  0.56156600  1
  C  122  1  0.21974800  0.73073200  0.58197000  1
  C  123  1  0.18184100  0.74231600  0.58523300  1
  C  124  1  0.17189500  0.77143900  0.56748100  1
  C  125  1  0.19849500  0.78806400  0.54719800  1
  C  126  1  0.25851300  0.89832300  0.49676600  1
  C  127  1  0.25961500  0.93317200  0.49348000  1
  C  128  1  0.29445000  0.94981700  0.48827100  1
  C  129  1  0.32808300  0.93074700  0.48628700  1
  C  130  1  0.32684000  0.89586800  0.48960300  1
  C  131  1  0.36728700  0.77322900  0.44241900  1
  C  132  1  0.38573000  0.75354300  0.41820700  1
  C  133  1  0.36610100  0.72778200  0.40147000  1
  C  134  1  0.32754000  0.72239900  0.41009000  1
  C  135  1  0.30929300  0.74188900  0.43429900  1
  C  147  1  0.30921600  0.78773600  0.47524500  1
  C  148  1  0.31184100  0.82286600  0.47486200  1
  C  149  1  0.29045200  0.84314900  0.49683000  1
  C  150  1  0.26608100  0.82704600  0.51984700  1
  C  151  1  0.26255900  0.79201800  0.52134800  1
  C  152  1  0.28460300  0.77297000  0.49889800  1
  C  157  1  0.38211600  0.70867000  0.37612800  1
  C  158  1  0.29499600  0.98385100  0.48272600  1
  C  159  1  0.15457800  0.72573400  0.60445200  1
  C  163  1  0.79233400  0.49475700  0.11151500  1
  C  164  1  0.73619400  0.54353000  0.21407500  1
  C  165  1  0.82862600  0.45096800  0.22263200  1
  C  166  1  0.74624600  0.56149800  0.24303400  1
  C  167  1  0.71973900  0.58191100  0.25956300  1
  C  168  1  0.68184600  0.58521400  0.24795400  1
  C  169  1  0.67190500  0.56747300  0.21882200  1
  C  170  1  0.69849500  0.54716600  0.20221400  1
  C  171  1  0.75900800  0.49703100  0.09177800  1
  C  172  1  0.76039800  0.49383000  0.05692200  1
  C  173  1  0.79533700  0.48838500  0.04050100  1
  C  174  1  0.82875900  0.48611800  0.05981300  1
  C  175  1  0.82723800  0.48941600  0.09467700  1
  C  176  1  0.86722400  0.44235400  0.21716900  1
  C  177  1  0.88567200  0.41815000  0.23685900  1
  C  178  1  0.86605200  0.40141800  0.26262500  1
  C  179  1  0.82747700  0.41001300  0.26799100  1
  C  180  1  0.80921900  0.43420000  0.24848400  1
  C  192  1  0.80913900  0.47513800  0.20263000  1
  C  193  1  0.81178300  0.47473300  0.16750800  1
  C  194  1  0.79052200  0.49675800  0.14718400  1
  C  195  1  0.76613600  0.51978700  0.16325600  1
  C  196  1  0.76254200  0.52127800  0.19828500  1
  C  197  1  0.78452300  0.49880600  0.21736300  1
  C  202  1  0.88208700  0.37610300  0.28176200  1
  C  203  1  0.79633500  0.48290000  0.00645600  1
  C  204  1  0.65459100  0.60445500  0.26452400  1
  C  208  1  0.79213500  0.49556300  0.87886500  1
  C  209  1  0.73621400  0.44672600  0.77628300  1
  C  210  1  0.82866800  0.53928000  0.76778800  1
  C  211  1  0.74625700  0.42875700  0.74732400  1
  C  212  1  0.71974100  0.40835700  0.73079200  1
  C  213  1  0.68184300  0.40507400  0.74239600  1
  C  214  1  0.67190800  0.42281900  0.77152400  1
  C  215  1  0.69851200  0.44310700  0.78814100  1
  C  216  1  0.75867200  0.49348500  0.89844000  1
  C  217  1  0.75985800  0.49673600  0.93329400  1
  C  218  1  0.79472200  0.50201000  0.94987400  1
  C  219  1  0.82829300  0.50408500  0.93073200  1
  C  220  1  0.82697100  0.50077400  0.89585500  1
  C  221  1  0.86726600  0.54789600  0.77324100  1
  C  222  1  0.88570700  0.57209600  0.75354000  1
  C  223  1  0.86606100  0.58885700  0.72780400  1
  C  224  1  0.82749100  0.58025000  0.72244100  1
  C  225  1  0.80924700  0.55605300  0.74194600  1
  C  237  1  0.80919900  0.51508700  0.78777500  1
  C  238  1  0.81184300  0.51547000  0.82290100  1
  C  239  1  0.79049700  0.49348700  0.84320100  1
  C  240  1  0.76611900  0.47046600  0.82711100  1
  C  241  1  0.76257100  0.46896500  0.79208300  1
  C  242  1  0.78457700  0.49143200  0.77302300  1
  C  247  1  0.88209200  0.61416300  0.70865500  1
  C  248  1  0.79540800  0.50754400  0.98390800  1
  C  249  1  0.65457900  0.38585500  0.72581900  1
  C  253  1  0.78305500  0.88026700  0.49376300  1
  C  254  1  0.83672700  0.78010300  0.54711800  1
  C  255  1  0.75472000  0.76893700  0.44847300  1
  C  256  1  0.82582200  0.75130100  0.56487600  1
  C  257  1  0.85138500  0.73530000  0.58647400  1
  C  258  1  0.88883200  0.74750300  0.59097000  1
  C  259  1  0.89942100  0.77667600  0.57363400  1
  C  260  1  0.87382300  0.79272400  0.55214400  1
  C  261  1  0.81605400  0.90020900  0.49692700  1
  C  262  1  0.81419500  0.93491500  0.49334300  1
  C  263  1  0.77914300  0.95058000  0.48658600  1
  C  264  1  0.74604700  0.93103500  0.48334700  1
  C  265  1  0.74803700  0.89629500  0.48697100  1
  C  266  1  0.71634900  0.77335600  0.43892400  1
  C  267  1  0.69978800  0.75310000  0.41439700  1
  C  268  1  0.72109500  0.72778500  0.39851000  1
  C  269  1  0.75956800  0.72361400  0.40787300  1
  C  270  1  0.77606600  0.74379500  0.43246300  1
  C  282  1  0.77149600  0.78929700  0.47347100  1
  C  283  1  0.76753000  0.82425000  0.47258800  1
  C  284  1  0.78545800  0.84494800  0.49629800  1
  C  285  1  0.80750100  0.82975800  0.52148000  1
  C  286  1  0.81209600  0.79490300  0.52319500  1
  C  287  1  0.79376400  0.77508500  0.49902700  1
  C  292  1  0.70555500  0.70727600  0.37427800  1
  C  293  1  0.77774100  0.98452400  0.48216700  1
  C  294  1  0.91568300  0.73105500  0.61031300  1
  C  298  1  0.78283600  0.11000700  0.49657700  1
  C  299  1  0.83673000  0.21014000  0.44327400  1
  C  300  1  0.75475400  0.22136000  0.54193100  1
  C  301  1  0.82583000  0.23895200  0.42552600  1
  C  302  1  0.85139700  0.25495800  0.40393600  1
  C  303  1  0.88883400  0.24274600  0.39942300  1
  C  304  1  0.89941200  0.21355200  0.41673000  1
  C  305  1  0.87382900  0.19752800  0.43825300  1
  C  306  1  0.81569600  0.08991800  0.49322900  1
  C  307  1  0.81364000  0.05521000  0.49672100  1
  C  308  1  0.77852800  0.03968000  0.50359500  1
  C  309  1  0.74558900  0.05938300  0.50706000  1
  C  310  1  0.74776400  0.09411800  0.50348300  1
  C  311  1  0.71638000  0.21694300  0.55146500  1
  C  312  1  0.69980800  0.23719800  0.57598500  1
  C  313  1  0.72110900  0.26251300  0.59187900  1
  C  314  1  0.75958500  0.26668800  0.58252700  1
  C  315  1  0.77610000  0.24649800  0.55794900  1
  C  327  1  0.77154200  0.20099300  0.51694600  1
  C  328  1  0.76755800  0.16604100  0.51783600  1
  C  329  1  0.78540700  0.14532500  0.49409600  1
  C  330  1  0.80745800  0.16050200  0.46891000  1
  C  331  1  0.81210800  0.19535300  0.46720800  1
  C  332  1  0.79380700  0.21518700  0.49138000  1
  C  337  1  0.70555800  0.28301700  0.61610900  1
  C  338  1  0.77684500  0.00572000  0.50791500  1
  C  339  1  0.91568600  0.25920000  0.38008700  1
  C  343  1  0.28294700  0.49657200  0.88032700  1
  C  344  1  0.33671000  0.44319700  0.78019500  1
  C  345  1  0.25474100  0.54186400  0.76897900  1
  C  346  1  0.32582000  0.42545600  0.75137800  1
  C  347  1  0.35138600  0.40386400  0.73537500  1
  C  348  1  0.38882300  0.39934800  0.74758800  1
  C  349  1  0.39939900  0.41666300  0.77678000  1
  C  350  1  0.37381000  0.43817600  0.79281100  1
  C  351  1  0.31586700  0.49331100  0.90035400  1
  C  352  1  0.31389400  0.49683300  0.93506100  1
  C  353  1  0.27880800  0.50366500  0.95064900  1
  C  354  1  0.24580200  0.50703700  0.93101300  1
  C  355  1  0.24789900  0.50343600  0.89627500  1
  C  356  1  0.21637600  0.55142000  0.77341000  1
  C  357  1  0.19980600  0.57593800  0.75314700  1
  C  358  1  0.22110900  0.59182000  0.72782400  1
  C  359  1  0.25958000  0.58245500  0.72364400  1
  C  360  1  0.27608300  0.55786700  0.74383000  1
  C  372  1  0.27151800  0.51687400  0.78934400  1
  C  373  1  0.26754500  0.51776900  0.82429700  1
  C  374  1  0.28544100  0.49405400  0.84501000  1
  C  375  1  0.30747900  0.46886000  0.82983200  1
  C  376  1  0.31209700  0.46714000  0.79497800  1
  C  377  1  0.29378700  0.49131000  0.77515000  1
  C  382  1  0.20556100  0.61604900  0.70731800  1
  C  383  1  0.27723900  0.50801200  0.98460400  1
  C  384  1  0.41568600  0.38003500  0.73112500  1
  C  388  1  0.28299700  0.49371900  0.11006100  1
  C  389  1  0.33674200  0.54705400  0.21021800  1
  C  390  1  0.25474800  0.44839900  0.22139500  1
  C  391  1  0.32583700  0.56480200  0.23902700  1
  C  392  1  0.35138800  0.58641600  0.25502000  1
  C  393  1  0.38883500  0.59092000  0.24282000  1
  C  394  1  0.39942400  0.57359500  0.21364000  1
  C  395  1  0.37384700  0.55207200  0.19761300  1
  C  396  1  0.31594100  0.49695700  0.09006400  1
  C  397  1  0.31401000  0.49341500  0.05535700  1
  C  398  1  0.27893500  0.48661500  0.03974100  1
  C  399  1  0.24589900  0.48328500  0.05934400  1
  C  400  1  0.24795900  0.48688100  0.09408400  1
  C  401  1  0.21637500  0.43886200  0.21698000  1
  C  402  1  0.19980500  0.41434000  0.23723800  1
  C  403  1  0.22110900  0.39845100  0.26255500  1
  C  404  1  0.25958600  0.40780300  0.26672300  1
  C  405  1  0.27609600  0.43237800  0.24653100  1
  C  417  1  0.27153100  0.47339300  0.20103600  1
  C  418  1  0.26755200  0.47251400  0.16608200  1
  C  419  1  0.28546400  0.49623100  0.14538000  1
  C  420  1  0.30750200  0.52142000  0.16056800  1
  C  421  1  0.31211700  0.52312500  0.19542100  1
  C  422  1  0.29380700  0.49894500  0.21524100  1
  C  427  1  0.20556000  0.37422900  0.28306900  1
  C  428  1  0.27742700  0.48224400  0.00579000  1
  C  429  1  0.41568100  0.61026600  0.25926700  1
  C  433  1  0.31654200  0.72840800  0.74341700  1
  C  435  1  0.37722100  0.74753500  0.72732900  1
  C  437  1  0.37190200  0.70500400  0.76769900  1
  C  442  1  0.31653700  0.05715790  0.09198220  1
  C  444  1  0.37721700  0.03803290  0.10806700  1
  C  446  1  0.37189400  0.08054790  0.06768320  1
  C  451  1  0.81654600  0.06713390  0.75325400  1
  C  453  1  0.87722200  0.08319390  0.77241100  1
  C  455  1  0.87190700  0.04283490  0.72986900  1
  C  460  1  0.81653200  0.71847000  0.08210820  1
  C  462  1  0.87721300  0.70240400  0.06296620  1
  C  464  1  0.87189000  0.74276600  0.10550000  1
  C  469  1  0.71775700  0.06124390  0.74498000  1
  C  471  1  0.65721200  0.04419690  0.72612900  1
  C  473  1  0.66206300  0.08263790  0.77075800  1
  C  478  1  0.71775100  0.72437000  0.09039420  1
  C  480  1  0.65721500  0.74141400  0.10927000  1
  C  482  1  0.66204400  0.70299100  0.06462420  1
  C  487  1  0.21775600  0.72012000  0.74931500  1
  C  489  1  0.15722100  0.70121100  0.76631900  1
  C  491  1  0.16205200  0.74586000  0.72789900  1
  C  496  1  0.21775300  0.06544690  0.08609220  1
  C  498  1  0.15721500  0.08436690  0.06911220  1
  C  500  1  0.16205200  0.03971090  0.10752000  1
  C  505  1  0.51991600  0.50911700  0.91806100  1
  C  506  1  0.46368600  0.61165300  0.86928200  1
  C  507  1  0.55610000  0.62024800  0.96185800  1
  C  508  1  0.47374000  0.64061400  0.85131500  1
  C  509  1  0.44723100  0.65714600  0.83090800  1
  C  510  1  0.40933400  0.64554600  0.82761300  1
  C  511  1  0.39939500  0.61641100  0.84535000  1
  C  512  1  0.42599300  0.59978500  0.86563600  1
  C  513  1  0.48664300  0.48931600  0.91574700  1
  C  514  1  0.48812200  0.45445600  0.91889900  1
  C  515  1  0.52308900  0.43809900  0.92440100  1
  C  516  1  0.55645200  0.45748100  0.92674500  1
  C  517  1  0.55485100  0.49234100  0.92344700  1
  C  518  1  0.59469800  0.61479200  0.97046700  1
  C  519  1  0.61315200  0.63449300  0.99465900  1
  C  520  1  0.59352000  0.66024600  0.01140520  1
  C  521  1  0.55494500  0.66560700  0.00281116  1
  C  522  1  0.53668700  0.64609900  0.97862400  1
  C  534  1  0.53661300  0.60024300  0.93769000  1
  C  535  1  0.53929400  0.56512300  0.93808800  1
  C  536  1  0.51804200  0.54478500  0.91606500  1
  C  537  1  0.49364300  0.56084300  0.89303900  1
  C  538  1  0.49003000  0.59587100  0.89154300  1
  C  539  1  0.51199400  0.61496200  0.91401800  1
  C  544  1  0.60955800  0.67938800  0.03671320  1
  C  545  1  0.52422600  0.40404600  0.92984700  1
  C  546  1  0.38207200  0.66213900  0.80840300  1
  C  550  1  0.51951500  0.27646600  0.91725800  1
  C  551  1  0.46368100  0.17386200  0.96608300  1
  C  552  1  0.55618200  0.16540700  0.87356100  1
  C  553  1  0.47374300  0.14491800  0.98407200  1
  C  554  1  0.44723000  0.12838500  0.00447616  1
  C  555  1  0.40932300  0.13996900  0.00773916  1
  C  556  1  0.39937700  0.16909200  0.98998700  1
  C  557  1  0.42597700  0.18571700  0.96970400  1
  C  558  1  0.48599500  0.29597600  0.91927200  1
  C  559  1  0.48709700  0.33082500  0.91598600  1
  C  560  1  0.52193200  0.34747000  0.91077700  1
  C  561  1  0.55556500  0.32840000  0.90879300  1
  C  562  1  0.55432200  0.29352100  0.91210900  1
  C  563  1  0.59476900  0.17088200  0.86492500  1
  C  564  1  0.61321200  0.15119600  0.84071300  1
  C  565  1  0.59358300  0.12543500  0.82397600  1
  C  566  1  0.55502200  0.12005200  0.83259600  1
  C  567  1  0.53677500  0.13954200  0.85680500  1
  C  579  1  0.53669800  0.18538900  0.89775100  1
  C  580  1  0.53932300  0.22051900  0.89736800  1
  C  581  1  0.51793400  0.24080200  0.91933600  1
  C  582  1  0.49356300  0.22469900  0.94235300  1
  C  583  1  0.49004100  0.18967100  0.94385400  1
  C  584  1  0.51208500  0.17062300  0.92140400  1
  C  589  1  0.60959800  0.10632300  0.79863400  1
  C  590  1  0.52247800  0.38150400  0.90523200  1
  C  591  1  0.38206000  0.12338700  0.02695820  1
  C  595  1  0.01981610  0.89241000  0.53402100  1
  C  596  1  0.96367600  0.94118300  0.63658100  1
  C  597  1  0.05610810  0.84862100  0.64513800  1
  C  598  1  0.97372800  0.95915100  0.66554000  1
  C  599  1  0.94722100  0.97956400  0.68206900  1
  C  600  1  0.90932800  0.98286700  0.67046000  1
  C  601  1  0.89938700  0.96512600  0.64132800  1
  C  602  1  0.92597700  0.94481900  0.62472000  1
  C  603  1  0.98649000  0.89468400  0.51428400  1
  C  604  1  0.98788000  0.89148300  0.47942800  1
  C  605  1  0.02281910  0.88603800  0.46300700  1
  C  606  1  0.05624110  0.88377100  0.48231900  1
  C  607  1  0.05472010  0.88706900  0.51718300  1
  C  608  1  0.09470610  0.84000700  0.63967500  1
  C  609  1  0.11315400  0.81580300  0.65936500  1
  C  610  1  0.09353410  0.79907100  0.68513100  1
  C  611  1  0.05495910  0.80766600  0.69049700  1
  C  612  1  0.03670110  0.83185300  0.67099000  1
  C  624  1  0.03662110  0.87279100  0.62513600  1
  C  625  1  0.03926510  0.87238600  0.59001400  1
  C  626  1  0.01800410  0.89441100  0.56969000  1
  C  627  1  0.99361800  0.91744000  0.58576200  1
  C  628  1  0.99002400  0.91893100  0.62079100  1
  C  629  1  0.01200510  0.89645900  0.63986900  1
  C  634  1  0.10956900  0.77375600  0.70426800  1
  C  635  1  0.02381710  0.88055300  0.42896200  1
  C  636  1  0.88207300  0.00210785  0.68703000  1
  C  640  1  0.01961710  0.89321600  0.30137100  1
  C  641  1  0.96369600  0.84437900  0.19878900  1
  C  642  1  0.05615010  0.93693300  0.19029400  1
  C  643  1  0.97373900  0.82641000  0.16983000  1
  C  644  1  0.94722300  0.80601000  0.15329800  1
  C  645  1  0.90932500  0.80272700  0.16490200  1
  C  646  1  0.89939000  0.82047200  0.19403000  1
  C  647  1  0.92599400  0.84076000  0.21064700  1
  C  648  1  0.98615400  0.89113800  0.32094600  1
  C  649  1  0.98734000  0.89438900  0.35580000  1
  C  650  1  0.02220410  0.89966300  0.37238000  1
  C  651  1  0.05577510  0.90173800  0.35323800  1
  C  652  1  0.05445310  0.89842700  0.31836100  1
  C  653  1  0.09474810  0.94554900  0.19574700  1
  C  654  1  0.11318900  0.96974900  0.17604600  1
  C  655  1  0.09354310  0.98651000  0.15031000  1
  C  656  1  0.05497310  0.97790300  0.14494700  1
  C  657  1  0.03672910  0.95370600  0.16445200  1
  C  669  1  0.03668110  0.91274000  0.21028100  1
  C  670  1  0.03932510  0.91312300  0.24540700  1
  C  671  1  0.01797910  0.89114000  0.26570700  1
  C  672  1  0.99360100  0.86811900  0.24961700  1
  C  673  1  0.99005300  0.86661800  0.21458900  1
  C  674  1  0.01205910  0.88908500  0.19552900  1
  C  679  1  0.10957400  0.01181590  0.13116100  1
  C  680  1  0.02289010  0.90519700  0.40641400  1
  C  681  1  0.88206100  0.78350800  0.14832500  1
  C  685  1  0.01053710  0.27792000  0.91626900  1
  C  686  1  0.06420910  0.17775600  0.96962400  1
  C  687  1  0.98220200  0.16659000  0.87097900  1
  C  688  1  0.05330410  0.14895400  0.98738200  1
  C  689  1  0.07886710  0.13295300  0.00898016  1
  C  690  1  0.11631400  0.14515600  0.01347620  1
  C  691  1  0.12690300  0.17432900  0.99614000  1
  C  692  1  0.10130500  0.19037700  0.97465000  1
  C  693  1  0.04353610  0.29786200  0.91943300  1
  C  694  1  0.04167710  0.33256800  0.91584900  1
  C  695  1  0.00662511  0.34823300  0.90909200  1
  C  696  1  0.97352900  0.32868800  0.90585300  1
  C  697  1  0.97551900  0.29394800  0.90947700  1
  C  698  1  0.94383100  0.17100900  0.86143000  1
  C  699  1  0.92727000  0.15075300  0.83690300  1
  C  700  1  0.94857700  0.12543800  0.82101600  1
  C  701  1  0.98705000  0.12126700  0.83037900  1
  C  702  1  0.00354811  0.14144800  0.85496900  1
  C  714  1  0.99897800  0.18695000  0.89597700  1
  C  715  1  0.99501200  0.22190300  0.89509400  1
  C  716  1  0.01294010  0.24260100  0.91880400  1
  C  717  1  0.03498310  0.22741100  0.94398600  1
  C  718  1  0.03957810  0.19255600  0.94570100  1
  C  719  1  0.02124610  0.17273800  0.92153300  1
  C  724  1  0.93303700  0.10492900  0.79678400  1
  C  725  1  0.00522311  0.38217700  0.90467300  1
  C  726  1  0.14316500  0.12870800  0.03281920  1
  C  730  1  0.01031810  0.50766000  0.91908300  1
  C  731  1  0.06421210  0.60779300  0.86578000  1
  C  732  1  0.98223600  0.61901300  0.96443700  1
  C  733  1  0.05331210  0.63660500  0.84803200  1
  C  734  1  0.07887910  0.65261100  0.82644200  1
  C  735  1  0.11631600  0.64039900  0.82192900  1
  C  736  1  0.12689400  0.61120500  0.83923600  1
  C  737  1  0.10131100  0.59518100  0.86075900  1
  C  738  1  0.04317810  0.48757100  0.91573500  1
  C  739  1  0.04112210  0.45286300  0.91922700  1
  C  740  1  0.00601011  0.43733300  0.92610100  1
  C  741  1  0.97307100  0.45703600  0.92956600  1
  C  742  1  0.97524600  0.49177100  0.92598900  1
  C  743  1  0.94386200  0.61459600  0.97397100  1
  C  744  1  0.92729000  0.63485100  0.99849100  1
  C  745  1  0.94859100  0.66016600  0.01438520  1
  C  746  1  0.98706700  0.66434100  0.00503316  1
  C  747  1  0.00358211  0.64415100  0.98045500  1
  C  759  1  0.99902400  0.59864600  0.93945200  1
  C  760  1  0.99504000  0.56369400  0.94034200  1
  C  761  1  0.01288910  0.54297800  0.91660200  1
  C  762  1  0.03494010  0.55815500  0.89141600  1
  C  763  1  0.03959010  0.59300600  0.88971400  1
  C  764  1  0.02128910  0.61284000  0.91388600  1
  C  769  1  0.93304000  0.68067000  0.03861520  1
  C  770  1  0.00432711  0.40337300  0.93042100  1
  C  771  1  0.14316800  0.65685300  0.80259300  1
  C  775  1  0.51042900  0.89422500  0.30283300  1
  C  776  1  0.56419200  0.84085000  0.20270100  1
  C  777  1  0.48222300  0.93951700  0.19148500  1
  C  778  1  0.55330200  0.82310900  0.17388400  1
  C  779  1  0.57886800  0.80151700  0.15788100  1
  C  780  1  0.61630500  0.79700100  0.17009400  1
  C  781  1  0.62688100  0.81431600  0.19928600  1
  C  782  1  0.60129200  0.83582900  0.21531700  1
  C  783  1  0.54334900  0.89096400  0.32286000  1
  C  784  1  0.54137600  0.89448600  0.35756700  1
  C  785  1  0.50629000  0.90131800  0.37315500  1
  C  786  1  0.47328400  0.90469000  0.35351900  1
  C  787  1  0.47538100  0.90108900  0.31878100  1
  C  788  1  0.44385800  0.94907300  0.19591600  1
  C  789  1  0.42728800  0.97359100  0.17565300  1
  C  790  1  0.44859100  0.98947300  0.15033000  1
  C  791  1  0.48706200  0.98010800  0.14615000  1
  C  792  1  0.50356500  0.95552000  0.16633600  1
  C  804  1  0.49900000  0.91452700  0.21185000  1
  C  805  1  0.49502700  0.91542200  0.24680300  1
  C  806  1  0.51292300  0.89170700  0.26751600  1
  C  807  1  0.53496100  0.86651300  0.25233800  1
  C  808  1  0.53957900  0.86479300  0.21748400  1
  C  809  1  0.52126900  0.88896300  0.19765600  1
  C  814  1  0.43304300  0.01370190  0.12982400  1
  C  815  1  0.50472100  0.90566500  0.40711000  1
  C  816  1  0.64316800  0.77768800  0.15363100  1
  C  820  1  0.51047900  0.89137200  0.53256700  1
  C  821  1  0.56422400  0.94470700  0.63272400  1
  C  822  1  0.48223000  0.84605200  0.64390100  1
  C  823  1  0.55331900  0.96245500  0.66153300  1
  C  824  1  0.57887000  0.98406900  0.67752600  1
  C  825  1  0.61631700  0.98857300  0.66532600  1
  C  826  1  0.62690600  0.97124800  0.63614600  1
  C  827  1  0.60132900  0.94972500  0.62011900  1
  C  828  1  0.54342300  0.89461000  0.51257000  1
  C  829  1  0.54149200  0.89106800  0.47786300  1
  C  830  1  0.50641700  0.88426800  0.46224700  1
  C  831  1  0.47338100  0.88093800  0.48185000  1
  C  832  1  0.47544100  0.88453400  0.51659000  1
  C  833  1  0.44385700  0.83651500  0.63948600  1
  C  834  1  0.42728700  0.81199300  0.65974400  1
  C  835  1  0.44859100  0.79610400  0.68506100  1
  C  836  1  0.48706800  0.80545600  0.68922900  1
  C  837  1  0.50357800  0.83003100  0.66903700  1
  C  849  1  0.49901300  0.87104600  0.62354200  1
  C  850  1  0.49503400  0.87016700  0.58858800  1
  C  851  1  0.51294600  0.89388400  0.56788600  1
  C  852  1  0.53498400  0.91907300  0.58307400  1
  C  853  1  0.53959900  0.92077800  0.61792700  1
  C  854  1  0.52128900  0.89659800  0.63774700  1
  C  859  1  0.43304200  0.77188200  0.70557500  1
  C  860  1  0.50490900  0.87989700  0.42829600  1
  C  861  1  0.64316300  0.00791885  0.68177300  1
  N  2  1  0.11139200  0.35104100  0.30246500  1
  N  4  1  0.16586600  0.32805400  0.32636400  1
  N  6  1  0.10575400  0.30888900  0.34246100  1
  N  7  1  0.05212600  0.33460000  0.31676300  1
  N  8  1  0.16371500  0.28783100  0.36561000  1
  N  9  1  0.16943800  0.37074700  0.28633000  1
  N  11  1  0.11138900  0.63922500  0.68792700  1
  N  13  1  0.16586000  0.66219700  0.66401100  1
  N  15  1  0.10574600  0.68135900  0.64791300  1
  N  16  1  0.05212200  0.65566300  0.67362900  1
  N  17  1  0.16370600  0.70240200  0.62475000  1
  N  18  1  0.16943800  0.61952600  0.70406200  1
  N  20  1  0.61139500  0.68791500  0.35104600  1
  N  22  1  0.66586800  0.66399600  0.32808400  1
  N  24  1  0.60575600  0.64791800  0.30889700  1
  N  25  1  0.55213000  0.67362900  0.33459500  1
  N  26  1  0.66371800  0.62473800  0.28787100  1
  N  27  1  0.66943400  0.70402500  0.37078200  1
  N  29  1  0.61138600  0.30238000  0.63930900  1
  N  31  1  0.66585700  0.32629400  0.66228100  1
  N  33  1  0.60574200  0.34238200  0.68145600  1
  N  34  1  0.55211900  0.31667100  0.65575500  1
  N  35  1  0.66370400  0.36555000  0.70248900  1
  N  36  1  0.66943400  0.28626000  0.61959600  1
  N  38  1  0.46821800  0.64536100  0.30182900  1
  N  40  1  0.41350200  0.66610600  0.32700500  1
  N  42  1  0.47323100  0.68329500  0.34581600  1
  N  43  1  0.52723200  0.65970100  0.31860200  1
  N  44  1  0.41805500  0.70378900  0.37159400  1
  N  45  1  0.40737700  0.62810500  0.28477200  1
  N  47  1  0.46822000  0.34494200  0.68854900  1
  N  49  1  0.41349400  0.32420700  0.66338000  1
  N  51  1  0.47321400  0.30702000  0.64454600  1
  N  52  1  0.52722300  0.33059900  0.67175300  1
  N  53  1  0.41802100  0.28653900  0.61878300  1
  N  54  1  0.40738000  0.36218500  0.70562800  1
  N  56  1  0.96822600  0.30179400  0.34501900  1
  N  58  1  0.91349900  0.32694000  0.32425600  1
  N  60  1  0.97321900  0.34579400  0.30709300  1
  N  61  1  0.02723100  0.31860200  0.33069100  1
  N  62  1  0.91802900  0.37154200  0.28658900  1
  N  63  1  0.90738600  0.28470700  0.36224900  1
  N  65  1  0.96822000  0.68846900  0.64538600  1
  N  67  1  0.91349900  0.66332700  0.66615800  1
  N  69  1  0.97321900  0.64446900  0.68330700  1
  N  70  1  0.02722600  0.67165800  0.65969900  1
  N  71  1  0.91803500  0.61872800  0.70382800  1
  N  72  1  0.90737700  0.70556100  0.62816300  1
  N  434  1  0.33887400  0.74869400  0.72497100  1
  N  436  1  0.39334800  0.72570700  0.74887000  1
  N  438  1  0.33323600  0.70654200  0.76496700  1
  N  439  1  0.27960800  0.73225300  0.73926900  1
  N  440  1  0.39119700  0.68548400  0.78811600  1
  N  441  1  0.39692000  0.76840000  0.70883600  1
  N  443  1  0.33887100  0.03687790  0.11043300  1
  N  445  1  0.39334200  0.05984990  0.08651720  1
  N  447  1  0.33322800  0.07901190  0.07041920  1
  N  448  1  0.27960400  0.05331590  0.09613520  1
  N  449  1  0.39118800  0.10005500  0.04725620  1
  N  450  1  0.39692000  0.01717890  0.12656800  1
  N  452  1  0.83887700  0.08556790  0.77355200  1
  N  454  1  0.89335000  0.06164890  0.75059000  1
  N  456  1  0.83323800  0.04557090  0.73140300  1
  N  457  1  0.77961200  0.07128190  0.75710100  1
  N  458  1  0.89120000  0.02239090  0.71037700  1
  N  459  1  0.89691600  0.10167800  0.79328800  1
  N  461  1  0.83886800  0.70003300  0.06181520  1
  N  463  1  0.89333900  0.72394700  0.08478720  1
  N  465  1  0.83322400  0.74003500  0.10396200  1
  N  466  1  0.77960100  0.71432400  0.07826120  1
  N  467  1  0.89118600  0.76320300  0.12499500  1
  N  468  1  0.89691600  0.68391300  0.04210220  1
  N  470  1  0.69570000  0.04301390  0.72433500  1
  N  472  1  0.64098400  0.06375890  0.74951100  1
  N  474  1  0.70071300  0.08094790  0.76832200  1
  N  475  1  0.75471400  0.05735390  0.74110800  1
  N  476  1  0.64553700  0.10144200  0.79410000  1
  N  477  1  0.63485900  0.02575790  0.70727800  1
  N  479  1  0.69570200  0.74259500  0.11105500  1
  N  481  1  0.64097600  0.72186000  0.08588620  1
  N  483  1  0.70069600  0.70467300  0.06705220  1
  N  484  1  0.75470500  0.72825200  0.09425920  1
  N  485  1  0.64550300  0.68419200  0.04128920  1
  N  486  1  0.63486200  0.75983800  0.12813400  1
  N  488  1  0.19570800  0.69944700  0.76752500  1
  N  490  1  0.14098100  0.72459300  0.74676200  1
  N  492  1  0.20070100  0.74344700  0.72959900  1
  N  493  1  0.25471300  0.71625500  0.75319700  1
  N  494  1  0.14551100  0.76919500  0.70909500  1
  N  495  1  0.13486800  0.68236000  0.78475500  1
  N  497  1  0.19570200  0.08612190  0.06789220  1
  N  499  1  0.14098100  0.06097990  0.08866420  1
  N  501  1  0.20070100  0.04212190  0.10581300  1
  N  502  1  0.25470800  0.06931090  0.08220520  1
  N  503  1  0.14551700  0.01638090  0.12633400  1
  N  504  1  0.13485900  0.10321400  0.05066920  1
