# generated using pymatgen
data_H40C57(NO)4
_symmetry_space_group_name_H-M   'P 1'
_cell_length_a   63.31010000
_cell_length_b   95.46235000
_cell_length_c   95.46240000
_cell_angle_alpha   120.00005198
_cell_angle_beta   90.00000000
_cell_angle_gamma   90.00000000
_symmetry_Int_Tables_number   1
_chemical_formula_structural   H40C57(NO)4
_chemical_formula_sum   'H960 C1368 N96 O96'
_cell_volume   499652.28010764
_cell_formula_units_Z   24
loop_
 _symmetry_equiv_pos_site_id
 _symmetry_equiv_pos_as_xyz
  1  'x, y, z'
loop_
 _atom_site_type_symbol
 _atom_site_label
 _atom_site_symmetry_multiplicity
 _atom_site_fract_x
 _atom_site_fract_y
 _atom_site_fract_z
 _atom_site_occupancy
  H  25  1  0.96045800  0.67305000  0.06392600  1
  H  26  1  0.95614200  0.69313100  0.09167100  1
  H  27  1  0.94791200  0.71037800  0.11952900  1
  H  28  1  0.93465200  0.72530800  0.14653500  1
  H  29  1  0.88513200  0.69138200  0.13463400  1
  H  30  1  0.90705300  0.64777200  0.06657200  1
  H  31  1  0.87421300  0.69051000  0.09107800  1
  H  32  1  0.81624600  0.66837200  0.09038300  1
  H  33  1  0.83391400  0.65032200  0.09686200  1
  H  34  1  0.93014500  0.65221400  0.10746000  1
  H  35  1  0.85771100  0.63228800  0.10007700  1
  H  36  1  0.88527000  0.61815300  0.10495600  1
  H  66  1  0.96049400  0.41743500  0.32478400  1
  H  67  1  0.95614400  0.42507300  0.30468100  1
  H  68  1  0.94791200  0.43570300  0.28745000  1
  H  69  1  0.93463000  0.44777800  0.27252500  1
  H  70  1  0.88509900  0.46977200  0.30645100  1
  H  71  1  0.90706300  0.44533800  0.35005500  1
  H  72  1  0.87425600  0.42704300  0.30730600  1
  H  73  1  0.81621100  0.44839600  0.32946400  1
  H  74  1  0.83388100  0.47294800  0.34752600  1
  H  75  1  0.93006100  0.48183200  0.34557300  1
  H  76  1  0.85766200  0.49417000  0.36561100  1
  H  77  1  0.88517100  0.51323000  0.37973800  1
  H  107  1  0.96046400  0.93395800  0.58040600  1
  H  108  1  0.95616800  0.90621100  0.57274900  1
  H  109  1  0.94801600  0.87833500  0.56208100  1
  H  110  1  0.93474600  0.85133700  0.55003600  1
  H  111  1  0.88508900  0.86325600  0.52813200  1
  H  112  1  0.90697500  0.93130600  0.55254300  1
  H  113  1  0.87426300  0.90690900  0.57082100  1
  H  114  1  0.81606200  0.90747800  0.54941300  1
  H  115  1  0.83380100  0.90088400  0.52480700  1
  H  116  1  0.93008500  0.89049400  0.51610800  1
  H  117  1  0.85758200  0.89768600  0.50354200  1
  H  118  1  0.88513200  0.89286900  0.48453000  1
  H  148  1  0.46044400  0.34317900  0.91546700  1
  H  149  1  0.45612100  0.32308900  0.88772300  1
  H  150  1  0.44790000  0.30585300  0.85985500  1
  H  151  1  0.43461700  0.29091600  0.83285700  1
  H  152  1  0.38509900  0.32484400  0.84476800  1
  H  153  1  0.40703700  0.36846000  0.91281800  1
  H  154  1  0.37426400  0.32577400  0.88842100  1
  H  155  1  0.31618100  0.34785700  0.88911000  1
  H  156  1  0.33386100  0.36586700  0.88253700  1
  H  157  1  0.43010800  0.36406100  0.87199100  1
  H  158  1  0.35765200  0.38393800  0.87936600  1
  H  159  1  0.38520200  0.39811700  0.87453400  1
  H  189  1  0.46046600  0.59882000  0.65467100  1
  H  190  1  0.45615900  0.59116400  0.67476200  1
  H  191  1  0.44794900  0.58053800  0.69200200  1
  H  192  1  0.43466200  0.56848900  0.70695000  1
  H  193  1  0.38509300  0.54651600  0.67305900  1
  H  194  1  0.40702300  0.57091600  0.62942200  1
  H  195  1  0.37428600  0.58921400  0.67211500  1
  H  196  1  0.31610200  0.56782400  0.65011300  1
  H  197  1  0.33382500  0.54322000  0.63209800  1
  H  198  1  0.43009700  0.53449200  0.63380100  1
  H  199  1  0.35760400  0.52196700  0.61401300  1
  H  200  1  0.38514200  0.50294400  0.59982600  1
  H  230  1  0.46043800  0.08240200  0.39908900  1
  H  231  1  0.45613900  0.11015100  0.40675100  1
  H  232  1  0.44792800  0.13801800  0.41737600  1
  H  233  1  0.43464600  0.16501500  0.42942800  1
  H  234  1  0.38510100  0.15310600  0.45143000  1
  H  235  1  0.40701500  0.08506700  0.42701600  1
  H  236  1  0.37428300  0.10948400  0.40873100  1
  H  237  1  0.31610100  0.10889000  0.43012600  1
  H  238  1  0.33382300  0.11545600  0.45472300  1
  H  239  1  0.43010000  0.12586600  0.46344700  1
  H  240  1  0.35760600  0.11860200  0.47596700  1
  H  241  1  0.38514000  0.12343500  0.49499000  1
  H  271  1  0.02422800  0.60377200  0.91880400  1
  H  272  1  0.02775300  0.59625600  0.89096200  1
  H  273  1  0.03307600  0.58393800  0.86234300  1
  H  274  1  0.04471700  0.57102500  0.83484200  1
  H  275  1  0.09232100  0.54628300  0.84508000  1
  H  276  1  0.07245500  0.57067900  0.91341900  1
  H  277  1  0.10498000  0.58963800  0.88900800  1
  H  278  1  0.16338700  0.56806100  0.88883900  1
  H  279  1  0.14563000  0.54336600  0.88212200  1
  H  280  1  0.04896300  0.53534300  0.87318600  1
  H  281  1  0.12169900  0.52208700  0.87899300  1
  H  282  1  0.09402700  0.50327200  0.87455400  1
  H  312  1  0.02475200  0.07905400  0.65634200  1
  H  313  1  0.02826000  0.10686700  0.67675100  1
  H  314  1  0.03335000  0.13553100  0.69301600  1
  H  315  1  0.04483900  0.16307500  0.70759900  1
  H  316  1  0.09237000  0.15298900  0.67260600  1
  H  317  1  0.07265400  0.08467700  0.62856200  1
  H  318  1  0.10522600  0.10901600  0.67200400  1
  H  319  1  0.16358600  0.10909900  0.65049900  1
  H  320  1  0.14580200  0.11585100  0.63255800  1
  H  321  1  0.04912700  0.12482100  0.63356900  1
  H  322  1  0.12183600  0.11902500  0.61445300  1
  H  323  1  0.09412700  0.12343100  0.60008100  1
  H  353  1  0.02475800  0.34156400  0.39408100  1
  H  354  1  0.02828600  0.32114900  0.40148000  1
  H  355  1  0.03339100  0.30488400  0.41387900  1
  H  356  1  0.04488500  0.29031000  0.42684600  1
  H  357  1  0.09237000  0.32533800  0.45178600  1
  H  358  1  0.07261800  0.36937100  0.42751000  1
  H  359  1  0.10523900  0.32591300  0.40843300  1
  H  360  1  0.16354400  0.34758100  0.42998400  1
  H  361  1  0.14573300  0.36553600  0.45465900  1
  H  362  1  0.04909100  0.36431400  0.46264800  1
  H  363  1  0.12174000  0.38359500  0.47593600  1
  H  364  1  0.09401100  0.39792200  0.49471200  1
  H  394  1  0.52463200  0.41247600  0.06069600  1
  H  395  1  0.52819800  0.41984900  0.08850300  1
  H  396  1  0.53332400  0.43225100  0.11717000  1
  H  397  1  0.54484800  0.44521200  0.14470700  1
  H  398  1  0.59236700  0.47010200  0.13458400  1
  H  399  1  0.57257300  0.44583700  0.06628800  1
  H  400  1  0.60515800  0.42670500  0.09062000  1
  H  401  1  0.66350200  0.44818900  0.09045700  1
  H  402  1  0.64573900  0.47288400  0.09719300  1
  H  403  1  0.54913800  0.48103700  0.10658500  1
  H  404  1  0.62177600  0.49415000  0.10035200  1
  H  405  1  0.59409900  0.51297400  0.10485800  1
  H  435  1  0.52471400  0.93728800  0.32325800  1
  H  436  1  0.52822500  0.90947900  0.30283600  1
  H  437  1  0.53325000  0.88080200  0.28660000  1
  H  438  1  0.54474400  0.85326300  0.27200400  1
  H  439  1  0.59235200  0.86334700  0.30694400  1
  H  440  1  0.57264100  0.93165600  0.35101600  1
  H  441  1  0.60514800  0.90736200  0.30759300  1
  H  442  1  0.66353700  0.90729300  0.32907000  1
  H  443  1  0.64578900  0.90049100  0.34699100  1
  H  444  1  0.54911100  0.89151900  0.34600300  1
  H  445  1  0.62182900  0.89728300  0.36509200  1
  H  446  1  0.59412000  0.89288400  0.37947300  1
  H  476  1  0.52473000  0.67479600  0.58543600  1
  H  477  1  0.52826900  0.69522100  0.57805300  1
  H  478  1  0.53336800  0.71149000  0.56565200  1
  H  479  1  0.54487800  0.72607700  0.55270100  1
  H  480  1  0.59234100  0.69103800  0.52774200  1
  H  481  1  0.57258100  0.64698700  0.55199800  1
  H  482  1  0.60515000  0.69040000  0.57113200  1
  H  483  1  0.66350100  0.66880900  0.54960400  1
  H  484  1  0.64573400  0.65089700  0.52489000  1
  H  485  1  0.54908300  0.65202300  0.51687300  1
  H  486  1  0.62175700  0.63280500  0.50360900  1
  H  487  1  0.59404200  0.61844500  0.48483000  1
  H  517  1  0.02284700  0.33947900  0.91603600  1
  H  518  1  0.03057000  0.31846800  0.88915000  1
  H  519  1  0.04207200  0.30049400  0.86218500  1
  H  520  1  0.05468100  0.28661900  0.83500500  1
  H  521  1  0.09341300  0.32664000  0.84460900  1
  H  522  1  0.06874700  0.36954000  0.91215400  1
  H  523  1  0.11466000  0.32735300  0.88218200  1
  H  524  1  0.15898700  0.36547200  0.89758000  1
  H  525  1  0.13285700  0.38211200  0.89493200  1
  H  526  1  0.04554300  0.35583200  0.86562000  1
  H  527  1  0.10292500  0.39472900  0.88909300  1
  H  528  1  0.07194700  0.40159000  0.87930000  1
  H  558  1  0.02286600  0.60309600  0.65844600  1
  H  559  1  0.03058100  0.59722400  0.67946000  1
  H  560  1  0.04207200  0.58823600  0.69743800  1
  H  561  1  0.05466800  0.57493400  0.71131900  1
  H  562  1  0.09341100  0.54451300  0.67130800  1
  H  563  1  0.06877400  0.56915300  0.62839600  1
  H  564  1  0.11467000  0.58138300  0.67057500  1
  H  565  1  0.15898200  0.55866300  0.63244400  1
  H  566  1  0.13285000  0.53937200  0.61580900  1
  H  567  1  0.04553600  0.53634200  0.64210100  1
  H  568  1  0.10291500  0.52091200  0.60320100  1
  H  569  1  0.07192300  0.50427000  0.59633200  1
  H  599  1  0.02285400  0.08187400  0.39481200  1
  H  600  1  0.03057000  0.10876000  0.40068800  1
  H  601  1  0.04208100  0.13571400  0.40965900  1
  H  602  1  0.05468900  0.16289400  0.42295800  1
  H  603  1  0.09338700  0.15331400  0.45340800  1
  H  604  1  0.06876100  0.08575800  0.42875000  1
  H  605  1  0.11465600  0.11571400  0.41653000  1
  H  606  1  0.15898700  0.10034100  0.43927000  1
  H  607  1  0.13286000  0.10299600  0.45856100  1
  H  608  1  0.04554000  0.13230400  0.46158000  1
  H  609  1  0.10293600  0.10887100  0.47703700  1
  H  610  1  0.07194800  0.11865200  0.49368100  1
  H  640  1  0.52292400  0.67684200  0.06347900  1
  H  641  1  0.53063700  0.69785100  0.09036300  1
  H  642  1  0.54210800  0.71582300  0.11733800  1
  H  643  1  0.55470100  0.72969000  0.14452500  1
  H  644  1  0.59347500  0.68968500  0.13490500  1
  H  645  1  0.56885100  0.64679700  0.06735700  1
  H  646  1  0.61459800  0.68889000  0.09700000  1
  H  647  1  0.65904300  0.65087000  0.08180200  1
  H  648  1  0.63306900  0.63434200  0.08478900  1
  H  649  1  0.54554800  0.66046800  0.11378000  1
  H  650  1  0.60318300  0.62174700  0.09072500  1
  H  651  1  0.57212800  0.61483000  0.10038600  1
  H  681  1  0.52282600  0.41323200  0.32112500  1
  H  682  1  0.53054900  0.41909100  0.30010400  1
  H  683  1  0.54209300  0.42803400  0.28210200  1
  H  684  1  0.55468100  0.44134400  0.26822500  1
  H  685  1  0.59338200  0.47179400  0.30825100  1
  H  686  1  0.56875600  0.44715400  0.35115800  1
  H  687  1  0.61464900  0.43490700  0.30897500  1
  H  688  1  0.65899400  0.45764900  0.34707400  1
  H  689  1  0.63288100  0.47695900  0.36370600  1
  H  690  1  0.54555900  0.47997600  0.33742900  1
  H  691  1  0.60293500  0.49540500  0.37633200  1
  H  692  1  0.57196400  0.51206500  0.38318600  1
  H  722  1  0.52270900  0.93456800  0.58477100  1
  H  723  1  0.53042400  0.90768100  0.57888000  1
  H  724  1  0.54191600  0.88070800  0.56989300  1
  H  725  1  0.55451800  0.85352400  0.55659200  1
  H  726  1  0.59332700  0.86314000  0.52622500  1
  H  727  1  0.56867500  0.93072200  0.55089200  1
  H  728  1  0.61459400  0.90066300  0.56304900  1
  H  729  1  0.65899600  0.91587800  0.54022000  1
  H  730  1  0.63284400  0.91329900  0.52097000  1
  H  731  1  0.54547800  0.88411200  0.51801800  1
  H  732  1  0.60291000  0.90749600  0.50253800  1
  H  733  1  0.57195000  0.89767600  0.48587000  1
  H  763  1  0.94984200  0.40940300  0.06004500  1
  H  764  1  0.94328800  0.41532800  0.08720900  1
  H  765  1  0.93489100  0.42597700  0.11533000  1
  H  766  1  0.92399400  0.43989300  0.14298900  1
  H  767  1  0.88680600  0.47189200  0.13466100  1
  H  768  1  0.90869200  0.44718800  0.06682300  1
  H  769  1  0.86362100  0.43484300  0.09697400  1
  H  770  1  0.81893600  0.45844200  0.08286400  1
  H  771  1  0.84521900  0.47760800  0.08534700  1
  H  772  1  0.93346000  0.47907900  0.11277800  1
  H  773  1  0.87567400  0.49561100  0.09060900  1
  H  774  1  0.90715300  0.51173900  0.09982300  1
  H  804  1  0.94981100  0.93785900  0.32070800  1
  H  805  1  0.94327300  0.91069100  0.29947500  1
  H  806  1  0.93488700  0.88256800  0.28200800  1
  H  807  1  0.92397600  0.85491400  0.26825700  1
  H  808  1  0.88677900  0.86323700  0.30857900  1
  H  809  1  0.90868400  0.93107900  0.35172400  1
  H  810  1  0.86360600  0.90093700  0.30923200  1
  H  811  1  0.81894700  0.91511500  0.34696800  1
  H  812  1  0.84522100  0.91260200  0.36363800  1
  H  813  1  0.93343400  0.88511500  0.33765900  1
  H  814  1  0.87566400  0.90732100  0.37637000  1
  H  815  1  0.90713700  0.89810100  0.38328500  1
  H  845  1  0.94982900  0.67723000  0.58856300  1
  H  846  1  0.94328300  0.69845500  0.58261600  1
  H  847  1  0.93488800  0.71591500  0.57194500  1
  H  848  1  0.92398100  0.72964100  0.55801400  1
  H  849  1  0.88677600  0.68930700  0.52604700  1
  H  850  1  0.90870500  0.64619800  0.55077200  1
  H  851  1  0.86359800  0.68865900  0.56309400  1
  H  852  1  0.81896600  0.65091400  0.53948500  1
  H  853  1  0.84526300  0.63425800  0.52031800  1
  H  854  1  0.93350400  0.66026800  0.51891900  1
  H  855  1  0.87573100  0.62155000  0.50230400  1
  H  856  1  0.90723900  0.61465400  0.48620500  1
  H  886  1  0.44982000  0.60690700  0.91947000  1
  H  887  1  0.44328100  0.60097100  0.89230300  1
  H  888  1  0.43489400  0.59031700  0.86418000  1
  H  889  1  0.42400000  0.57639800  0.83652100  1
  H  890  1  0.38677800  0.54441900  0.84485800  1
  H  891  1  0.40867800  0.56912100  0.91269700  1
  H  892  1  0.36358000  0.58147000  0.88255600  1
  H  893  1  0.31893800  0.55788800  0.89671600  1
  H  894  1  0.34522700  0.53872400  0.89422300  1
  H  895  1  0.43346400  0.53725200  0.86677900  1
  H  896  1  0.37567400  0.52071300  0.88893700  1
  H  897  1  0.40716700  0.50460000  0.87974700  1
  H  927  1  0.45055800  0.07882100  0.66002800  1
  H  928  1  0.44330800  0.10593300  0.68088100  1
  H  929  1  0.43476600  0.13389600  0.69790200  1
  H  930  1  0.42365700  0.16146900  0.71137900  1
  H  931  1  0.38711600  0.15271100  0.67062000  1
  H  932  1  0.41062800  0.08488500  0.62790900  1
  H  933  1  0.36413600  0.11511500  0.67029700  1
  H  934  1  0.31947900  0.10102200  0.63257900  1
  H  935  1  0.34582100  0.10334800  0.61586100  1
  H  936  1  0.43390800  0.13100100  0.64185200  1
  H  937  1  0.37612600  0.10869600  0.60316700  1
  H  938  1  0.40742900  0.11813800  0.59630600  1
  H  968  1  0.44969400  0.33918600  0.39104200  1
  H  969  1  0.44317400  0.31792200  0.39693200  1
  H  970  1  0.43486900  0.30043800  0.40758700  1
  H  971  1  0.42400900  0.28666600  0.42148300  1
  H  972  1  0.38672600  0.32693700  0.45347700  1
  H  973  1  0.40857300  0.37015300  0.42887000  1
  H  974  1  0.36366800  0.32769600  0.41619000  1
  H  975  1  0.31892000  0.36537400  0.43971500  1
  H  976  1  0.34500600  0.38192100  0.45916600  1
  H  977  1  0.43338500  0.35611800  0.46065300  1
  H  978  1  0.37535400  0.39462200  0.47731100  1
  H  979  1  0.40687900  0.40162600  0.49339100  1
  H  991  1  0.89453500  0.75322900  0.21767400  1
  H  992  1  0.89122600  0.73153800  0.19034400  1
  H  999  1  0.86973100  0.79339200  0.23107100  1
  H  1000  1  0.87480600  0.81735300  0.25648400  1
  H  1001  1  0.93830300  0.80463300  0.25676100  1
  H  1002  1  0.89750800  0.76471000  0.17375300  1
  H  1006  1  0.94156500  0.77544100  0.21574300  1
  H  1007  1  0.93624400  0.76515100  0.22639900  1
  H  1008  1  0.96476100  0.79129200  0.23534100  1
  H  1010  1  0.90687700  0.80064700  0.21357500  1
  H  1011  1  0.91674800  0.79077400  0.19370200  1
  H  1012  1  0.88833100  0.80740200  0.19711500  1
  H  1015  1  0.92718100  0.83091000  0.27540300  1
  H  1016  1  0.89149800  0.73726400  0.15483900  1
  H  1023  1  0.89448800  0.49099400  0.24464300  1
  H  1024  1  0.89113200  0.48535500  0.26633200  1
  H  1031  1  0.86972800  0.46423800  0.20448700  1
  H  1032  1  0.87481800  0.46570200  0.18053500  1
  H  1033  1  0.93831800  0.47868200  0.19326700  1
  H  1034  1  0.89747000  0.43559100  0.23316900  1
  H  1038  1  0.94155600  0.46684100  0.22244800  1
  H  1039  1  0.93623500  0.48778800  0.23274500  1
  H  1040  1  0.96476400  0.47060000  0.20661200  1
  H  1042  1  0.90689300  0.43947900  0.19723800  1
  H  1043  1  0.91675700  0.42948500  0.20711900  1
  H  1044  1  0.88836200  0.41625500  0.19047100  1
  H  1047  1  0.92720100  0.47106700  0.16699300  1
  H  1048  1  0.89135100  0.44413600  0.26061700  1
  H  1055  1  0.89457900  0.78021400  0.50693400  1
  H  1056  1  0.89140100  0.80756100  0.51261100  1
  H  1063  1  0.86967300  0.76673400  0.53361400  1
  H  1064  1  0.87476000  0.74131200  0.53213800  1
  H  1065  1  0.93828900  0.74110700  0.51924200  1
  H  1066  1  0.89752200  0.82406700  0.56237000  1
  H  1070  1  0.94151400  0.78213500  0.53111000  1
  H  1071  1  0.93623700  0.77149400  0.51015800  1
  H  1072  1  0.96472400  0.76254700  0.52736800  1
  H  1074  1  0.90670400  0.78420500  0.55842900  1
  H  1075  1  0.91665500  0.80405500  0.56844900  1
  H  1076  1  0.88818600  0.80069000  0.58165200  1
  H  1079  1  0.92714700  0.72239200  0.52676900  1
  H  1080  1  0.89197100  0.84300700  0.55388100  1
  H  1087  1  0.39441400  0.26295900  0.76171700  1
  H  1088  1  0.39110500  0.28467000  0.78904000  1
  H  1095  1  0.36968000  0.22277100  0.74836700  1
  H  1096  1  0.37474200  0.19881700  0.72294400  1
  H  1097  1  0.43819000  0.21159500  0.72260100  1
  H  1098  1  0.39753200  0.25154900  0.80568000  1
  H  1102  1  0.44149500  0.24076700  0.76363200  1
  H  1103  1  0.43614500  0.25105900  0.75298200  1
  H  1104  1  0.46467300  0.22492100  0.74401800  1
  H  1106  1  0.40687300  0.21558600  0.76587100  1
  H  1107  1  0.41679700  0.22548900  0.78573000  1
  H  1108  1  0.38841200  0.20886000  0.78238900  1
  H  1111  1  0.42712600  0.18525500  0.70407100  1
  H  1112  1  0.39137500  0.27897300  0.82455100  1
  H  1119  1  0.39448000  0.52532400  0.73487700  1
  H  1120  1  0.39114900  0.53095900  0.71318500  1
  H  1127  1  0.36971500  0.55208300  0.77503400  1
  H  1128  1  0.37480400  0.55061200  0.79898300  1
  H  1129  1  0.43830300  0.53762700  0.78624600  1
  H  1130  1  0.39748300  0.58072300  0.74634300  1
  H  1134  1  0.44154200  0.54947700  0.75707000  1
  H  1135  1  0.43622100  0.52853100  0.74677300  1
  H  1136  1  0.46474900  0.54571700  0.77290700  1
  H  1138  1  0.40686700  0.57684300  0.78228300  1
  H  1139  1  0.41674700  0.58683200  0.77240100  1
  H  1140  1  0.38834500  0.60006800  0.78903800  1
  H  1143  1  0.42718300  0.54521100  0.81250900  1
  H  1144  1  0.39143500  0.57217700  0.71889000  1
  H  1151  1  0.39447500  0.23610600  0.47261100  1
  H  1152  1  0.39112800  0.20878100  0.46697700  1
  H  1159  1  0.36971500  0.24949600  0.44585300  1
  H  1160  1  0.37480200  0.27490300  0.44729800  1
  H  1161  1  0.43830900  0.27515600  0.46026600  1
  H  1162  1  0.39747300  0.19217100  0.41721200  1
  H  1166  1  0.44154700  0.23414200  0.44845500  1
  H  1167  1  0.43622400  0.24479800  0.46940100  1
  H  1168  1  0.46475600  0.25373500  0.45220800  1
  H  1170  1  0.40688300  0.23198800  0.42109100  1
  H  1171  1  0.41675000  0.21211300  0.41110000  1
  H  1172  1  0.38835300  0.21552700  0.39786900  1
  H  1175  1  0.42718000  0.29382000  0.45263900  1
  H  1176  1  0.39139100  0.17326800  0.42576300  1
  H  1183  1  0.08402200  0.52530000  0.76242400  1
  H  1184  1  0.08692200  0.53108600  0.78983600  1
  H  1191  1  0.10955200  0.55188200  0.74908600  1
  H  1192  1  0.10519300  0.54988100  0.72334700  1
  H  1193  1  0.04156100  0.53691900  0.72252000  1
  H  1194  1  0.08089000  0.58080400  0.80613100  1
  H  1198  1  0.03731400  0.54952400  0.76371000  1
  H  1199  1  0.04251900  0.52856100  0.75335300  1
  H  1200  1  0.01463500  0.54558700  0.74375200  1
  H  1202  1  0.07230900  0.57670700  0.76612400  1
  H  1203  1  0.06208900  0.58680300  0.78589600  1
  H  1204  1  0.09076900  0.59993800  0.78269900  1
  H  1207  1  0.05344000  0.54303200  0.70305000  1
  H  1208  1  0.08785300  0.57230400  0.82507900  1
  H  1215  1  0.08403200  0.23557700  0.73429700  1
  H  1216  1  0.08697300  0.20817500  0.71266000  1
  H  1223  1  0.10954800  0.24888800  0.77419100  1
  H  1224  1  0.10519600  0.27462900  0.79792800  1
  H  1225  1  0.04155000  0.27545000  0.78581700  1
  H  1226  1  0.08090400  0.19183700  0.74604900  1
  H  1230  1  0.03730100  0.23425900  0.75723600  1
  H  1231  1  0.04249500  0.24461200  0.74662500  1
  H  1232  1  0.01462400  0.25421500  0.77325700  1
  H  1234  1  0.07228800  0.23183100  0.78197600  1
  H  1235  1  0.06206700  0.21205900  0.77228300  1
  H  1236  1  0.09073500  0.21524100  0.78862000  1
  H  1239  1  0.05345100  0.29493400  0.81138900  1
  H  1240  1  0.08802500  0.17292400  0.71859800  1
  H  1247  1  0.08404100  0.26362800  0.47267000  1
  H  1248  1  0.08699300  0.28526700  0.46690700  1
  H  1255  1  0.10954800  0.22373100  0.44608100  1
  H  1256  1  0.10519000  0.19998500  0.44806500  1
  H  1257  1  0.04154600  0.21209900  0.46100300  1
  H  1258  1  0.08091500  0.25188000  0.41718000  1
  H  1262  1  0.03730500  0.24069500  0.44841400  1
  H  1263  1  0.04249800  0.25130100  0.46938000  1
  H  1264  1  0.01462300  0.22467100  0.45234200  1
  H  1266  1  0.07227900  0.21595400  0.42124500  1
  H  1267  1  0.06206700  0.22565100  0.41116800  1
  H  1268  1  0.09072600  0.20930600  0.39801000  1
  H  1271  1  0.05343500  0.18649100  0.45486300  1
  H  1272  1  0.08805500  0.27932900  0.42571800  1
  H  1279  1  0.58403600  0.49104700  0.21719400  1
  H  1280  1  0.58699500  0.48527200  0.18978800  1
  H  1287  1  0.60953600  0.46446500  0.23051200  1
  H  1288  1  0.60517500  0.46645300  0.25624500  1
  H  1289  1  0.54153300  0.47939200  0.25706400  1
  H  1290  1  0.58091200  0.43555000  0.17346600  1
  H  1294  1  0.53729500  0.46680000  0.21587800  1
  H  1295  1  0.54249300  0.48776600  0.22623600  1
  H  1296  1  0.51461100  0.47073500  0.23583200  1
  H  1298  1  0.57226500  0.43963100  0.21346200  1
  H  1299  1  0.56205700  0.42954600  0.19368600  1
  H  1300  1  0.59071600  0.41639500  0.19688500  1
  H  1303  1  0.55341700  0.47324700  0.27653000  1
  H  1304  1  0.58807700  0.44408100  0.15455000  1
  H  1311  1  0.58396300  0.78074400  0.24525200  1
  H  1312  1  0.58675600  0.80817000  0.26685800  1
  H  1319  1  0.60960700  0.76734500  0.20536600  1
  H  1320  1  0.60526300  0.74160500  0.18162900  1
  H  1321  1  0.54158000  0.74082000  0.19367500  1
  H  1322  1  0.58085000  0.82438900  0.23336400  1
  H  1326  1  0.53733900  0.78201000  0.22223900  1
  H  1327  1  0.54248700  0.77166900  0.23287000  1
  H  1328  1  0.51466300  0.76205600  0.20620900  1
  H  1330  1  0.57244600  0.78434600  0.19746800  1
  H  1331  1  0.56214400  0.80409300  0.20710500  1
  H  1332  1  0.59086900  0.80095100  0.19083200  1
  H  1335  1  0.55351500  0.72130100  0.16810300  1
  H  1336  1  0.58752800  0.84335600  0.26079100  1
  H  1343  1  0.58401700  0.75281000  0.50689800  1
  H  1344  1  0.58697900  0.73114600  0.51262400  1
  H  1351  1  0.60951200  0.79270800  0.53350500  1
  H  1352  1  0.60515100  0.81644800  0.53150300  1
  H  1353  1  0.54150400  0.80433300  0.51859100  1
  H  1354  1  0.58088700  0.76448100  0.56236100  1
  H  1358  1  0.53727600  0.77573500  0.53118300  1
  H  1359  1  0.54247100  0.76513800  0.51021800  1
  H  1360  1  0.51458700  0.79176100  0.52726100  1
  H  1362  1  0.57226200  0.80044200  0.55835500  1
  H  1363  1  0.56203800  0.79072200  0.56840700  1
  H  1364  1  0.59070300  0.80705100  0.58158400  1
  H  1367  1  0.55340400  0.82990100  0.52458200  1
  H  1368  1  0.58810200  0.73705000  0.55379200  1
  H  1375  1  0.75519100  0.67113500  0.07844900  1
  H  1376  1  0.79230300  0.67030100  0.07392700  1
  H  1383  1  0.72193000  0.69221300  0.06584400  1
  H  1384  1  0.68429000  0.69163100  0.06813800  1
  H  1385  1  0.69052800  0.69923100  0.11523700  1
  H  1386  1  0.79267400  0.72015500  0.09084300  1
  H  1390  1  0.74444700  0.71057800  0.12082300  1
  H  1391  1  0.74252700  0.68963400  0.11368600  1
  H  1392  1  0.71650800  0.71456800  0.13728500  1
  H  1394  1  0.73633900  0.72700400  0.10019200  1
  H  1395  1  0.76112500  0.73633100  0.10296400  1
  H  1396  1  0.74175500  0.73640100  0.08239300  1
  H  1399  1  0.65313700  0.70337500  0.09928900  1
  H  1400  1  0.82239600  0.70209400  0.07545200  1
  H  1407  1  0.75528500  0.43377000  0.32674100  1
  H  1408  1  0.79239300  0.43001800  0.32757900  1
  H  1415  1  0.72195700  0.40013800  0.30557000  1
  H  1416  1  0.68433000  0.40307400  0.30616600  1
  H  1417  1  0.69071000  0.44270600  0.29878800  1
  H  1418  1  0.79273400  0.39716800  0.27768800  1
  H  1422  1  0.74462500  0.43679600  0.28733300  1
  H  1423  1  0.74273400  0.45060900  0.30827800  1
  H  1424  1  0.71673400  0.44930800  0.28334900  1
  H  1426  1  0.73639700  0.39973800  0.27086700  1
  H  1427  1  0.76117700  0.39319600  0.26152400  1
  H  1428  1  0.74180400  0.37253000  0.26140600  1
  H  1431  1  0.65300800  0.42151200  0.29459500  1
  H  1432  1  0.82243400  0.39977200  0.29578100  1
  H  1439  1  0.75527100  0.91951100  0.56408600  1
  H  1440  1  0.79240700  0.92410000  0.56779300  1
  H  1447  1  0.72197500  0.93199400  0.59777300  1
  H  1448  1  0.68434600  0.92965100  0.59485900  1
  H  1449  1  0.69070800  0.88265000  0.55521100  1
  H  1450  1  0.79277500  0.90710900  0.60070500  1
  H  1454  1  0.74464100  0.87711100  0.56109300  1
  H  1455  1  0.74272000  0.88423800  0.54727800  1
  H  1456  1  0.71674600  0.86060900  0.54860300  1
  H  1458  1  0.73645700  0.89767800  0.59814400  1
  H  1459  1  0.76124600  0.89491500  0.60470200  1
  H  1460  1  0.74183400  0.91544500  0.62535200  1
  H  1463  1  0.65300100  0.89974400  0.57653100  1
  H  1464  1  0.82244500  0.92262300  0.59808100  1
  H  1471  1  0.25529100  0.34515500  0.90106600  1
  H  1472  1  0.29240600  0.34601800  0.90565200  1
  H  1479  1  0.22199600  0.32400300  0.91359800  1
  H  1480  1  0.18436500  0.32459100  0.91126900  1
  H  1481  1  0.19070700  0.31716900  0.86424000  1
  H  1482  1  0.29276800  0.29614600  0.88872900  1
  H  1486  1  0.24462700  0.30571300  0.85868900  1
  H  1487  1  0.24272700  0.32665100  0.86578900  1
  H  1488  1  0.21672200  0.30169500  0.84219400  1
  H  1490  1  0.23640600  0.28930900  0.87937800  1
  H  1491  1  0.26119600  0.27996300  0.87649800  1
  H  1492  1  0.24194500  0.27982500  0.89708800  1
  H  1495  1  0.15298100  0.31301300  0.88140400  1
  H  1496  1  0.32247400  0.31425500  0.90417100  1
  H  1503  1  0.25530800  0.58249400  0.65274100  1
  H  1504  1  0.29244300  0.58620800  0.65187700  1
  H  1511  1  0.22201500  0.61615500  0.67391000  1
  H  1512  1  0.18438200  0.61324400  0.67332800  1
  H  1513  1  0.19071900  0.57362300  0.68072800  1
  H  1514  1  0.29278500  0.61909900  0.70178200  1
  H  1518  1  0.24464100  0.57951400  0.69217500  1
  H  1519  1  0.24273800  0.56568600  0.67123500  1
  H  1520  1  0.21673400  0.56703300  0.69618500  1
  H  1522  1  0.23645500  0.61654100  0.70862600  1
  H  1523  1  0.26123900  0.62308100  0.71795800  1
  H  1524  1  0.24185700  0.64374700  0.71808400  1
  H  1527  1  0.15299900  0.59496500  0.68490300  1
  H  1528  1  0.32247400  0.61648100  0.68366600  1
  H  1535  1  0.25531400  0.09681600  0.41543100  1
  H  1536  1  0.29245400  0.09226300  0.41172800  1
  H  1543  1  0.22201000  0.08430200  0.38175800  1
  H  1544  1  0.18437800  0.08662500  0.38467100  1
  H  1545  1  0.19070400  0.13364500  0.42429400  1
  H  1546  1  0.29276600  0.10925000  0.37881600  1
  H  1550  1  0.24462200  0.13921100  0.41840200  1
  H  1551  1  0.24272400  0.13210000  0.43223000  1
  H  1552  1  0.21671100  0.15569800  0.43088200  1
  H  1554  1  0.23642600  0.11862000  0.38136300  1
  H  1555  1  0.26120600  0.12142300  0.37482300  1
  H  1556  1  0.24183900  0.10087000  0.35415800  1
  H  1559  1  0.15298300  0.11646200  0.40294100  1
  H  1560  1  0.32249200  0.09381300  0.38146300  1
  H  1567  1  0.22377700  0.58314800  0.90154900  1
  H  1568  1  0.18660000  0.58676900  0.90612900  1
  H  1575  1  0.25678800  0.61676800  0.91363300  1
  H  1576  1  0.29441100  0.61379600  0.91137600  1
  H  1577  1  0.28809600  0.57381600  0.86455200  1
  H  1578  1  0.18591800  0.61914500  0.88844900  1
  H  1582  1  0.23417700  0.57965600  0.85882300  1
  H  1583  1  0.23611700  0.56599800  0.86614100  1
  H  1584  1  0.26212000  0.56709700  0.84240000  1
  H  1586  1  0.24158200  0.61598200  0.87794400  1
  H  1587  1  0.21694000  0.62392300  0.87694200  1
  H  1588  1  0.23860400  0.64330000  0.89658200  1
  H  1591  1  0.32610900  0.59585700  0.88269700  1
  H  1592  1  0.15661400  0.61691200  0.90466600  1
  H  1599  1  0.22401000  0.09646700  0.65292600  1
  H  1600  1  0.18683900  0.09186800  0.65194900  1
  H  1607  1  0.25702600  0.08431400  0.67445000  1
  H  1608  1  0.29465100  0.08657000  0.67376300  1
  H  1609  1  0.28837100  0.13339900  0.68062000  1
  H  1610  1  0.18616400  0.10937800  0.70197500  1
  H  1614  1  0.23443900  0.13911700  0.69218100  1
  H  1615  1  0.23637600  0.13183200  0.67121100  1
  H  1616  1  0.26238100  0.15554700  0.69607200  1
  H  1618  1  0.24201500  0.11965200  0.70923400  1
  H  1619  1  0.21728700  0.12118500  0.71827100  1
  H  1620  1  0.23829800  0.10130700  0.71819900  1
  H  1623  1  0.32631600  0.11536600  0.68464300  1
  H  1624  1  0.15682300  0.09324300  0.68351300  1
  H  1631  1  0.22402900  0.34497800  0.41489100  1
  H  1632  1  0.18685800  0.34599200  0.41130200  1
  H  1639  1  0.25699500  0.32360700  0.38129900  1
  H  1640  1  0.29462400  0.32428700  0.38426200  1
  H  1641  1  0.28829800  0.31700100  0.42396400  1
  H  1642  1  0.18608500  0.29596600  0.37878300  1
  H  1646  1  0.23436700  0.30561500  0.41821900  1
  H  1647  1  0.23633500  0.32658700  0.43189100  1
  H  1648  1  0.26229100  0.30172500  0.43077800  1
  H  1650  1  0.24186300  0.28861000  0.38178100  1
  H  1651  1  0.21715000  0.27963900  0.37411700  1
  H  1652  1  0.23839100  0.27981800  0.35448100  1
  H  1655  1  0.32592900  0.31309500  0.40369700  1
  H  1656  1  0.15678200  0.31444200  0.38113200  1
  H  1663  1  0.72393200  0.43313900  0.07797800  1
  H  1664  1  0.68677300  0.42950000  0.07331900  1
  H  1671  1  0.75691500  0.39953300  0.06593000  1
  H  1672  1  0.79453200  0.40253400  0.06822200  1
  H  1673  1  0.78813300  0.44249300  0.11505000  1
  H  1674  1  0.68596900  0.39711400  0.09098500  1
  H  1678  1  0.73420700  0.43662500  0.12072600  1
  H  1679  1  0.73615600  0.45027800  0.11340200  1
  H  1680  1  0.76212000  0.44920900  0.13717800  1
  H  1682  1  0.74166800  0.40022100  0.10148700  1
  H  1683  1  0.71698300  0.39240800  0.10261200  1
  H  1684  1  0.73847900  0.37290900  0.08291600  1
  H  1687  1  0.82614800  0.42066200  0.09712400  1
  H  1688  1  0.65673200  0.39936300  0.07470000  1
  H  1695  1  0.72392900  0.91990300  0.32657600  1
  H  1696  1  0.68676400  0.92454400  0.32760900  1
  H  1703  1  0.75688400  0.93199200  0.30501700  1
  H  1704  1  0.79450300  0.92970700  0.30570700  1
  H  1705  1  0.78814000  0.88287200  0.29882700  1
  H  1706  1  0.68593900  0.90695000  0.27756800  1
  H  1710  1  0.73420200  0.87719100  0.28731100  1
  H  1711  1  0.73617300  0.88450900  0.30828700  1
  H  1712  1  0.76212500  0.86074200  0.28342500  1
  H  1714  1  0.74163800  0.89644100  0.27015100  1
  H  1715  1  0.71694500  0.89531000  0.26122100  1
  H  1716  1  0.73842700  0.91500900  0.26140700  1
  H  1719  1  0.82613000  0.90078900  0.29491200  1
  H  1720  1  0.65670900  0.92322500  0.29612600  1
  H  1727  1  0.72391600  0.67136900  0.56467800  1
  H  1728  1  0.68675400  0.67033800  0.56829800  1
  H  1735  1  0.75686600  0.69289200  0.59834200  1
  H  1736  1  0.79448800  0.69217500  0.59536100  1
  H  1737  1  0.78815500  0.69909500  0.55542800  1
  H  1738  1  0.68595400  0.72036600  0.60080000  1
  H  1742  1  0.73423300  0.71066800  0.56129700  1
  H  1743  1  0.73617600  0.68969700  0.54761400  1
  H  1744  1  0.76217000  0.71455700  0.54874800  1
  H  1746  1  0.74171600  0.72774500  0.59776100  1
  H  1747  1  0.71700200  0.73671000  0.60543700  1
  H  1748  1  0.73828200  0.73654900  0.62506600  1
  H  1751  1  0.82616700  0.70293800  0.57732700  1
  H  1752  1  0.65668300  0.70183600  0.59846900  1
  H  1759  1  0.98116700  0.60535000  0.00412300  1
  H  1760  1  0.95939800  0.62125600  0.02705000  1
  H  1767  1  0.01783900  0.62551800  0.98888300  1
  H  1768  1  0.03935000  0.61082100  0.96543000  1
  H  1769  1  0.99068100  0.57676000  0.94303000  1
  H  1770  1  0.94865500  0.65410900  0.01051300  1
  H  1774  1  0.95006500  0.60018400  0.96943000  1
  H  1775  1  0.95967500  0.58683700  0.97570000  1
  H  1776  1  0.95199700  0.57979000  0.94347300  1
  H  1778  1  0.97952300  0.63202100  0.97287200  1
  H  1779  1  0.95546700  0.64242000  0.98002800  1
  H  1780  1  0.98360800  0.65948400  0.98392800  1
  H  1783  1  0.01986200  0.57559600  0.92760600  1
  H  1784  1  0.93900200  0.66123800  0.03727100  1
  H  1791  1  0.98115600  0.42535300  0.39248000  1
  H  1792  1  0.95943100  0.43237300  0.37655300  1
  H  1799  1  0.01752300  0.38953200  0.37220300  1
  H  1800  1  0.03868500  0.38036400  0.38670200  1
  H  1801  1  0.99031000  0.39286300  0.42113800  1
  H  1802  1  0.94851100  0.38298600  0.34378100  1
  H  1806  1  0.94985700  0.39636500  0.39791600  1
  H  1807  1  0.95985700  0.41585700  0.41124600  1
  H  1808  1  0.95159200  0.39072600  0.41826300  1
  H  1810  1  0.97915800  0.36743000  0.36595400  1
  H  1811  1  0.95519200  0.36421500  0.35546300  1
  H  1812  1  0.98340700  0.35099100  0.33851100  1
  H  1815  1  0.01799500  0.37667200  0.42086900  1
  H  1816  1  0.93899000  0.40261300  0.33659500  1
  H  1823  1  0.98111700  0.99372200  0.57255900  1
  H  1824  1  0.95935500  0.97079200  0.56552400  1
  H  1831  1  0.01751000  0.00921300  0.60835500  1
  H  1832  1  0.03870700  0.03286300  0.61751100  1
  H  1833  1  0.99033800  0.05485000  0.60506700  1
  H  1834  1  0.94845400  0.98736700  0.61490600  1
  H  1838  1  0.94985600  0.02815500  0.60158800  1
  H  1839  1  0.95983300  0.02199600  0.58209200  1
  H  1840  1  0.95162100  0.05414400  0.60724100  1
  H  1842  1  0.97917300  0.02506600  0.63048400  1
  H  1843  1  0.95518800  0.01781300  0.63369900  1
  H  1844  1  0.98338700  0.01403200  0.64690000  1
  H  1847  1  0.01808700  0.07073800  0.62118400  1
  H  1848  1  0.93891400  0.96056300  0.59526100  1
  H  1855  1  0.48115000  0.41085500  0.97524500  1
  H  1856  1  0.45941900  0.39494300  0.95229900  1
  H  1863  1  0.51749400  0.39057100  0.99080700  1
  H  1864  1  0.53863400  0.40506400  0.01448900  1
  H  1865  1  0.49026100  0.43950600  0.03639600  1
  H  1866  1  0.44846800  0.36216500  0.96890200  1
  H  1870  1  0.44982500  0.41629000  0.00964800  1
  H  1871  1  0.45984600  0.42962400  0.00349800  1
  H  1872  1  0.45154400  0.43663000  0.03563900  1
  H  1874  1  0.47911800  0.38432000  0.00663200  1
  H  1875  1  0.45514800  0.37383600  0.99935200  1
  H  1876  1  0.48335500  0.35687500  0.99562300  1
  H  1879  1  0.51791900  0.43924000  0.05233300  1
  H  1880  1  0.43892500  0.35499400  0.94210000  1
  H  1887  1  0.48118200  0.59094300  0.58703600  1
  H  1888  1  0.45943300  0.58390700  0.60293900  1
  H  1895  1  0.51751100  0.62681400  0.60733200  1
  H  1896  1  0.53862900  0.63603000  0.59285200  1
  H  1897  1  0.49027200  0.62345300  0.55839100  1
  H  1898  1  0.44847000  0.63328600  0.63571500  1
  H  1902  1  0.44984900  0.61988500  0.58159300  1
  H  1903  1  0.45989000  0.60040900  0.56825800  1
  H  1904  1  0.45155300  0.62554400  0.56125900  1
  H  1906  1  0.47914100  0.64886800  0.61357700  1
  H  1907  1  0.45516600  0.65206800  0.62405200  1
  H  1908  1  0.48336300  0.66529900  0.64102400  1
  H  1911  1  0.51786700  0.63976600  0.55873100  1
  H  1912  1  0.43892300  0.61365200  0.64288100  1
  H  1919  1  0.48113500  0.02266300  0.40699700  1
  H  1920  1  0.45937300  0.04559100  0.41402000  1
  H  1927  1  0.51752100  0.00713000  0.37118800  1
  H  1928  1  0.53869700  0.98347300  0.36205000  1
  H  1929  1  0.49031000  0.96153800  0.37453800  1
  H  1930  1  0.44846500  0.02898900  0.36463500  1
  H  1934  1  0.44985000  0.98823900  0.37798900  1
  H  1935  1  0.45982200  0.99440400  0.39748800  1
  H  1936  1  0.45159300  0.96225300  0.37234800  1
  H  1938  1  0.47917900  0.99128600  0.34907300  1
  H  1939  1  0.45519100  0.99853600  0.34585700  1
  H  1940  1  0.48338400  0.00230100  0.33263900  1
  H  1943  1  0.51802300  0.94562700  0.35840800  1
  H  1944  1  0.43887900  0.05578100  0.38426500  1
  H  1951  1  0.99749800  0.41103900  0.97512000  1
  H  1952  1  0.01920800  0.39498300  0.95210800  1
  H  1959  1  0.96109100  0.39102700  0.99080900  1
  H  1960  1  0.94065100  0.40485000  0.01491600  1
  H  1961  1  0.98950700  0.43875900  0.03714400  1
  H  1962  1  0.02999000  0.36234600  0.96890200  1
  H  1966  1  0.02921000  0.41617900  0.00941000  1
  H  1967  1  0.01889200  0.42980400  0.00374500  1
  H  1968  1  0.02810700  0.43619300  0.03555600  1
  H  1970  1  0.99950700  0.38456900  0.00662500  1
  H  1971  1  0.02346800  0.37409900  0.99929800  1
  H  1972  1  0.99532100  0.35712700  0.99566700  1
  H  1975  1  0.96268900  0.43695300  0.05324500  1
  H  1976  1  0.04271100  0.35597000  0.94330300  1
  H  1983  1  0.99751500  0.59062000  0.58688700  1
  H  1984  1  0.01922400  0.58366400  0.60294400  1
  H  1991  1  0.96111600  0.62632800  0.60691000  1
  H  1992  1  0.94067600  0.63663600  0.59311000  1
  H  1993  1  0.98951300  0.62495700  0.55918700  1
  H  1994  1  0.03001200  0.63309400  0.63557800  1
  H  1998  1  0.02922100  0.61976500  0.58173600  1
  H  1999  1  0.01888700  0.60048100  0.56811000  1
  H  2000  1  0.02811200  0.62590400  0.56172800  1
  H  2002  1  0.99954000  0.64859600  0.61335200  1
  H  2003  1  0.02349300  0.65173900  0.62383000  1
  H  2004  1  0.99533700  0.66507800  0.64079300  1
  H  2007  1  0.96268800  0.64288200  0.56100700  1
  H  2008  1  0.04272400  0.61387500  0.64196000  1
  H  2015  1  0.99749300  0.02279900  0.40729200  1
  H  2016  1  0.01920800  0.04580800  0.41424600  1
  H  2023  1  0.96110100  0.00710000  0.37157000  1
  H  2024  1  0.94068000  0.98298100  0.36125000  1
  H  2025  1  0.98951600  0.96076000  0.37295800  1
  H  2026  1  0.02999900  0.02900600  0.36481400  1
  H  2030  1  0.02921000  0.98851800  0.37816600  1
  H  2031  1  0.01886700  0.99417100  0.39744600  1
  H  2032  1  0.02811500  0.96236900  0.37202600  1
  H  2034  1  0.99951800  0.99128400  0.34931600  1
  H  2035  1  0.02347600  0.99861300  0.34617100  1
  H  2036  1  0.99532600  0.00224000  0.33283100  1
  H  2039  1  0.96275600  0.94464500  0.35494900  1
  H  2040  1  0.04273000  0.05460100  0.38403300  1
  H  2047  1  0.49748900  0.60528200  0.00441300  1
  H  2048  1  0.51918900  0.62135600  0.02742700  1
  H  2055  1  0.46110300  0.62527800  0.98870700  1
  H  2056  1  0.44065800  0.61146800  0.96460200  1
  H  2057  1  0.48949300  0.57754300  0.94236300  1
  H  2058  1  0.53001000  0.65394500  0.01058000  1
  H  2062  1  0.52920600  0.60010300  0.97009300  1
  H  2063  1  0.51888100  0.58648500  0.97576400  1
  H  2064  1  0.52809100  0.58008200  0.94395000  1
  H  2066  1  0.49953800  0.63169500  0.97285400  1
  H  2067  1  0.52349600  0.64217000  0.98018100  1
  H  2068  1  0.49534700  0.65913300  0.98378900  1
  H  2071  1  0.46267600  0.57937400  0.92625700  1
  H  2072  1  0.54264100  0.66036400  0.03620100  1
  H  2079  1  0.49747000  0.42568200  0.39264400  1
  H  2080  1  0.51919800  0.43264300  0.37660100  1
  H  2087  1  0.46111100  0.38991300  0.37259100  1
  H  2088  1  0.44072700  0.37953600  0.38635500  1
  H  2089  1  0.48951600  0.39132800  0.42033500  1
  H  2090  1  0.53001200  0.38321400  0.34397200  1
  H  2094  1  0.52919600  0.39661100  0.39782500  1
  H  2095  1  0.51880600  0.41587400  0.41145300  1
  H  2096  1  0.52811600  0.39045400  0.41782200  1
  H  2098  1  0.49953000  0.36770500  0.36618400  1
  H  2099  1  0.52348500  0.36456800  0.35571000  1
  H  2100  1  0.49533600  0.35122100  0.33874300  1
  H  2103  1  0.46298700  0.37299700  0.41812400  1
  H  2104  1  0.54275400  0.40243200  0.33761200  1
  H  2111  1  0.49748100  0.99388500  0.57243300  1
  H  2112  1  0.51913200  0.97083800  0.56545900  1
  H  2119  1  0.46056800  0.00873800  0.60723700  1
  H  2120  1  0.43871600  0.03203800  0.61598200  1
  H  2121  1  0.48769300  0.05557800  0.60612000  1
  H  2122  1  0.52966100  0.98748300  0.61487900  1
  H  2126  1  0.52847000  0.02909300  0.60281600  1
  H  2127  1  0.51910600  0.02293500  0.58316400  1
  H  2128  1  0.52644200  0.05510800  0.60856100  1
  H  2130  1  0.49891800  0.02512100  0.63038200  1
  H  2131  1  0.52300000  0.01796900  0.63359500  1
  H  2132  1  0.49491900  0.01405500  0.64679000  1
  H  2135  1  0.45443400  0.06925600  0.61627700  1
  H  2136  1  0.54228300  0.96184500  0.59564200  1
  H  2143  1  0.95214000  0.57279700  0.09803900  1
  H  2144  1  0.94537200  0.59763300  0.09870500  1
  H  2151  1  0.91140900  0.56072800  0.12169300  1
  H  2152  1  0.91468500  0.53614200  0.12216500  1
  H  2153  1  0.98041900  0.53723100  0.11726800  1
  H  2154  1  0.92195400  0.61754800  0.14613900  1
  H  2158  1  0.98285600  0.57929300  0.12987100  1
  H  2159  1  0.98607700  0.56661100  0.10881200  1
  H  2160  1  0.00334000  0.56207200  0.13382600  1
  H  2162  1  0.93350300  0.58253600  0.15094800  1
  H  2163  1  0.93276500  0.60376100  0.16153900  1
  H  2164  1  0.90041600  0.59226900  0.16136000  1
  H  2167  1  0.96422900  0.51900000  0.12468500  1
  H  2168  1  0.91461900  0.63055600  0.13133500  1
  H  2175  1  0.95184600  0.55187600  0.42522200  1
  H  2176  1  0.94480600  0.52771600  0.40044300  1
  H  2183  1  0.91144500  0.58769800  0.43721900  1
  H  2184  1  0.91477600  0.61272200  0.46183800  1
  H  2185  1  0.98048000  0.60657600  0.46076500  1
  H  2186  1  0.92193600  0.55529200  0.38042900  1
  H  2190  1  0.98290300  0.57717400  0.41869600  1
  H  2191  1  0.98598400  0.56871900  0.43132000  1
  H  2192  1  0.00348400  0.59824800  0.43597400  1
  H  2194  1  0.93385600  0.59508100  0.41538400  1
  H  2195  1  0.93307100  0.58442600  0.39415900  1
  H  2196  1  0.90081900  0.59594900  0.40568700  1
  H  2199  1  0.96436000  0.63225300  0.47902900  1
  H  2200  1  0.91369400  0.52762000  0.36789400  1
  H  2207  1  0.95211400  0.89989700  0.44614700  1
  H  2208  1  0.94535700  0.89921900  0.47031400  1
  H  2215  1  0.91137300  0.87625600  0.41041900  1
  H  2216  1  0.91465700  0.87576900  0.38535600  1
  H  2217  1  0.98039200  0.88064600  0.39133700  1
  H  2218  1  0.92190900  0.85179500  0.44278100  1
  H  2222  1  0.98280900  0.86805600  0.42080700  1
  H  2223  1  0.98604700  0.88911300  0.42917700  1
  H  2224  1  0.00329400  0.86408500  0.39962600  1
  H  2226  1  0.93344600  0.84699900  0.40296800  1
  H  2227  1  0.93271500  0.83640500  0.41359700  1
  H  2228  1  0.90036200  0.83658300  0.40228900  1
  H  2231  1  0.96420400  0.87322800  0.36568800  1
  H  2232  1  0.91472400  0.86651500  0.47058400  1
  H  2239  1  0.45210600  0.44351200  0.88149900  1
  H  2240  1  0.44532000  0.41866900  0.88081600  1
  H  2247  1  0.41140000  0.45560900  0.85785500  1
  H  2248  1  0.41469300  0.48020300  0.85740000  1
  H  2249  1  0.48042400  0.47908600  0.86228700  1
  H  2250  1  0.42193100  0.39878200  0.83337700  1
  H  2254  1  0.48283400  0.43701800  0.84966000  1
  H  2255  1  0.48606100  0.44969100  0.87072200  1
  H  2256  1  0.50332900  0.45424000  0.84571600  1
  H  2258  1  0.43349300  0.43380700  0.82859700  1
  H  2259  1  0.43276300  0.41258200  0.81799500  1
  H  2260  1  0.40041400  0.42406900  0.81816600  1
  H  2263  1  0.46425600  0.49734800  0.85490700  1
  H  2264  1  0.41460600  0.38574300  0.84814800  1
  H  2271  1  0.45210400  0.46453500  0.55440700  1
  H  2272  1  0.44532400  0.48870000  0.57924900  1
  H  2279  1  0.41138600  0.42880000  0.54234500  1
  H  2280  1  0.41465700  0.40375700  0.51775000  1
  H  2281  1  0.48038100  0.40976700  0.51879800  1
  H  2282  1  0.42193200  0.46115800  0.59914700  1
  H  2286  1  0.48283700  0.43919200  0.56087900  1
  H  2287  1  0.48605600  0.44757400  0.54820100  1
  H  2288  1  0.50330500  0.41801100  0.54364500  1
  H  2290  1  0.43350100  0.42134900  0.56413100  1
  H  2291  1  0.43276600  0.43197800  0.58535500  1
  H  2292  1  0.40042100  0.42065500  0.57386600  1
  H  2295  1  0.46422600  0.38415800  0.50047700  1
  H  2296  1  0.41466500  0.48897300  0.61221300  1
  H  2303  1  0.45209000  0.11639000  0.53339900  1
  H  2304  1  0.44530300  0.11707600  0.50923900  1
  H  2311  1  0.41140800  0.14002100  0.56915400  1
  H  2312  1  0.41473300  0.14051700  0.59422200  1
  H  2313  1  0.48046800  0.13570000  0.58822100  1
  H  2314  1  0.42192900  0.16451800  0.53679500  1
  H  2318  1  0.48282200  0.14825800  0.55873800  1
  H  2319  1  0.48605500  0.12719800  0.55034800  1
  H  2320  1  0.50335500  0.15220700  0.57988600  1
  H  2322  1  0.43348700  0.16929300  0.57659900  1
  H  2323  1  0.43278100  0.17989500  0.56597600  1
  H  2324  1  0.40042200  0.17974500  0.57729000  1
  H  2327  1  0.46425300  0.14330100  0.61393900  1
  H  2328  1  0.41464900  0.14977800  0.50898300  1
  H  2335  1  0.02688300  0.46489500  0.88178900  1
  H  2336  1  0.03356600  0.48920000  0.88134300  1
  H  2343  1  0.06767700  0.42939600  0.85801100  1
  H  2344  1  0.06457000  0.40413800  0.85715000  1
  H  2345  1  0.99876100  0.40969800  0.86167200  1
  H  2346  1  0.05683400  0.46200400  0.83382800  1
  H  2350  1  0.99615100  0.43952700  0.84964500  1
  H  2351  1  0.99297700  0.44781800  0.87069600  1
  H  2352  1  0.97566200  0.41833800  0.84562100  1
  H  2354  1  0.04535700  0.42204200  0.82867900  1
  H  2355  1  0.04607300  0.43283200  0.81824500  1
  H  2356  1  0.07841800  0.42143700  0.81826800  1
  H  2359  1  0.01525900  0.38396900  0.85372800  1
  H  2360  1  0.06375500  0.48983200  0.84859700  1
  H  2367  1  0.02692200  0.11614200  0.55449300  1
  H  2368  1  0.03361600  0.11660400  0.57925200  1
  H  2375  1  0.06769500  0.13993200  0.54276400  1
  H  2376  1  0.06458300  0.14080300  0.51837400  1
  H  2377  1  0.99877800  0.13624700  0.51939700  1
  H  2378  1  0.05685100  0.16412700  0.59955100  1
  H  2382  1  0.99616500  0.14826600  0.56125200  1
  H  2383  1  0.99300600  0.12721200  0.54848800  1
  H  2384  1  0.97567000  0.15228300  0.54408500  1
  H  2386  1  0.04535400  0.16925300  0.56472900  1
  H  2387  1  0.04607400  0.17969400  0.58595300  1
  H  2388  1  0.07841300  0.17967500  0.57452800  1
  H  2391  1  0.01527700  0.14423200  0.50163700  1
  H  2392  1  0.06376200  0.14939100  0.61264000  1
  H  2399  1  0.02688000  0.44342400  0.53303300  1
  H  2400  1  0.03356300  0.41866200  0.50874100  1
  H  2407  1  0.06767100  0.45517200  0.56854600  1
  H  2408  1  0.06455500  0.47957600  0.59379600  1
  H  2409  1  0.99874700  0.47853300  0.58821800  1
  H  2410  1  0.05683600  0.39837700  0.53596800  1
  H  2414  1  0.99614500  0.43667000  0.55840000  1
  H  2415  1  0.99297500  0.44942600  0.55010400  1
  H  2416  1  0.97565200  0.45383800  0.57958500  1
  H  2418  1  0.04536200  0.43321000  0.57591500  1
  H  2419  1  0.04607900  0.41198600  0.56513900  1
  H  2420  1  0.07842600  0.42341100  0.57652500  1
  H  2423  1  0.01522900  0.49632700  0.61394700  1
  H  2424  1  0.06378200  0.38531300  0.50814300  1
  H  2431  1  0.52716000  0.55151000  0.09776000  1
  H  2432  1  0.53409900  0.52722200  0.09817100  1
  H  2439  1  0.56765200  0.58710600  0.12172700  1
  H  2440  1  0.56451600  0.61232600  0.12251300  1
  H  2441  1  0.49874300  0.60660300  0.11772900  1
  H  2442  1  0.55682600  0.55448100  0.14584000  1
  H  2446  1  0.49609000  0.57684100  0.12984500  1
  H  2447  1  0.49306600  0.56848400  0.10877300  1
  H  2448  1  0.47554100  0.59795000  0.13372000  1
  H  2450  1  0.54500800  0.59440700  0.15099600  1
  H  2451  1  0.54576900  0.58360200  0.16141600  1
  H  2452  1  0.57802400  0.59518900  0.16154800  1
  H  2455  1  0.51516200  0.63234400  0.12561700  1
  H  2456  1  0.56467100  0.52679900  0.13075600  1
  H  2463  1  0.52690900  0.90017600  0.42504900  1
  H  2464  1  0.53357000  0.89970700  0.40028400  1
  H  2471  1  0.56771000  0.87640000  0.43678700  1
  H  2472  1  0.56459500  0.87552700  0.46117700  1
  H  2473  1  0.49879100  0.88006600  0.46014300  1
  H  2474  1  0.55685700  0.85219800  0.37999300  1
  H  2478  1  0.49618600  0.86805300  0.41828800  1
  H  2479  1  0.49301100  0.88910400  0.43105800  1
  H  2480  1  0.47569800  0.86401600  0.43544400  1
  H  2482  1  0.54540600  0.84707800  0.41482300  1
  H  2483  1  0.54610800  0.83663500  0.39360000  1
  H  2484  1  0.57846400  0.83666200  0.40501000  1
  H  2487  1  0.51530000  0.87206900  0.47789600  1
  H  2488  1  0.56365700  0.86689300  0.36687200  1
  H  2495  1  0.52690300  0.57289900  0.44650500  1
  H  2496  1  0.53358600  0.59766400  0.47079500  1
  H  2503  1  0.56769000  0.56116000  0.41099700  1
  H  2504  1  0.56458900  0.53676400  0.38573800  1
  H  2505  1  0.49878100  0.53778400  0.39129400  1
  H  2506  1  0.55682600  0.61794800  0.44355900  1
  H  2510  1  0.49615400  0.57963800  0.42112400  1
  H  2511  1  0.49299500  0.56688200  0.42942100  1
  H  2512  1  0.47566500  0.56246300  0.39994000  1
  H  2514  1  0.54535200  0.58311100  0.40361600  1
  H  2515  1  0.54606600  0.60433400  0.41439000  1
  H  2516  1  0.57841100  0.59291100  0.40299800  1
  H  2519  1  0.51529200  0.52002400  0.36555700  1
  H  2520  1  0.56375700  0.63103100  0.47138100  1
  C  1  1  0.89851700  0.65654100  0.10314600  1
  C  2  1  0.87779800  0.65068300  0.10128500  1
  C  3  1  0.86438300  0.66011400  0.09800900  1
  C  4  1  0.87622100  0.67189500  0.09690500  1
  C  5  1  0.86562500  0.68223200  0.09251300  1
  C  6  1  0.84338800  0.68098400  0.08984000  1
  C  7  1  0.83189900  0.66948600  0.09197900  1
  C  8  1  0.84235600  0.65885200  0.09582400  1
  C  9  1  0.87278000  0.63669600  0.10191400  1
  C  10  1  0.88903100  0.62847000  0.10471200  1
  C  11  1  0.91011200  0.63419400  0.10723700  1
  C  12  1  0.91492000  0.64819400  0.10616100  1
  C  13  1  0.91444900  0.66943300  0.08828000  1
  C  14  1  0.92890800  0.68224600  0.09521600  1
  C  15  1  0.92424100  0.69217100  0.11137900  1
  C  16  1  0.90645800  0.68622900  0.11545500  1
  C  17  1  0.93486500  0.70624900  0.12265200  1
  C  18  1  0.92700300  0.71491100  0.13843300  1
  C  19  1  0.90846700  0.70989000  0.14299100  1
  C  20  1  0.89843900  0.69523100  0.13150100  1
  C  21  1  0.91703900  0.65747700  0.07173600  1
  C  22  1  0.93359000  0.65892300  0.06243600  1
  C  23  1  0.94785400  0.67208000  0.07011300  1
  C  24  1  0.94552400  0.68385300  0.08639300  1
  C  37  1  0.89893300  0.67098400  0.10086600  1
  C  42  1  0.89847000  0.47311600  0.34128000  1
  C  43  1  0.87775500  0.47706200  0.34715900  1
  C  44  1  0.86436400  0.46434300  0.33772200  1
  C  45  1  0.87621700  0.45148500  0.32592200  1
  C  46  1  0.86565000  0.43674300  0.31558100  1
  C  47  1  0.84342200  0.43528400  0.31683700  1
  C  48  1  0.83192900  0.44890400  0.32834200  1
  C  49  1  0.84234400  0.46338700  0.33898400  1
  C  50  1  0.87272400  0.49164300  0.36118100  1
  C  51  1  0.88894600  0.50269800  0.36939600  1
  C  52  1  0.91001300  0.49958500  0.36362300  1
  C  53  1  0.91484100  0.48451500  0.34961700  1
  C  54  1  0.91445500  0.44538000  0.32839000  1
  C  55  1  0.92891600  0.43950700  0.31557800  1
  C  56  1  0.92422700  0.44573300  0.30564800  1
  C  57  1  0.90642300  0.45573100  0.31158400  1
  C  58  1  0.93485000  0.44293800  0.29157400  1
  C  59  1  0.92698200  0.45006400  0.28291900  1
  C  60  1  0.90844300  0.45963800  0.28794800  1
  C  61  1  0.89840800  0.46279200  0.30259900  1
  C  62  1  0.91705600  0.44080600  0.34035300  1
  C  63  1  0.93364700  0.43009900  0.33892400  1
  C  64  1  0.94789100  0.42459200  0.32575300  1
  C  65  1  0.94554800  0.42909200  0.31397600  1
  C  78  1  0.89891500  0.45639500  0.32683500  1
  C  83  1  0.89844800  0.89470600  0.52472800  1
  C  84  1  0.87770300  0.89649600  0.52072000  1
  C  85  1  0.86431800  0.89980700  0.53345400  1
  C  86  1  0.87619500  0.90097500  0.54635200  1
  C  87  1  0.86564400  0.90542000  0.56110600  1
  C  88  1  0.84340600  0.90808700  0.56255200  1
  C  89  1  0.83192200  0.90587200  0.54890600  1
  C  90  1  0.84229100  0.90197800  0.53440500  1
  C  91  1  0.87266800  0.89588200  0.50611300  1
  C  92  1  0.88890900  0.89311700  0.49509000  1
  C  93  1  0.91001100  0.89064800  0.49829700  1
  C  94  1  0.91484400  0.89173800  0.51337600  1
  C  95  1  0.91444400  0.90958900  0.55245700  1
  C  96  1  0.92892900  0.90265700  0.55832000  1
  C  97  1  0.92426200  0.88649900  0.55209700  1
  C  98  1  0.90643400  0.88243000  0.54212400  1
  C  99  1  0.93492800  0.87522200  0.55487200  1
  C  100  1  0.92706400  0.85944200  0.54776500  1
  C  101  1  0.90847600  0.85489600  0.53824100  1
  C  102  1  0.89842100  0.86638400  0.53508600  1
  C  103  1  0.91699700  0.92613600  0.55705700  1
  C  104  1  0.93358500  0.93542200  0.56776200  1
  C  105  1  0.94786600  0.92776200  0.57324600  1
  C  106  1  0.94556000  0.91147900  0.56873100  1
  C  119  1  0.89890100  0.89701000  0.54145800  1
  C  124  1  0.39847800  0.35968400  0.87624800  1
  C  125  1  0.37774500  0.36551500  0.87808500  1
  C  126  1  0.36435400  0.35609600  0.88139400  1
  C  127  1  0.37621400  0.34433400  0.88251600  1
  C  128  1  0.36565400  0.33402600  0.88696100  1
  C  129  1  0.34342700  0.33528500  0.88967400  1
  C  130  1  0.33192900  0.34674300  0.88749300  1
  C  131  1  0.34233200  0.35735100  0.88360100  1
  C  132  1  0.37272400  0.37953200  0.87751300  1
  C  133  1  0.38896800  0.38778500  0.87474700  1
  C  134  1  0.41005600  0.38207200  0.87221700  1
  C  135  1  0.41487500  0.36806100  0.87327200  1
  C  136  1  0.41444700  0.34680200  0.89110900  1
  C  137  1  0.42891100  0.33399300  0.88417100  1
  C  138  1  0.42422400  0.32405600  0.86801300  1
  C  139  1  0.40642600  0.32999100  0.86394500  1
  C  140  1  0.43484200  0.30997700  0.85674000  1
  C  141  1  0.42697300  0.30131300  0.84095900  1
  C  142  1  0.40843700  0.30633900  0.83640600  1
  C  143  1  0.39841900  0.32100300  0.84789300  1
  C  144  1  0.41703400  0.35876100  0.90764900  1
  C  145  1  0.43359600  0.35731700  0.91693900  1
  C  146  1  0.44785400  0.34415600  0.90927500  1
  C  147  1  0.44552900  0.33238700  0.89299200  1
  C  160  1  0.39891500  0.34524500  0.87853300  1
  C  165  1  0.39846200  0.54311700  0.63821600  1
  C  166  1  0.37772100  0.53912400  0.63240400  1
  C  167  1  0.36434000  0.55185900  0.64183000  1
  C  168  1  0.37621600  0.56474500  0.65357000  1
  C  169  1  0.36566800  0.57950200  0.66388000  1
  C  170  1  0.34343600  0.58095600  0.66264800  1
  C  171  1  0.33193900  0.56730800  0.65122600  1
  C  172  1  0.34231300  0.55281100  0.64060600  1
  C  173  1  0.37268600  0.52452700  0.61839900  1
  C  174  1  0.38892200  0.51349900  0.61014400  1
  C  175  1  0.41001600  0.51668700  0.61583800  1
  C  176  1  0.41485800  0.53176800  0.62982200  1
  C  177  1  0.41445300  0.57085900  0.65107400  1
  C  178  1  0.42893300  0.57672300  0.66387300  1
  C  179  1  0.42425600  0.57050300  0.67381100  1
  C  180  1  0.40645500  0.56050400  0.66788200  1
  C  181  1  0.43488800  0.57330200  0.68788400  1
  C  182  1  0.42702600  0.56618100  0.69654500  1
  C  183  1  0.40846500  0.55663100  0.69154000  1
  C  184  1  0.39843200  0.55346300  0.67688400  1
  C  185  1  0.41703100  0.57544000  0.63911500  1
  C  186  1  0.43359900  0.58616700  0.64055100  1
  C  187  1  0.44787100  0.59165600  0.65370200  1
  C  188  1  0.44555700  0.58714300  0.66547200  1
  C  201  1  0.39892000  0.55984700  0.65264100  1
  C  206  1  0.39846500  0.12166000  0.45482300  1
  C  207  1  0.37772300  0.11984000  0.45881400  1
  C  208  1  0.36434100  0.11653200  0.44607900  1
  C  209  1  0.37621600  0.11538800  0.43319400  1
  C  210  1  0.36566600  0.11095200  0.41844000  1
  C  211  1  0.34343300  0.10827300  0.41698800  1
  C  212  1  0.33193700  0.11048400  0.43063200  1
  C  213  1  0.34231300  0.11436300  0.44512800  1
  C  214  1  0.37268400  0.12044500  0.47341600  1
  C  215  1  0.38892200  0.12320600  0.48444000  1
  C  216  1  0.41001800  0.12570900  0.48125300  1
  C  217  1  0.41485900  0.12461200  0.46617200  1
  C  218  1  0.41444900  0.10677700  0.42707600  1
  C  219  1  0.42892500  0.11370900  0.42120500  1
  C  220  1  0.42425100  0.12986700  0.42742900  1
  C  221  1  0.40645600  0.13393900  0.43743300  1
  C  222  1  0.43488100  0.14114100  0.42462800  1
  C  223  1  0.42701200  0.15692000  0.43173900  1
  C  224  1  0.40846100  0.16146700  0.44130000  1
  C  225  1  0.39842900  0.14998100  0.44447100  1
  C  226  1  0.41702200  0.09023400  0.42248900  1
  C  227  1  0.43357800  0.08094000  0.41175200  1
  C  228  1  0.44784900  0.08860000  0.40625900  1
  C  229  1  0.44554000  0.10488500  0.41077900  1
  C  242  1  0.39892000  0.11935600  0.43809200  1
  C  247  1  0.08070400  0.54371300  0.87692200  1
  C  248  1  0.10152400  0.53949600  0.87828800  1
  C  249  1  0.11503600  0.55211600  0.88141200  1
  C  250  1  0.10315800  0.56509700  0.88281400  1
  C  251  1  0.11365600  0.57986100  0.88728600  1
  C  252  1  0.13589200  0.58126300  0.88979400  1
  C  253  1  0.14744700  0.56754300  0.88729600  1
  C  254  1  0.13710900  0.55301000  0.88334500  1
  C  255  1  0.10655100  0.52481000  0.87750000  1
  C  256  1  0.09023900  0.51390900  0.87496600  1
  C  257  1  0.06906300  0.51731200  0.87289000  1
  C  258  1  0.06423400  0.53247900  0.87417000  1
  C  259  1  0.06566800  0.57195200  0.89228900  1
  C  260  1  0.05213300  0.57908700  0.88602100  1
  C  261  1  0.05592700  0.57259100  0.86968700  1
  C  262  1  0.07256000  0.56146200  0.86495200  1
  C  263  1  0.04538200  0.57595500  0.85876600  1
  C  264  1  0.05225300  0.56831000  0.84268800  1
  C  265  1  0.06980700  0.55769400  0.83749900  1
  C  266  1  0.07970200  0.55398200  0.84865000  1
  C  267  1  0.06341700  0.57626400  0.90877800  1
  C  268  1  0.04791600  0.58784000  0.91857400  1
  C  269  1  0.03552800  0.59545200  0.91195900  1
  C  270  1  0.03738000  0.59103800  0.89565900  1
  C  283  1  0.08035900  0.56046100  0.87927800  1
  C  288  1  0.08088500  0.12111500  0.63819300  1
  C  289  1  0.10169400  0.11973700  0.63258800  1
  C  290  1  0.11523200  0.11662900  0.64208200  1
  C  291  1  0.10337900  0.11523800  0.65367700  1
  C  292  1  0.11389100  0.11074400  0.66394900  1
  C  293  1  0.13612100  0.10820200  0.66280600  1
  C  294  1  0.14765500  0.11069200  0.65157000  1
  C  295  1  0.13730100  0.11466700  0.64101200  1
  C  296  1  0.10669600  0.12052500  0.61868500  1
  C  297  1  0.09036100  0.12303500  0.61031700  1
  C  298  1  0.06919100  0.12509900  0.61580700  1
  C  299  1  0.06439400  0.12384100  0.62971000  1
  C  300  1  0.06594500  0.10571700  0.65105200  1
  C  301  1  0.05247000  0.11192100  0.66448300  1
  C  302  1  0.05619100  0.12826200  0.67432900  1
  C  303  1  0.07274500  0.13305500  0.66792100  1
  C  304  1  0.04561300  0.13914900  0.68861100  1
  C  305  1  0.05239900  0.15524800  0.69704400  1
  C  306  1  0.06988200  0.16049300  0.69160500  1
  C  307  1  0.07980000  0.14937800  0.67674100  1
  C  308  1  0.06368300  0.08925400  0.63881700  1
  C  309  1  0.04823200  0.07941200  0.64056600  1
  C  310  1  0.03601600  0.08593200  0.65488600  1
  C  311  1  0.03783400  0.10222000  0.66680700  1
  C  324  1  0.08057300  0.11875800  0.65258400  1
  C  329  1  0.08084600  0.35975400  0.45431100  1
  C  330  1  0.10163700  0.36541200  0.45852500  1
  C  331  1  0.11519300  0.35591700  0.44593700  1
  C  332  1  0.10336400  0.34428400  0.43296200  1
  C  333  1  0.11389000  0.33400300  0.41820900  1
  C  334  1  0.13611400  0.33517300  0.41680600  1
  C  335  1  0.14761700  0.34648300  0.43050900  1
  C  336  1  0.13725100  0.35704300  0.44503700  1
  C  337  1  0.10661300  0.37933100  0.47320800  1
  C  338  1  0.09026600  0.38767200  0.48408500  1
  C  339  1  0.06911500  0.38213200  0.48067000  1
  C  340  1  0.06434300  0.36821000  0.46551900  1
  C  341  1  0.06593200  0.34687400  0.42605200  1
  C  342  1  0.05247300  0.33343300  0.41881800  1
  C  343  1  0.05620400  0.32359000  0.42531400  1
  C  344  1  0.07274800  0.33000900  0.43652300  1
  C  345  1  0.04564600  0.30929800  0.42190900  1
  C  346  1  0.05243700  0.30086900  0.42957800  1
  C  347  1  0.06991100  0.30632000  0.44027200  1
  C  348  1  0.07981600  0.32118900  0.44402400  1
  C  349  1  0.06367600  0.35910100  0.42181200  1
  C  350  1  0.04821100  0.35735300  0.41023100  1
  C  351  1  0.03599800  0.34303200  0.40243600  1
  C  352  1  0.03784600  0.33110000  0.40678600  1
  C  365  1  0.08055800  0.34535200  0.43756800  1
  C  370  1  0.58086000  0.47262500  0.10270800  1
  C  371  1  0.60165300  0.47679900  0.10121300  1
  C  372  1  0.61518400  0.46419500  0.09811100  1
  C  373  1  0.60333200  0.45123900  0.09679000  1
  C  374  1  0.61382900  0.43647400  0.09231600  1
  C  375  1  0.63605000  0.43504500  0.08972000  1
  C  376  1  0.64758000  0.44873600  0.09210900  1
  C  377  1  0.63723900  0.46327000  0.09606800  1
  C  378  1  0.60665200  0.49145700  0.10193300  1
  C  379  1  0.59033400  0.50236700  0.10451500  1
  C  380  1  0.56918700  0.49902800  0.10675200  1
  C  381  1  0.56439000  0.48387300  0.10551100  1
  C  382  1  0.56588100  0.44438600  0.08733000  1
  C  383  1  0.55241100  0.43716600  0.09354500  1
  C  384  1  0.55616800  0.44364700  0.10987800  1
  C  385  1  0.57275000  0.45482400  0.11465400  1
  C  386  1  0.54560500  0.44025700  0.12077400  1
  C  387  1  0.55240800  0.44792800  0.13687000  1
  C  388  1  0.56989100  0.45861200  0.14210400  1
  C  389  1  0.57980800  0.46234500  0.13097700  1
  C  390  1  0.56361300  0.44015500  0.07086600  1
  C  391  1  0.54809600  0.42861500  0.06105300  1
  C  392  1  0.53588400  0.42081800  0.06757700  1
  C  393  1  0.53774600  0.42516100  0.08385600  1
  C  406  1  0.58053900  0.45587800  0.10035600  1
  C  411  1  0.58087100  0.89519800  0.34136200  1
  C  412  1  0.60168600  0.89655700  0.34695300  1
  C  413  1  0.61521300  0.89969000  0.33746700  1
  C  414  1  0.60334400  0.90110600  0.32589500  1
  C  415  1  0.61383100  0.90561800  0.31563100  1
  C  416  1  0.63605900  0.90816500  0.31676200  1
  C  417  1  0.64760600  0.90570100  0.32801000  1
  C  418  1  0.63727600  0.90168800  0.33855100  1
  C  419  1  0.60668700  0.89579100  0.36086600  1
  C  420  1  0.59035300  0.89327900  0.36923500  1
  C  421  1  0.56918200  0.89121800  0.36374900  1
  C  422  1  0.56438000  0.89248300  0.34985100  1
  C  423  1  0.56590200  0.91061500  0.32853300  1
  C  424  1  0.55241700  0.90441300  0.31510800  1
  C  425  1  0.55614500  0.88807600  0.30525200  1
  C  426  1  0.57273500  0.88328700  0.31163200  1
  C  427  1  0.54554500  0.87718900  0.29098200  1
  C  428  1  0.55233300  0.86109200  0.28254400  1
  C  429  1  0.56985000  0.85584700  0.28795400  1
  C  430  1  0.57978100  0.86696200  0.30281300  1
  C  431  1  0.56365900  0.92708100  0.34076600  1
  C  432  1  0.54816700  0.93691100  0.33904000  1
  C  433  1  0.53594300  0.93039600  0.32472600  1
  C  434  1  0.53777000  0.91411200  0.31279300  1
  C  447  1  0.58054500  0.89757400  0.32698400  1
  C  452  1  0.58083900  0.65662900  0.52520700  1
  C  453  1  0.60164200  0.65100300  0.52098800  1
  C  454  1  0.61517600  0.66048000  0.53360100  1
  C  455  1  0.60332700  0.67208900  0.54657600  1
  C  456  1  0.61382100  0.68234100  0.56135400  1
  C  457  1  0.63603700  0.68116300  0.56277700  1
  C  458  1  0.64757300  0.66989600  0.54907000  1
  C  459  1  0.63723300  0.65936000  0.53452100  1
  C  460  1  0.60662600  0.63706400  0.50632400  1
  C  461  1  0.59028800  0.62870300  0.49544700  1
  C  462  1  0.56913000  0.63422800  0.49885200  1
  C  463  1  0.56434400  0.64814900  0.51400100  1
  C  464  1  0.56588900  0.66948500  0.55345700  1
  C  465  1  0.55243600  0.68293000  0.56069800  1
  C  466  1  0.55618300  0.69278600  0.55421800  1
  C  467  1  0.57274100  0.68637700  0.54302100  1
  C  468  1  0.54563100  0.70708300  0.55763000  1
  C  469  1  0.55242700  0.71551500  0.54996500  1
  C  470  1  0.56989000  0.71006100  0.53926200  1
  C  471  1  0.57977900  0.69518200  0.53549700  1
  C  472  1  0.56361300  0.65724300  0.55767600  1
  C  473  1  0.54815200  0.65899100  0.56926000  1
  C  474  1  0.53594900  0.67331600  0.57706400  1
  C  475  1  0.53779500  0.68525200  0.57271900  1
  C  488  1  0.58053000  0.67101900  0.54195600  1
  C  493  1  0.07558000  0.36011800  0.87665500  1
  C  494  1  0.09208000  0.37133700  0.88311100  1
  C  495  1  0.10845800  0.36456200  0.88736600  1
  C  496  1  0.10269400  0.34900000  0.88403600  1
  C  497  1  0.11828100  0.33900700  0.88538000  1
  C  498  1  0.13920300  0.34495700  0.89025000  1
  C  499  1  0.14394800  0.36102600  0.89433900  1
  C  500  1  0.12875100  0.37086700  0.89282800  1
  C  501  1  0.09090600  0.38653800  0.88412400  1
  C  502  1  0.07284600  0.39042400  0.87818800  1
  C  503  1  0.05638700  0.37905500  0.87078100  1
  C  504  1  0.05759400  0.36402900  0.87047600  1
  C  505  1  0.06581800  0.34615000  0.89146300  1
  C  506  1  0.05459600  0.33162700  0.88514000  1
  C  507  1  0.06033600  0.32167000  0.86920200  1
  C  508  1  0.07518600  0.32948300  0.86454900  1
  C  509  1  0.05274600  0.30607300  0.85856200  1
  C  510  1  0.06016500  0.29806600  0.84264900  1
  C  511  1  0.07464000  0.30554500  0.83710300  1
  C  512  1  0.08259300  0.32121000  0.84829500  1
  C  513  1  0.06122200  0.35864100  0.90749600  1
  C  514  1  0.04582500  0.35618600  0.91690700  1
  C  515  1  0.03469800  0.34131500  0.90983100  1
  C  516  1  0.03910800  0.32894900  0.89407400  1
  C  529  1  0.08005900  0.34588300  0.87874900  1
  C  534  1  0.07558100  0.54308100  0.63781800  1
  C  535  1  0.09208100  0.53831500  0.62659600  1
  C  536  1  0.10846700  0.54933700  0.63337700  1
  C  537  1  0.10271400  0.56155700  0.64894900  1
  C  538  1  0.11829200  0.57291600  0.65892600  1
  C  539  1  0.13921100  0.57183600  0.65297000  1
  C  540  1  0.14395800  0.55983900  0.63691100  1
  C  541  1  0.12875800  0.54849300  0.62706800  1
  C  542  1  0.09089800  0.52413300  0.61139100  1
  C  543  1  0.07282800  0.51431900  0.60750300  1
  C  544  1  0.05637300  0.51828300  0.61887400  1
  C  545  1  0.05758700  0.53299700  0.63390300  1
  C  546  1  0.06584400  0.57186000  0.65178900  1
  C  547  1  0.05461300  0.58005900  0.66631000  1
  C  548  1  0.06033700  0.57407100  0.67626500  1
  C  549  1  0.07518500  0.56160300  0.66845500  1
  C  550  1  0.05273800  0.57902800  0.69185900  1
  C  551  1  0.06015300  0.57112400  0.69986900  1
  C  552  1  0.07462700  0.55809900  0.69239800  1
  C  553  1  0.08258200  0.55362200  0.67673100  1
  C  554  1  0.06126100  0.57540700  0.63929900  1
  C  555  1  0.04585500  0.58726500  0.64174600  1
  C  556  1  0.03472200  0.59505900  0.65661400  1
  C  557  1  0.03912600  0.59167000  0.66898200  1
  C  570  1  0.08007000  0.55940500  0.65205700  1
  C  575  1  0.07555500  0.12123300  0.45481800  1
  C  576  1  0.09207600  0.11481600  0.45960500  1
  C  577  1  0.10846600  0.11058000  0.44858700  1
  C  578  1  0.10270700  0.11391400  0.43635700  1
  C  579  1  0.11828200  0.11253600  0.42499900  1
  C  580  1  0.13920500  0.10767100  0.42608300  1
  C  581  1  0.14395600  0.10360700  0.43808000  1
  C  582  1  0.12876100  0.10512400  0.44943400  1
  C  583  1  0.09090800  0.11381900  0.47380300  1
  C  584  1  0.07284100  0.11975200  0.48361900  1
  C  585  1  0.05638100  0.12715000  0.47964800  1
  C  586  1  0.05758400  0.12744200  0.46492000  1
  C  587  1  0.06584500  0.10644200  0.42603800  1
  C  588  1  0.05461600  0.11276400  0.41783900  1
  C  589  1  0.06033700  0.12870700  0.42383100  1
  C  590  1  0.07517400  0.13336700  0.43630700  1
  C  591  1  0.05274800  0.13934200  0.41886800  1
  C  592  1  0.06016700  0.15525500  0.42677000  1
  C  593  1  0.07465400  0.16080200  0.43978500  1
  C  594  1  0.08257100  0.14962500  0.44429100  1
  C  595  1  0.06125700  0.09040700  0.42249300  1
  C  596  1  0.04584700  0.08099900  0.41063700  1
  C  597  1  0.03471700  0.08807400  0.40284200  1
  C  598  1  0.03914800  0.10382100  0.40621200  1
  C  611  1  0.08005800  0.11916700  0.43850400  1
  C  616  1  0.57566600  0.65623100  0.10287000  1
  C  617  1  0.59226100  0.64508400  0.09657600  1
  C  618  1  0.60862600  0.65185400  0.09230500  1
  C  619  1  0.60279900  0.66736700  0.09552000  1
  C  620  1  0.61829300  0.67729300  0.09396700  1
  C  621  1  0.63920000  0.67133600  0.08902600  1
  C  622  1  0.64401600  0.65532400  0.08509900  1
  C  623  1  0.62890700  0.64554500  0.08680200  1
  C  624  1  0.59111600  0.62990400  0.09561300  1
  C  625  1  0.57300600  0.62598800  0.10147600  1
  C  626  1  0.55646700  0.63730700  0.10875900  1
  C  627  1  0.55765200  0.65230800  0.10901400  1
  C  628  1  0.56592700  0.67019000  0.08804100  1
  C  629  1  0.55469600  0.68471100  0.09436400  1
  C  630  1  0.56041700  0.69466400  0.11030700  1
  C  631  1  0.57526300  0.68685100  0.11496400  1
  C  632  1  0.55279100  0.71024700  0.12095800  1
  C  633  1  0.56019800  0.71824800  0.13687500  1
  C  634  1  0.57471100  0.71078300  0.14240900  1
  C  635  1  0.58265200  0.69511400  0.13122200  1
  C  636  1  0.56133000  0.65769800  0.07200800  1
  C  637  1  0.54594300  0.66014900  0.06258700  1
  C  638  1  0.53480700  0.67501800  0.06967100  1
  C  639  1  0.53922200  0.68739100  0.08542300  1
  C  652  1  0.58014700  0.67045700  0.10076300  1
  C  657  1  0.57557100  0.47320800  0.34173800  1
  C  658  1  0.59209300  0.47799400  0.35294100  1
  C  659  1  0.60845100  0.46693900  0.34618600  1
  C  660  1  0.60270500  0.45473400  0.33060700  1
  C  661  1  0.61827700  0.44337300  0.32062500  1
  C  662  1  0.63919600  0.44444000  0.32657500  1
  C  663  1  0.64395500  0.45645500  0.34262600  1
  C  664  1  0.62875600  0.46779600  0.35247800  1
  C  665  1  0.59092000  0.49218400  0.36814100  1
  C  666  1  0.57286100  0.50200900  0.37201900  1
  C  667  1  0.55640500  0.49804400  0.36064900  1
  C  668  1  0.55760700  0.48331800  0.34562800  1
  C  669  1  0.56584300  0.44442900  0.32775700  1
  C  670  1  0.55465100  0.43620100  0.31322300  1
  C  671  1  0.56034600  0.44220900  0.30328000  1
  C  672  1  0.57517800  0.45468900  0.31109600  1
  C  673  1  0.55275000  0.43724800  0.28768500  1
  C  674  1  0.56015500  0.44515800  0.27967800  1
  C  675  1  0.57464300  0.45817400  0.28714500  1
  C  676  1  0.58256400  0.46267800  0.30282600  1
  C  677  1  0.56124200  0.44089900  0.34025600  1
  C  678  1  0.54585100  0.42903200  0.33780700  1
  C  679  1  0.53470400  0.42124900  0.32294400  1
  C  680  1  0.53913500  0.42461100  0.31056200  1
  C  693  1  0.58006400  0.45688900  0.32749400  1
  C  698  1  0.57548300  0.89520100  0.52479400  1
  C  699  1  0.59202400  0.90158700  0.51999100  1
  C  700  1  0.60839100  0.90586700  0.53103400  1
  C  701  1  0.60263300  0.90251500  0.54325300  1
  C  702  1  0.61821700  0.90386500  0.55459600  1
  C  703  1  0.63918100  0.90861900  0.55344400  1
  C  704  1  0.64394400  0.91267100  0.54144100  1
  C  705  1  0.62872900  0.91122100  0.53012700  1
  C  706  1  0.59087400  0.90255700  0.50577700  1
  C  707  1  0.57282500  0.89660000  0.49594600  1
  C  708  1  0.55635300  0.88921800  0.49992500  1
  C  709  1  0.55753200  0.88896300  0.51467300  1
  C  710  1  0.56575100  0.91002400  0.55358100  1
  C  711  1  0.55452400  0.90369600  0.56177600  1
  C  712  1  0.56021800  0.88773700  0.55576300  1
  C  713  1  0.57507900  0.88307900  0.54330200  1
  C  714  1  0.55260000  0.87708700  0.56069900  1
  C  715  1  0.56001500  0.86116900  0.55279400  1
  C  716  1  0.57454900  0.85563200  0.53981000  1
  C  717  1  0.58248000  0.86682000  0.53532100  1
  C  718  1  0.56115500  0.92607000  0.55714000  1
  C  719  1  0.54572800  0.93548600  0.56898800  1
  C  720  1  0.53459200  0.92838300  0.57675400  1
  C  721  1  0.53899900  0.91262200  0.57335700  1
  C  734  1  0.57997200  0.89728800  0.54111900  1
  C  739  1  0.90310600  0.47281000  0.10223400  1
  C  740  1  0.88643100  0.47796000  0.09627600  1
  C  741  1  0.86975800  0.46721900  0.09233600  1
  C  742  1  0.87546800  0.45486000  0.09548200  1
  C  743  1  0.85989900  0.44351200  0.09409100  1
  C  744  1  0.83888800  0.44487200  0.08960700  1
  C  745  1  0.83403300  0.45710800  0.08590400  1
  C  746  1  0.84931200  0.46837000  0.08730500  1
  C  747  1  0.88779000  0.49215200  0.09528700  1
  C  748  1  0.90614400  0.50166900  0.10090000  1
  C  749  1  0.92270900  0.49741600  0.10798200  1
  C  750  1  0.92135700  0.48263300  0.10815700  1
  C  751  1  0.91149900  0.44368100  0.08704100  1
  C  752  1  0.92193500  0.43459100  0.09272900  1
  C  753  1  0.91723600  0.44086600  0.10891900  1
  C  754  1  0.90346300  0.45407300  0.11415800  1
  C  755  1  0.92491300  0.43564600  0.11933100  1
  C  756  1  0.91855600  0.44393700  0.13553100  1
  C  757  1  0.90496900  0.45753200  0.14155200  1
  C  758  1  0.89700100  0.46235000  0.13063600  1
  C  759  1  0.91545600  0.44022500  0.07096600  1
  C  760  1  0.92982700  0.42774900  0.06101000  1
  C  761  1  0.93933000  0.41838100  0.06700800  1
  C  762  1  0.93560200  0.42179700  0.08288100  1
  C  775  1  0.89826200  0.45655900  0.10020200  1
  C  780  1  0.90308700  0.89567000  0.34193400  1
  C  781  1  0.88642500  0.90165200  0.35305200  1
  C  782  1  0.86975100  0.90558800  0.34624900  1
  C  783  1  0.87545700  0.90243600  0.33074200  1
  C  784  1  0.85989000  0.90383100  0.32078800  1
  C  785  1  0.83889600  0.90836400  0.32664900  1
  C  786  1  0.83403700  0.91205900  0.34258600  1
  C  787  1  0.84931200  0.91063800  0.35243900  1
  C  788  1  0.88777800  0.90263600  0.36823000  1
  C  789  1  0.90612800  0.89701900  0.37213500  1
  C  790  1  0.92268900  0.88992900  0.36079800  1
  C  791  1  0.92133500  0.88974500  0.34583600  1
  C  792  1  0.91147500  0.91086300  0.32799400  1
  C  793  1  0.92194700  0.90516400  0.31322800  1
  C  794  1  0.91722300  0.88898000  0.30330500  1
  C  795  1  0.90344200  0.88374200  0.31126900  1
  C  796  1  0.92489900  0.87856800  0.28767100  1
  C  797  1  0.91853400  0.86237100  0.27975800  1
  C  798  1  0.90494200  0.85634700  0.28732800  1
  C  799  1  0.89696900  0.86726500  0.30306000  1
  C  800  1  0.91546100  0.92692900  0.34062100  1
  C  801  1  0.92981000  0.93689300  0.33809400  1
  C  802  1  0.93930900  0.93089500  0.32272800  1
  C  803  1  0.93559000  0.91501700  0.31027300  1
  C  816  1  0.89824600  0.89769900  0.32771200  1
  C  821  1  0.90311900  0.65599200  0.52513500  1
  C  822  1  0.88646800  0.64486300  0.51998100  1
  C  823  1  0.86976600  0.65166900  0.53069300  1
  C  824  1  0.87547200  0.66716000  0.54307900  1
  C  825  1  0.85988900  0.67710900  0.55441700  1
  C  826  1  0.83889800  0.67123700  0.55307200  1
  C  827  1  0.83406100  0.65529300  0.54083800  1
  C  828  1  0.84934300  0.64545500  0.52955900  1
  C  829  1  0.88784600  0.62969000  0.50578200  1
  C  830  1  0.90621800  0.62579500  0.49628300  1
  C  831  1  0.92277900  0.63713800  0.50056100  1
  C  832  1  0.92140400  0.65208900  0.51534800  1
  C  833  1  0.91148700  0.66992600  0.55427800  1
  C  834  1  0.92195400  0.68469500  0.56334200  1
  C  835  1  0.91722800  0.69461200  0.55707300  1
  C  836  1  0.90344900  0.68663900  0.54387200  1
  C  837  1  0.92490200  0.71024400  0.56228200  1
  C  838  1  0.91853900  0.71814100  0.55398200  1
  C  839  1  0.90495800  0.71055400  0.54038400  1
  C  840  1  0.89696800  0.69483300  0.53559300  1
  C  841  1  0.91547800  0.65730300  0.55772200  1
  C  842  1  0.92982500  0.65983900  0.57021800  1
  C  843  1  0.93932500  0.67520700  0.57958000  1
  C  844  1  0.93560100  0.68765700  0.57615000  1
  C  857  1  0.89826200  0.67019800  0.54139100  1
  C  862  1  0.40308500  0.54349900  0.87728000  1
  C  863  1  0.38642900  0.53836300  0.88326700  1
  C  864  1  0.36973000  0.54907400  0.88715600  1
  C  865  1  0.37544000  0.56144500  0.88403000  1
  C  866  1  0.35986600  0.57279100  0.88542600  1
  C  867  1  0.33887000  0.57145400  0.88995400  1
  C  868  1  0.33402400  0.55921200  0.89365200  1
  C  869  1  0.34930400  0.54794300  0.89223100  1
  C  870  1  0.38779400  0.52417700  0.88426500  1
  C  871  1  0.40615600  0.51466700  0.87866600  1
  C  872  1  0.42271900  0.51891900  0.87158100  1
  C  873  1  0.42135900  0.53369600  0.87139600  1
  C  874  1  0.41146000  0.57264100  0.89248400  1
  C  875  1  0.42194000  0.58170200  0.88678300  1
  C  876  1  0.41722800  0.57543500  0.87059500  1
  C  877  1  0.40344700  0.56223300  0.86535900  1
  C  878  1  0.42491400  0.58065000  0.86018100  1
  C  879  1  0.41855700  0.57235800  0.84398200  1
  C  880  1  0.40497600  0.55875800  0.83795900  1
  C  881  1  0.39697900  0.55395900  0.84888200  1
  C  882  1  0.41542500  0.57609100  0.90855700  1
  C  883  1  0.42979800  0.58856800  0.91851200  1
  C  884  1  0.43930900  0.59793200  0.91251200  1
  C  885  1  0.43558700  0.59450700  0.89663300  1
  C  898  1  0.39823900  0.55975300  0.87931800  1
  C  903  1  0.40370100  0.12022200  0.63752100  1
  C  904  1  0.38703400  0.11421100  0.62640700  1
  C  905  1  0.37037700  0.11028500  0.63322600  1
  C  906  1  0.37611000  0.11341000  0.64871900  1
  C  907  1  0.36045400  0.11217000  0.65872200  1
  C  908  1  0.33941600  0.10773900  0.65289800  1
  C  909  1  0.33459200  0.10398700  0.63694000  1
  C  910  1  0.34991100  0.10530600  0.62705800  1
  C  911  1  0.38827300  0.11334800  0.61127800  1
  C  912  1  0.40652100  0.11909700  0.60740600  1
  C  913  1  0.42307900  0.12621500  0.61874000  1
  C  914  1  0.42183600  0.12629500  0.63365800  1
  C  915  1  0.41235200  0.10520800  0.65167100  1
  C  916  1  0.42239000  0.11109100  0.66662800  1
  C  917  1  0.41744000  0.12725000  0.67640300  1
  C  918  1  0.40382000  0.13232800  0.66821400  1
  C  919  1  0.42486400  0.13777800  0.69208700  1
  C  920  1  0.41838600  0.15393700  0.69984200  1
  C  921  1  0.40492900  0.15982700  0.69207600  1
  C  922  1  0.39721600  0.14878500  0.67628200  1
  C  923  1  0.41700300  0.08918400  0.63916000  1
  C  924  1  0.43120600  0.07938000  0.64211000  1
  C  925  1  0.44007800  0.08557300  0.65767800  1
  C  926  1  0.43594300  0.10144900  0.66994400  1
  C  939  1  0.39890400  0.11822200  0.65177100  1
  C  944  1  0.40294200  0.36029600  0.45444000  1
  C  945  1  0.38620000  0.37134800  0.45962800  1
  C  946  1  0.36954900  0.36453300  0.44887200  1
  C  947  1  0.37534300  0.34908600  0.43644500  1
  C  948  1  0.35987400  0.33919200  0.42495300  1
  C  949  1  0.33891200  0.34507900  0.42616200  1
  C  950  1  0.33399500  0.36097900  0.43845900  1
  C  951  1  0.34915200  0.37075300  0.44990500  1
  C  952  1  0.38751300  0.38652000  0.47383200  1
  C  953  1  0.40589900  0.39047600  0.48332200  1
  C  954  1  0.42254000  0.37919600  0.47903100  1
  C  955  1  0.42122300  0.36424600  0.46423900  1
  C  956  1  0.41136200  0.34640300  0.42530100  1
  C  957  1  0.42184100  0.33164300  0.41621400  1
  C  958  1  0.41713800  0.32170200  0.42245800  1
  C  959  1  0.40336500  0.32965100  0.43566700  1
  C  960  1  0.42487000  0.30608400  0.41724400  1
  C  961  1  0.41853500  0.29816000  0.42552500  1
  C  962  1  0.40492100  0.30570600  0.43910500  1
  C  963  1  0.39692200  0.32143400  0.44393300  1
  C  964  1  0.41534100  0.35905100  0.42189200  1
  C  965  1  0.42968900  0.35655100  0.40940900  1
  C  966  1  0.43916200  0.34117700  0.39999800  1
  C  967  1  0.43545300  0.32870300  0.40339500  1
  C  980  1  0.39813800  0.34609300  0.43816900  1
  C  985  1  0.89351300  0.74604300  0.17933000  1
  C  986  1  0.89635500  0.76227800  0.18304700  1
  C  987  1  0.89885500  0.77527900  0.19907400  1
  C  988  1  0.89798400  0.77202400  0.21209700  1
  C  989  1  0.89488600  0.75587700  0.20852400  1
  C  990  1  0.89285900  0.74309100  0.19243100  1
  C  993  1  0.90104400  0.78448600  0.22854200  1
  C  994  1  0.88415200  0.79526200  0.23659400  1
  C  995  1  0.88712800  0.80940400  0.25165200  1
  C  996  1  0.90708700  0.81324000  0.25933000  1
  C  997  1  0.92367400  0.80196000  0.25150800  1
  C  998  1  0.92124200  0.78782300  0.23614900  1
  C  1003  1  0.90310600  0.79158300  0.20110800  1
  C  1004  1  0.93971700  0.77700100  0.22784000  1
  C  1013  1  0.91194900  0.82857600  0.27243300  1
  C  1014  1  0.89368900  0.73385000  0.16306100  1
  C  1017  1  0.89344300  0.45983700  0.25182800  1
  C  1018  1  0.89631600  0.44731700  0.23559800  1
  C  1019  1  0.89884100  0.45034300  0.22259900  1
  C  1020  1  0.89796800  0.46662100  0.22585500  1
  C  1021  1  0.89484200  0.47919500  0.24199600  1
  C  1022  1  0.89278700  0.47589000  0.25478100  1
  C  1025  1  0.90104100  0.47060700  0.21339800  1
  C  1026  1  0.88415300  0.46789000  0.20262100  1
  C  1027  1  0.88713800  0.46881300  0.18848600  1
  C  1028  1  0.90710200  0.47265300  0.18465600  1
  C  1029  1  0.92368600  0.47610300  0.19593600  1
  C  1030  1  0.92124500  0.47487500  0.21006800  1
  C  1035  1  0.90311400  0.43607600  0.20630000  1
  C  1036  1  0.93971200  0.47738300  0.22089500  1
  C  1045  1  0.91197000  0.47042300  0.16932300  1
  C  1046  1  0.89359000  0.45576600  0.26402200  1
  C  1049  1  0.89360000  0.81853700  0.53813300  1
  C  1050  1  0.89635400  0.81478800  0.55063700  1
  C  1051  1  0.89879000  0.79875000  0.54758900  1
  C  1052  1  0.89793500  0.78574900  0.53130000  1
  C  1053  1  0.89490200  0.78935000  0.51874000  1
  C  1054  1  0.89294500  0.80545400  0.52207200  1
  C  1057  1  0.90100100  0.76929700  0.52728900  1
  C  1058  1  0.88410300  0.76122300  0.52997500  1
  C  1059  1  0.88708800  0.74616200  0.52904700  1
  C  1060  1  0.90706000  0.73850600  0.52523100  1
  C  1061  1  0.92365300  0.74634700  0.52180500  1
  C  1062  1  0.92121300  0.76171000  0.52304000  1
  C  1067  1  0.90299100  0.79668400  0.56184600  1
  C  1068  1  0.93969000  0.77004200  0.52056200  1
  C  1077  1  0.91192300  0.72539800  0.52745400  1
  C  1078  1  0.89397600  0.83480400  0.54220900  1
  C  1081  1  0.39346600  0.27019300  0.80007900  1
  C  1082  1  0.39635200  0.25396700  0.79637900  1
  C  1083  1  0.39884300  0.24095300  0.78035400  1
  C  1084  1  0.39792300  0.24418400  0.76731600  1
  C  1085  1  0.39479800  0.26032500  0.77087700  1
  C  1086  1  0.39277400  0.27312200  0.78696400  1
  C  1089  1  0.40097000  0.23170900  0.75086800  1
  C  1090  1  0.38408500  0.22091600  0.74282800  1
  C  1091  1  0.38705200  0.20678100  0.72776000  1
  C  1092  1  0.40698800  0.20296500  0.72004800  1
  C  1093  1  0.42356900  0.21425600  0.72786600  1
  C  1094  1  0.42115200  0.22838400  0.74323800  1
  C  1099  1  0.40312800  0.22466300  0.77834000  1
  C  1100  1  0.43962800  0.23920900  0.75153700  1
  C  1109  1  0.41187700  0.18762000  0.70696200  1
  C  1110  1  0.39360000  0.28240600  0.81634800  1
  C  1113  1  0.39346000  0.55647700  0.72768600  1
  C  1114  1  0.39632200  0.56899800  0.74391500  1
  C  1115  1  0.39883200  0.56597500  0.75691700  1
  C  1116  1  0.39795500  0.54969800  0.75366500  1
  C  1117  1  0.39483600  0.53712300  0.73752300  1
  C  1118  1  0.39279500  0.54042700  0.72473700  1
  C  1121  1  0.40102700  0.54571400  0.76612400  1
  C  1122  1  0.38413900  0.54843000  0.77689900  1
  C  1123  1  0.38712400  0.54750300  0.79103300  1
  C  1124  1  0.40708600  0.54365800  0.79485900  1
  C  1125  1  0.42367100  0.54021000  0.78358000  1
  C  1126  1  0.42123100  0.54144200  0.76944900  1
  C  1131  1  0.40310000  0.58024500  0.77321800  1
  C  1132  1  0.43969700  0.53893600  0.75862400  1
  C  1141  1  0.41195300  0.54587500  0.81018700  1
  C  1142  1  0.39363500  0.56054500  0.71548800  1
  C  1145  1  0.39344400  0.19776200  0.44145900  1
  C  1146  1  0.39631400  0.20146900  0.42893700  1
  C  1147  1  0.39883500  0.21749200  0.43195900  1
  C  1148  1  0.39795800  0.23051600  0.44823700  1
  C  1149  1  0.39483100  0.22695300  0.46081300  1
  C  1150  1  0.39278100  0.21086400  0.45751000  1
  C  1153  1  0.40103000  0.24695900  0.45222000  1
  C  1154  1  0.38413900  0.25501400  0.44950100  1
  C  1155  1  0.38712300  0.27006800  0.45041400  1
  C  1156  1  0.40708900  0.27773400  0.45424300  1
  C  1157  1  0.42367600  0.26991100  0.45769800  1
  C  1158  1  0.42123400  0.25455500  0.45648100  1
  C  1163  1  0.40310600  0.21952200  0.41769000  1
  C  1164  1  0.43970200  0.24623900  0.45899300  1
  C  1173  1  0.41195900  0.29081900  0.45199000  1
  C  1174  1  0.39360800  0.18150000  0.43739400  1
  C  1177  1  0.08469500  0.55658800  0.80068800  1
  C  1178  1  0.08203100  0.56905500  0.79688100  1
  C  1179  1  0.07981800  0.56594900  0.78080700  1
  C  1180  1  0.08078300  0.54964200  0.76784900  1
  C  1181  1  0.08360400  0.53711800  0.77153200  1
  C  1182  1  0.08536000  0.54050300  0.78766500  1
  C  1185  1  0.07809400  0.54556600  0.75134600  1
  C  1186  1  0.09523700  0.54816100  0.74339900  1
  C  1187  1  0.09268900  0.54692700  0.72816200  1
  C  1188  1  0.07293200  0.54286200  0.72019000  1
  C  1189  1  0.05606800  0.53962700  0.72797100  1
  C  1190  1  0.05805600  0.54118700  0.74350000  1
  C  1195  1  0.07581800  0.58017000  0.77864500  1
  C  1196  1  0.03929800  0.53887800  0.75170500  1
  C  1205  1  0.06846200  0.54458100  0.70672100  1
  C  1206  1  0.08469800  0.56078000  0.81697500  1
  C  1209  1  0.08472800  0.19730700  0.72729600  1
  C  1210  1  0.08203800  0.20109600  0.74356200  1
  C  1211  1  0.07980800  0.21716400  0.75653600  1
  C  1212  1  0.08077300  0.23012800  0.75319700  1
  C  1213  1  0.08361000  0.22646300  0.73699700  1
  C  1214  1  0.08538900  0.21033600  0.72424200  1
  C  1217  1  0.07808200  0.24662700  0.76562900  1
  C  1218  1  0.09523100  0.25457300  0.77616300  1
  C  1219  1  0.09268800  0.26981000  0.79016400  1
  C  1220  1  0.07292900  0.27778300  0.79407700  1
  C  1221  1  0.05605700  0.27000100  0.78307000  1
  C  1222  1  0.05804200  0.25447100  0.76910200  1
  C  1227  1  0.07579900  0.21931200  0.77291100  1
  C  1228  1  0.03928200  0.24626300  0.75859200  1
  C  1237  1  0.06846900  0.29125200  0.80926400  1
  C  1238  1  0.08478200  0.18102600  0.71519300  1
  C  1241  1  0.08474700  0.27063100  0.44140300  1
  C  1242  1  0.08205000  0.25436600  0.42892500  1
  C  1243  1  0.07981100  0.24139300  0.43201900  1
  C  1244  1  0.08077600  0.24472900  0.44832100  1
  C  1245  1  0.08362000  0.26093000  0.46085700  1
  C  1246  1  0.08540400  0.27368400  0.45748400  1
  C  1249  1  0.07808300  0.23229700  0.45238600  1
  C  1250  1  0.09523200  0.22176100  0.44979500  1
  C  1251  1  0.09268400  0.20775400  0.45102100  1
  C  1252  1  0.07292500  0.20384100  0.45507600  1
  C  1253  1  0.05605400  0.21484900  0.45830600  1
  C  1254  1  0.05804400  0.22882400  0.45675500  1
  C  1259  1  0.07579600  0.22501800  0.41779000  1
  C  1260  1  0.03928400  0.23933500  0.45906000  1
  C  1269  1  0.06844700  0.18864600  0.45332700  1
  C  1270  1  0.08481100  0.28273400  0.43722500  1
  C  1273  1  0.58474500  0.45977000  0.17892900  1
  C  1274  1  0.58204600  0.44729700  0.18272200  1
  C  1275  1  0.57980300  0.45039600  0.19879100  1
  C  1276  1  0.58076600  0.46670100  0.21175200  1
  C  1277  1  0.58361400  0.47923100  0.20808100  1
  C  1278  1  0.58540200  0.47585400  0.19195400  1
  C  1281  1  0.57807300  0.47077100  0.22825100  1
  C  1282  1  0.59522100  0.46818000  0.23619700  1
  C  1283  1  0.59267000  0.46940900  0.25143000  1
  C  1284  1  0.57291000  0.47346400  0.25939700  1
  C  1285  1  0.55604100  0.47669500  0.25161700  1
  C  1286  1  0.55803200  0.47514200  0.23609200  1
  C  1291  1  0.57578500  0.43617200  0.20094300  1
  C  1292  1  0.53927500  0.47744800  0.22788300  1
  C  1301  1  0.56843000  0.47171400  0.27284200  1
  C  1302  1  0.58481500  0.45558600  0.16264700  1
  C  1305  1  0.58459800  0.81898600  0.25217100  1
  C  1306  1  0.58200000  0.81515300  0.23588300  1
  C  1307  1  0.57984600  0.79906900  0.22292500  1
  C  1308  1  0.58080100  0.78613200  0.22630400  1
  C  1309  1  0.58356400  0.78983800  0.24252400  1
  C  1310  1  0.58526000  0.80598100  0.25525900  1
  C  1313  1  0.57812200  0.76962400  0.21389600  1
  C  1314  1  0.59528500  0.76166600  0.20338400  1
  C  1315  1  0.59274700  0.74642800  0.18938300  1
  C  1316  1  0.57297800  0.73847100  0.18545000  1
  C  1317  1  0.55609300  0.74626000  0.19643900  1
  C  1318  1  0.55807500  0.76179000  0.21040800  1
  C  1323  1  0.57589500  0.79687900  0.20652600  1
  C  1324  1  0.53930100  0.77000900  0.22089600  1
  C  1333  1  0.56851600  0.72502400  0.17025500  1
  C  1334  1  0.58446100  0.83527300  0.26426000  1
  C  1337  1  0.58472200  0.74574900  0.53812900  1
  C  1338  1  0.58201700  0.76200900  0.55062000  1
  C  1339  1  0.57978200  0.77499900  0.54754900  1
  C  1340  1  0.58075100  0.77168900  0.53125500  1
  C  1341  1  0.58359200  0.75549400  0.51870700  1
  C  1342  1  0.58538000  0.74272300  0.52205800  1
  C  1345  1  0.57805000  0.78414100  0.52721200  1
  C  1346  1  0.59519100  0.79468300  0.52980400  1
  C  1347  1  0.59264000  0.80868900  0.52857200  1
  C  1348  1  0.57287800  0.81260400  0.52451900  1
  C  1349  1  0.55601200  0.80159300  0.52129900  1
  C  1350  1  0.55800700  0.78761900  0.52285100  1
  C  1355  1  0.57577000  0.79136300  0.56179200  1
  C  1356  1  0.53925200  0.77710000  0.52053900  1
  C  1365  1  0.56839600  0.82776900  0.52617700  1
  C  1366  1  0.58482600  0.73362500  0.54228600  1
  C  1369  1  0.79660300  0.69546300  0.08354600  1
  C  1370  1  0.78483700  0.70986400  0.08870700  1
  C  1371  1  0.76255300  0.71054800  0.09055600  1
  C  1372  1  0.75139700  0.69625200  0.08722000  1
  C  1373  1  0.76292600  0.68170200  0.08153400  1
  C  1374  1  0.78501700  0.68123300  0.07932000  1
  C  1377  1  0.72898000  0.69602700  0.08924800  1
  C  1378  1  0.71560100  0.69387700  0.07644200  1
  C  1379  1  0.69345900  0.69367300  0.07781600  1
  C  1380  1  0.68403300  0.69577700  0.09213000  1
  C  1381  1  0.69735600  0.69814900  0.10502400  1
  C  1382  1  0.71971800  0.69840900  0.10391500  1
  C  1387  1  0.75165900  0.72591900  0.09446900  1
  C  1388  1  0.73333000  0.70066500  0.11771100  1
  C  1397  1  0.66243300  0.69386300  0.09305600  1
  C  1398  1  0.81824100  0.69560100  0.08052200  1
  C  1401  1  0.79667500  0.41452500  0.30239200  1
  C  1402  1  0.78490600  0.40531800  0.28798500  1
  C  1403  1  0.76262500  0.40651500  0.28730600  1
  C  1404  1  0.75148500  0.41747800  0.30160900  1
  C  1405  1  0.76301600  0.42629500  0.31616500  1
  C  1406  1  0.78509400  0.42450700  0.31662600  1
  C  1409  1  0.72907900  0.41977200  0.30184100  1
  C  1410  1  0.71566100  0.40910600  0.30394500  1
  C  1411  1  0.69352700  0.41071800  0.30415400  1
  C  1412  1  0.68414700  0.42299700  0.30214000  1
  C  1413  1  0.69750600  0.43353900  0.29982400  1
  C  1414  1  0.71986300  0.43210400  0.29951200  1
  C  1419  1  0.75171700  0.39508900  0.27193100  1
  C  1420  1  0.73352300  0.44361900  0.29725100  1
  C  1429  1  0.66255900  0.42586000  0.30410000  1
  C  1430  1  0.81830700  0.41134200  0.30224300  1
  C  1433  1  0.79668800  0.91443600  0.58333200  1
  C  1434  1  0.78493500  0.90924700  0.59255400  1
  C  1435  1  0.76265500  0.90736700  0.59136800  1
  C  1436  1  0.75149800  0.91069900  0.58040600  1
  C  1437  1  0.76301700  0.91642300  0.57157100  1
  C  1438  1  0.78508900  0.91866500  0.57334400  1
  C  1441  1  0.72908900  0.90863600  0.57812700  1
  C  1442  1  0.71567600  0.92140300  0.58880400  1
  C  1443  1  0.69354000  0.91999800  0.58720600  1
  C  1444  1  0.68415300  0.90570800  0.57492800  1
  C  1445  1  0.69750800  0.89285300  0.56437500  1
  C  1446  1  0.71986800  0.89397600  0.56579700  1
  C  1451  1  0.75176300  0.90341400  0.60279900  1
  C  1452  1  0.73352300  0.88020100  0.55427500  1
  C  1461  1  0.66255800  0.90480600  0.57208600  1
  C  1462  1  0.81831600  0.91748600  0.58651200  1
  C  1465  1  0.29669500  0.32083700  0.89602100  1
  C  1466  1  0.28493200  0.30643300  0.89085500  1
  C  1467  1  0.26265300  0.30574300  0.88897700  1
  C  1468  1  0.25150400  0.32003200  0.89228300  1
  C  1469  1  0.26302900  0.33458800  0.89799100  1
  C  1470  1  0.28510400  0.33505800  0.90023600  1
  C  1473  1  0.22909700  0.32025500  0.89022500  1
  C  1474  1  0.21569000  0.32236900  0.90300400  1
  C  1475  1  0.19355500  0.32257000  0.90160700  1
  C  1476  1  0.18416400  0.32054400  0.88731200  1
  C  1477  1  0.19751100  0.31821700  0.87444600  1
  C  1478  1  0.21987100  0.31790700  0.87555900  1
  C  1483  1  0.25175900  0.29036600  0.88504500  1
  C  1484  1  0.23352000  0.31562600  0.86177300  1
  C  1493  1  0.16257500  0.32250000  0.88641600  1
  C  1494  1  0.31832800  0.32070200  0.89905300  1
  C  1497  1  0.29671200  0.60173400  0.67708000  1
  C  1498  1  0.28494900  0.61095000  0.69148800  1
  C  1499  1  0.26267000  0.60976200  0.69217400  1
  C  1500  1  0.25152000  0.59880400  0.67787400  1
  C  1501  1  0.26304800  0.58997500  0.66331700  1
  C  1502  1  0.28512200  0.59175100  0.66285700  1
  C  1505  1  0.22911300  0.59652400  0.67764900  1
  C  1506  1  0.21570800  0.60719400  0.67554100  1
  C  1507  1  0.19357200  0.60559800  0.67534200  1
  C  1508  1  0.18417900  0.59332700  0.67736300  1
  C  1509  1  0.19752600  0.58278100  0.67968200  1
  C  1510  1  0.21988400  0.58420300  0.67998900  1
  C  1515  1  0.25177000  0.62118900  0.70755500  1
  C  1516  1  0.23353100  0.57269000  0.68226200  1
  C  1525  1  0.16258800  0.59048100  0.67541400  1
  C  1526  1  0.31834100  0.60491400  0.67722200  1
  C  1529  1  0.29670700  0.10192700  0.39618900  1
  C  1530  1  0.28493500  0.10710400  0.38696500  1
  C  1531  1  0.26265400  0.10896400  0.38814900  1
  C  1532  1  0.25151200  0.10562300  0.39911000  1
  C  1533  1  0.26304800  0.09991000  0.40794700  1
  C  1534  1  0.28512300  0.09768800  0.40617800  1
  C  1537  1  0.22910400  0.10767200  0.40139100  1
  C  1538  1  0.21570100  0.09489300  0.39072100  1
  C  1539  1  0.19356400  0.09628600  0.39231700  1
  C  1540  1  0.18416800  0.11057600  0.40458900  1
  C  1541  1  0.19751100  0.12344200  0.41513500  1
  C  1542  1  0.21987100  0.12233100  0.41371200  1
  C  1547  1  0.25174600  0.11290800  0.37671700  1
  C  1548  1  0.23351500  0.13612100  0.42522600  1
  C  1557  1  0.16257700  0.11146900  0.40743600  1
  C  1558  1  0.31834200  0.09891400  0.39302500  1
  C  1561  1  0.18224700  0.60207100  0.89618200  1
  C  1562  1  0.19384500  0.61110500  0.89070000  1
  C  1563  1  0.21610700  0.60994300  0.88878700  1
  C  1564  1  0.22734700  0.59922400  0.89241200  1
  C  1565  1  0.21595200  0.59050200  0.89832500  1
  C  1566  1  0.19389600  0.59224300  0.90058300  1
  C  1569  1  0.24973100  0.59699100  0.89033800  1
  C  1570  1  0.26310600  0.60775100  0.90308000  1
  C  1571  1  0.28523200  0.60612700  0.90172000  1
  C  1572  1  0.29460200  0.59371500  0.88751500  1
  C  1573  1  0.28128500  0.58308400  0.87467400  1
  C  1574  1  0.25893900  0.58454600  0.87574300  1
  C  1579  1  0.22698900  0.62123500  0.88464100  1
  C  1580  1  0.24530300  0.57292300  0.86201300  1
  C  1589  1  0.31611300  0.59072500  0.88679200  1
  C  1590  1  0.16070800  0.60532800  0.89939700  1
  C  1593  1  0.18248200  0.10173300  0.67718800  1
  C  1594  1  0.19408900  0.10715800  0.69169200  1
  C  1595  1  0.21634900  0.10909700  0.69245300  1
  C  1596  1  0.22758700  0.10554000  0.67812600  1
  C  1597  1  0.21618800  0.09965700  0.66349600  1
  C  1598  1  0.19413100  0.09738700  0.66297200  1
  C  1601  1  0.24997700  0.10760800  0.67796400  1
  C  1602  1  0.26334900  0.09486500  0.67598300  1
  C  1603  1  0.28547800  0.09622300  0.67572900  1
  C  1604  1  0.29486900  0.11042600  0.67753000  1
  C  1605  1  0.28155300  0.12326800  0.67974000  1
  C  1606  1  0.25920100  0.12220200  0.68012700  1
  C  1611  1  0.22720000  0.11323100  0.70789700  1
  C  1612  1  0.24556500  0.13594300  0.68226000  1
  C  1621  1  0.31641400  0.11116900  0.67535300  1
  C  1622  1  0.16093400  0.09853000  0.67722000  1
  C  1625  1  0.18245500  0.32075700  0.39593100  1
  C  1626  1  0.19403000  0.30624000  0.38684400  1
  C  1627  1  0.21629000  0.30545900  0.38799500  1
  C  1628  1  0.22755400  0.31977600  0.39874800  1
  C  1629  1  0.21618500  0.33441700  0.40751600  1
  C  1630  1  0.19413000  0.33496200  0.40579500  1
  C  1633  1  0.24993600  0.31990600  0.40096300  1
  C  1634  1  0.26331100  0.32198000  0.39026000  1
  C  1635  1  0.28543700  0.32223000  0.39188100  1
  C  1636  1  0.29480700  0.32025400  0.40418300  1
  C  1637  1  0.28148900  0.31794100  0.41474400  1
  C  1638  1  0.25914100  0.31764000  0.41333400  1
  C  1643  1  0.22712800  0.29001500  0.37665400  1
  C  1644  1  0.24550500  0.31552800  0.42495400  1
  C  1653  1  0.31631600  0.32247600  0.40720800  1
  C  1654  1  0.16091100  0.32075300  0.39270900  1
  C  1657  1  0.68235200  0.41420400  0.08326700  1
  C  1658  1  0.69391800  0.40516100  0.08875600  1
  C  1659  1  0.71617300  0.40632900  0.09071000  1
  C  1660  1  0.72744000  0.41706300  0.08712000  1
  C  1661  1  0.71608300  0.42578400  0.08118900  1
  C  1662  1  0.69403400  0.42403500  0.07888900  1
  C  1665  1  0.74981700  0.41929900  0.08922500  1
  C  1666  1  0.76321300  0.40854900  0.07649300  1
  C  1667  1  0.78533600  0.41019000  0.07787300  1
  C  1668  1  0.79468000  0.42260300  0.09209000  1
  C  1669  1  0.78134300  0.43321900  0.10492200  1
  C  1670  1  0.75899900  0.43174500  0.10382900  1
  C  1675  1  0.72701800  0.39502300  0.09485500  1
  C  1676  1  0.74533700  0.44336300  0.11754300  1
  C  1685  1  0.81618200  0.42562600  0.09283100  1
  C  1686  1  0.66082200  0.41095000  0.08001600  1
  C  1689  1  0.68234000  0.91464100  0.30237200  1
  C  1690  1  0.69389500  0.90916900  0.28783900  1
  C  1691  1  0.71615100  0.90721500  0.28704500  1
  C  1692  1  0.72742600  0.91079400  0.30136200  1
  C  1693  1  0.71607500  0.91670600  0.31601600  1
  C  1694  1  0.69402500  0.91899900  0.31657500  1
  C  1697  1  0.74980400  0.90869400  0.30148500  1
  C  1698  1  0.76318900  0.92142900  0.30346300  1
  C  1699  1  0.78531400  0.92005200  0.30371300  1
  C  1700  1  0.79466800  0.90583400  0.30189800  1
  C  1701  1  0.78134000  0.89299900  0.29968600  1
  C  1702  1  0.75899400  0.89408900  0.29931900  1
  C  1707  1  0.72698300  0.90307100  0.27159000  1
  C  1708  1  0.74534400  0.88037100  0.29722500  1
  C  1717  1  0.81617300  0.90509900  0.30417500  1
  C  1718  1  0.66080900  0.91789500  0.30238200  1
  C  1721  1  0.68233800  0.69557200  0.58365800  1
  C  1722  1  0.69390300  0.71009700  0.59273800  1
  C  1723  1  0.71615900  0.71088900  0.59157300  1
  C  1724  1  0.72742400  0.69657600  0.58080900  1
  C  1725  1  0.71606700  0.68192800  0.57205500  1
  C  1726  1  0.69401700  0.68137200  0.57379500  1
  C  1729  1  0.74980400  0.69644700  0.57858700  1
  C  1730  1  0.76318000  0.69444800  0.58933600  1
  C  1731  1  0.78530400  0.69418200  0.58770700  1
  C  1732  1  0.79466800  0.69599600  0.57530400  1
  C  1733  1  0.78134900  0.69823100  0.56469200  1
  C  1734  1  0.75900400  0.69862100  0.56615600  1
  C  1739  1  0.72699300  0.72633700  0.60289800  1
  C  1740  1  0.74536100  0.70074900  0.55455000  1
  C  1749  1  0.81617000  0.69370500  0.57229100  1
  C  1750  1  0.66080100  0.69556700  0.58688900  1
  C  1753  1  0.95139200  0.63913000  0.02088200  1
  C  1754  1  0.95521900  0.64362600  0.00902300  1
  C  1755  1  0.96829400  0.63445900  0.99536500  1
  C  1756  1  0.97811400  0.62019300  0.99350600  1
  C  1757  1  0.97421500  0.61552700  0.00518700  1
  C  1758  1  0.96113300  0.62481500  0.01862600  1
  C  1761  1  0.99115400  0.61001100  0.97995800  1
  C  1762  1  0.01203500  0.61501800  0.97943600  1
  C  1763  1  0.02478200  0.60628600  0.96563500  1
  C  1764  1  0.01720000  0.59210100  0.95194700  1
  C  1765  1  0.99654200  0.58687500  0.95288800  1
  C  1766  1  0.98318900  0.59564100  0.96645900  1
  C  1771  1  0.97103500  0.64055100  0.98380900  1
  C  1772  1  0.96098200  0.59016100  0.96633400  1
  C  1781  1  0.02742200  0.58466100  0.93690500  1
  C  1782  1  0.94112800  0.65001700  0.03524600  1
  C  1785  1  0.95133600  0.40833200  0.35872400  1
  C  1786  1  0.95509800  0.39197800  0.35425200  1
  C  1787  1  0.96813100  0.38748600  0.36343800  1
  C  1788  1  0.97799200  0.39989500  0.37768500  1
  C  1789  1  0.97416900  0.41624300  0.38231900  1
  C  1790  1  0.96111400  0.42039400  0.37302000  1
  C  1793  1  0.99098000  0.39652200  0.38788000  1
  C  1794  1  0.01174200  0.39072000  0.38276400  1
  C  1795  1  0.02430400  0.38542800  0.39139700  1
  C  1796  1  0.01666500  0.38600900  0.40560700  1
  C  1797  1  0.99619900  0.39254200  0.41100000  1
  C  1798  1  0.98299900  0.39753400  0.40231000  1
  C  1803  1  0.97078500  0.36983800  0.35738100  1
  C  1804  1  0.96089300  0.40314800  0.40789500  1
  C  1813  1  0.02644100  0.37791200  0.41270500  1
  C  1814  1  0.94112400  0.41179900  0.34781900  1
  C  1817  1  0.95126300  0.97698700  0.58956100  1
  C  1818  1  0.95504400  0.98885200  0.60591800  1
  C  1819  1  0.96810200  0.00251900  0.61041800  1
  C  1820  1  0.97796800  0.00436400  0.59801500  1
  C  1821  1  0.97412700  0.99266600  0.58166500  1
  C  1822  1  0.96104900  0.97922800  0.57750700  1
  C  1825  1  0.99097000  0.01792700  0.60139400  1
  C  1826  1  0.01173500  0.01859500  0.60717900  1
  C  1827  1  0.02431800  0.03250900  0.61246400  1
  C  1828  1  0.01669500  0.04614600  0.61189300  1
  C  1829  1  0.99621900  0.04502600  0.60537900  1
  C  1830  1  0.98300000  0.03135500  0.60039600  1
  C  1835  1  0.97077500  0.01409300  0.62806900  1
  C  1836  1  0.96088900  0.03134700  0.59480200  1
  C  1845  1  0.02649800  0.06133200  0.61997400  1
  C  1846  1  0.94103600  0.96261600  0.58608300  1
  C  1849  1  0.45130800  0.37711200  0.95850400  1
  C  1850  1  0.45506600  0.37263400  0.97038300  1
  C  1851  1  0.46810200  0.38181400  0.98406100  1
  C  1852  1  0.47797400  0.39605800  0.98590400  1
  C  1853  1  0.47415800  0.40069600  0.97419200  1
  C  1854  1  0.46109800  0.39140400  0.96074100  1
  C  1857  1  0.49095500  0.40625100  0.99947900  1
  C  1858  1  0.51171000  0.40113300  0.00017700  1
  C  1859  1  0.52425700  0.40976100  0.01411100  1
  C  1860  1  0.51661400  0.42396900  0.02773600  1
  C  1861  1  0.49615600  0.42936800  0.02658200  1
  C  1862  1  0.48296800  0.42068000  0.01289300  1
  C  1867  1  0.47074400  0.37575200  0.99565000  1
  C  1868  1  0.46086600  0.42626800  0.01285400  1
  C  1877  1  0.52636900  0.43106900  0.04293800  1
  C  1878  1  0.44108100  0.36621500  0.94413400  1
  C  1881  1  0.45131500  0.60794200  0.62076600  1
  C  1882  1  0.45507400  0.62429900  0.62524800  1
  C  1883  1  0.46811900  0.62879900  0.61607500  1
  C  1884  1  0.47799900  0.61639900  0.60183400  1
  C  1885  1  0.47418500  0.60004800  0.59719400  1
  C  1886  1  0.46111400  0.59588900  0.60647900  1
  C  1889  1  0.49098000  0.61978200  0.59164200  1
  C  1890  1  0.51172700  0.62561600  0.59676700  1
  C  1891  1  0.52426500  0.63093400  0.58814500  1
  C  1892  1  0.51661700  0.63034600  0.57393500  1
  C  1893  1  0.49617000  0.62377700  0.56852900  1
  C  1894  1  0.48299100  0.61876200  0.57721000  1
  C  1899  1  0.47076300  0.64645100  0.62214000  1
  C  1900  1  0.46089500  0.61312300  0.57161800  1
  C  1909  1  0.52633400  0.63848200  0.56686000  1
  C  1910  1  0.44107800  0.60446700  0.63165800  1
  C  1913  1  0.45128200  0.03938300  0.38998100  1
  C  1914  1  0.45506000  0.02751100  0.37362600  1
  C  1915  1  0.46811600  0.01384400  0.36913200  1
  C  1916  1  0.47798200  0.01200600  0.38153900  1
  C  1917  1  0.47414700  0.02371300  0.39788800  1
  C  1918  1  0.46107000  0.03715100  0.40204000  1
  C  1921  1  0.49097300  0.99844000  0.37816800  1
  C  1922  1  0.51174000  0.99775900  0.37237900  1
  C  1923  1  0.52430900  0.98384000  0.36710400  1
  C  1924  1  0.51667400  0.97021600  0.36769400  1
  C  1925  1  0.49619900  0.97135300  0.37421300  1
  C  1926  1  0.48299100  0.98502700  0.37918400  1
  C  1931  1  0.47078100  0.00225800  0.35148300  1
  C  1932  1  0.46087600  0.98504700  0.38477900  1
  C  1941  1  0.52645900  0.95502400  0.35961900  1
  C  1942  1  0.44104000  0.05374500  0.39345000  1
  C  1945  1  0.02710900  0.37716200  0.95835200  1
  C  1946  1  0.02335100  0.37276800  0.97029200  1
  C  1947  1  0.01039600  0.38201500  0.98399000  1
  C  1948  1  0.00061900  0.39628900  0.98583200  1
  C  1949  1  0.00438100  0.40083300  0.97403700  1
  C  1950  1  0.01734400  0.39143700  0.96053000  1
  C  1953  1  0.98780600  0.40651700  0.99952100  1
  C  1954  1  0.96708200  0.40140700  0.00030600  1
  C  1955  1  0.95495000  0.40963500  0.01451900  1
  C  1956  1  0.96302100  0.42340100  0.02839500  1
  C  1957  1  0.98336100  0.42891300  0.02716600  1
  C  1958  1  0.99612300  0.42062100  0.01314500  1
  C  1963  1  0.00784200  0.37599700  0.99562600  1
  C  1964  1  0.01816600  0.42621800  0.01294300  1
  C  1973  1  0.95368000  0.42983900  0.04369600  1
  C  1974  1  0.03809000  0.36642600  0.94430300  1
  C  1977  1  0.02712900  0.60772800  0.62076300  1
  C  1978  1  0.02337300  0.62406200  0.62515500  1
  C  1979  1  0.01041800  0.62851400  0.61590900  1
  C  1980  1  0.00063900  0.61608200  0.60163400  1
  C  1981  1  0.00440000  0.59974300  0.59709100  1
  C  1982  1  0.01736200  0.59563100  0.60648700  1
  C  1985  1  0.98782000  0.61954600  0.59141200  1
  C  1986  1  0.96710100  0.62544800  0.59653100  1
  C  1987  1  0.95496900  0.63144600  0.58831400  1
  C  1988  1  0.96303500  0.63156500  0.57455300  1
  C  1989  1  0.98337000  0.62481800  0.56902900  1
  C  1990  1  0.99613100  0.61907300  0.57730900  1
  C  1995  1  0.00786700  0.64616800  0.62192600  1
  C  1996  1  0.01816900  0.61326600  0.57170200  1
  C  2005  1  0.95370600  0.64044500  0.56813200  1
  C  2006  1  0.03810900  0.60441500  0.63150100  1
  C  2009  1  0.02711500  0.03956000  0.39018100  1
  C  2010  1  0.02335700  0.02761800  0.37384700  1
  C  2011  1  0.01040100  0.01392100  0.36939600  1
  C  2012  1  0.00061900  0.01208200  0.38182900  1
  C  2013  1  0.00437800  0.02387800  0.39816800  1
  C  2014  1  0.01734400  0.03738400  0.40227800  1
  C  2017  1  0.98780400  0.99839500  0.37836800  1
  C  2018  1  0.96708800  0.99760500  0.37245600  1
  C  2019  1  0.95496700  0.98338400  0.36645200  1
  C  2020  1  0.96304000  0.96950900  0.36633800  1
  C  2021  1  0.98336900  0.97074000  0.37309600  1
  C  2022  1  0.99612100  0.98477100  0.37884700  1
  C  2027  1  0.00785000  0.00228400  0.35174200  1
  C  2028  1  0.01815600  0.98497700  0.38466100  1
  C  2037  1  0.95373300  0.95420300  0.35744100  1
  C  2038  1  0.03810200  0.05360600  0.39349200  1
  C  2041  1  0.52711300  0.63915300  0.02115500  1
  C  2042  1  0.52336800  0.64352800  0.00920000  1
  C  2043  1  0.51041400  0.63427300  0.99550200  1
  C  2044  1  0.50062900  0.62000600  0.99367300  1
  C  2045  1  0.50438100  0.61547800  0.00548200  1
  C  2046  1  0.51733900  0.62488400  0.01898900  1
  C  2049  1  0.48780700  0.60977900  0.97999300  1
  C  2050  1  0.46708600  0.61489700  0.97921000  1
  C  2051  1  0.45495100  0.60667300  0.96499600  1
  C  2052  1  0.46301600  0.59290900  0.95112000  1
  C  2053  1  0.48335200  0.58738700  0.95234200  1
  C  2054  1  0.49611600  0.59567300  0.96636600  1
  C  2059  1  0.50786800  0.64027500  0.98385200  1
  C  2060  1  0.51815600  0.59006800  0.96656400  1
  C  2069  1  0.45368700  0.58648700  0.93581800  1
  C  2070  1  0.53806900  0.64990000  0.03521300  1
  C  2073  1  0.52711500  0.40858000  0.35878500  1
  C  2074  1  0.52336000  0.39224500  0.35438900  1
  C  2075  1  0.51039700  0.38778900  0.36362700  1
  C  2076  1  0.50060500  0.40021900  0.37789700  1
  C  2077  1  0.50436000  0.41656000  0.38244200  1
  C  2078  1  0.51733400  0.42067400  0.37305500  1
  C  2081  1  0.48779200  0.39675400  0.38812000  1
  C  2082  1  0.46709100  0.39081100  0.38298000  1
  C  2083  1  0.45498900  0.38477800  0.39117900  1
  C  2084  1  0.46306500  0.38467000  0.40494100  1
  C  2085  1  0.48337000  0.39146600  0.41049300  1
  C  2086  1  0.49610500  0.39724200  0.40222900  1
  C  2091  1  0.50785500  0.37013400  0.35761100  1
  C  2092  1  0.51812700  0.40308500  0.40785300  1
  C  2101  1  0.45380600  0.37571000  0.41129800  1
  C  2102  1  0.53812400  0.41189700  0.34806200  1
  C  2105  1  0.52691700  0.97699200  0.58951300  1
  C  2106  1  0.52311100  0.98891900  0.60585000  1
  C  2107  1  0.51014900  0.00262300  0.61031100  1
  C  2108  1  0.50047700  0.00454700  0.59789700  1
  C  2109  1  0.50433000  0.99278400  0.58155500  1
  C  2110  1  0.51725400  0.97924600  0.57742900  1
  C  2113  1  0.48740100  0.01812600  0.60134100  1
  C  2114  1  0.46642300  0.01839400  0.60658000  1
  C  2115  1  0.45352300  0.03212700  0.61172300  1
  C  2116  1  0.46107900  0.04605700  0.61169900  1
  C  2117  1  0.48191600  0.04551600  0.60601600  1
  C  2118  1  0.49536900  0.03193200  0.60102600  1
  C  2123  1  0.50742400  0.01418500  0.62796100  1
  C  2124  1  0.51763000  0.03222300  0.59587000  1
  C  2133  1  0.44985500  0.06065000  0.61861800  1
  C  2134  1  0.53781100  0.96288700  0.58618000  1
  C  2137  1  0.93337600  0.61032400  0.12269100  1
  C  2138  1  0.92904700  0.60827500  0.13612800  1
  C  2139  1  0.93287900  0.59358200  0.13600900  1
  C  2140  1  0.94138100  0.58015400  0.12179900  1
  C  2141  1  0.94644500  0.58230100  0.10853700  1
  C  2142  1  0.94259500  0.59705700  0.10896500  1
  C  2145  1  0.94421100  0.56445300  0.12015200  1
  C  2146  1  0.92615800  0.55585200  0.12049900  1
  C  2147  1  0.92798600  0.54106000  0.12033500  1
  C  2148  1  0.94783500  0.53363900  0.11862000  1
  C  2149  1  0.96583000  0.54220800  0.11807700  1
  C  2150  1  0.96454300  0.55762700  0.11928200  1
  C  2155  1  0.92678100  0.59298700  0.15078900  1
  C  2156  1  0.98430600  0.56668300  0.12021400  1
  C  2165  1  0.95086400  0.51956900  0.11953800  1
  C  2166  1  0.92468600  0.62372900  0.12245200  1
  C  2169  1  0.93308900  0.53904100  0.38770300  1
  C  2170  1  0.92899100  0.55453800  0.38970500  1
  C  2171  1  0.93295600  0.56910700  0.40437300  1
  C  2172  1  0.94136900  0.56830400  0.41781300  1
  C  2173  1  0.94623500  0.55287900  0.41570100  1
  C  2174  1  0.94223900  0.53855500  0.40097500  1
  C  2177  1  0.94423000  0.58235100  0.43351000  1
  C  2178  1  0.92619800  0.59134200  0.44210500  1
  C  2179  1  0.92805600  0.60594800  0.45691300  1
  C  2180  1  0.94791000  0.61159200  0.46434900  1
  C  2181  1  0.96588500  0.60244800  0.45577800  1
  C  2182  1  0.96457100  0.58825000  0.44034900  1
  C  2187  1  0.92704400  0.58450600  0.40495000  1
  C  2188  1  0.98431300  0.58007700  0.43129300  1
  C  2197  1  0.95097000  0.62655600  0.47844100  1
  C  2198  1  0.92413400  0.52543700  0.37442200  1
  C  2201  1  0.93333300  0.87524100  0.45901300  1
  C  2202  1  0.92899700  0.86180900  0.44352400  1
  C  2203  1  0.93282800  0.86193300  0.42895200  1
  C  2204  1  0.94133700  0.87614300  0.42973800  1
  C  2205  1  0.94640800  0.88939900  0.44514900  1
  C  2206  1  0.94255900  0.88896700  0.45947500  1
  C  2209  1  0.94417500  0.87779000  0.41568600  1
  C  2210  1  0.92612400  0.87744600  0.40673700  1
  C  2211  1  0.92795600  0.87760000  0.39210400  1
  C  2212  1  0.94780800  0.87930600  0.38639600  1
  C  2213  1  0.96580100  0.87984700  0.39551000  1
  C  2214  1  0.96450900  0.87864800  0.40972700  1
  C  2219  1  0.92672800  0.84715400  0.41357600  1
  C  2220  1  0.98426900  0.87771000  0.41785000  1
  C  2229  1  0.95084000  0.87837900  0.37140400  1
  C  2230  1  0.92469800  0.87545900  0.47266600  1
  C  2233  1  0.43333500  0.40599100  0.85682600  1
  C  2234  1  0.42901800  0.40805100  0.84339400  1
  C  2235  1  0.43285800  0.42274700  0.84352300  1
  C  2236  1  0.44135700  0.43616900  0.85773800  1
  C  2237  1  0.44641000  0.43401100  0.87099500  1
  C  2238  1  0.44255100  0.41925300  0.87056000  1
  C  2241  1  0.44419900  0.45187100  0.85939300  1
  C  2242  1  0.42615100  0.46048200  0.85905200  1
  C  2243  1  0.42799000  0.47527800  0.85922400  1
  C  2244  1  0.44784300  0.48269300  0.86094200  1
  C  2245  1  0.46583200  0.47411400  0.86147700  1
  C  2246  1  0.46453500  0.45869200  0.86026400  1
  C  2251  1  0.42677200  0.42335000  0.82874300  1
  C  2252  1  0.48429200  0.44962500  0.85932200  1
  C  2261  1  0.45088200  0.49677100  0.86004000  1
  C  2262  1  0.42464800  0.39257800  0.85704900  1
  C  2265  1  0.43333500  0.47739300  0.59193000  1
  C  2266  1  0.42902000  0.46190400  0.58987700  1
  C  2267  1  0.43286100  0.44733400  0.57518300  1
  C  2268  1  0.44136100  0.44812300  0.56175800  1
  C  2269  1  0.44641200  0.46353600  0.56391000  1
  C  2270  1  0.44255100  0.47786100  0.57866600  1
  C  2273  1  0.44418800  0.43407600  0.54605600  1
  C  2274  1  0.42613200  0.42512500  0.53745900  1
  C  2275  1  0.42795500  0.41050700  0.52265900  1
  C  2276  1  0.44779700  0.40481600  0.51521900  1
  C  2277  1  0.46579400  0.41392400  0.52378600  1
  C  2278  1  0.46451600  0.42812600  0.53921700  1
  C  2283  1  0.42677500  0.43195300  0.57458400  1
  C  2284  1  0.48428300  0.43624300  0.54827000  1
  C  2293  1  0.45081600  0.38985300  0.50111500  1
  C  2294  1  0.42465900  0.49103100  0.60534500  1
  C  2297  1  0.43332200  0.14106500  0.52055200  1
  C  2298  1  0.42901200  0.15449900  0.53604600  1
  C  2299  1  0.43285200  0.15436800  0.55061200  1
  C  2300  1  0.44134600  0.14015000  0.54981800  1
  C  2301  1  0.44639300  0.12689300  0.53440300  1
  C  2302  1  0.44253300  0.12732900  0.52008000  1
  C  2305  1  0.44420400  0.13850200  0.56386900  1
  C  2306  1  0.42616700  0.13883900  0.57282900  1
  C  2307  1  0.42802500  0.13869400  0.58746700  1
  C  2308  1  0.44789200  0.13701500  0.59317300  1
  C  2309  1  0.46586800  0.13647700  0.58404900  1
  C  2310  1  0.46455000  0.13765600  0.56982100  1
  C  2315  1  0.42677400  0.16915000  0.56599500  1
  C  2316  1  0.48429400  0.13859700  0.56168300  1
  C  2325  1  0.45095900  0.13801400  0.60819400  1
  C  2326  1  0.42464800  0.14085200  0.50691800  1
  C  2329  1  0.04549100  0.47808300  0.85734500  1
  C  2330  1  0.04980200  0.46265200  0.84381700  1
  C  2331  1  0.04601600  0.44800600  0.84380100  1
  C  2332  1  0.03759100  0.44865400  0.85796900  1
  C  2333  1  0.03254200  0.46400500  0.87132600  1
  C  2334  1  0.03634700  0.47840900  0.87103100  1
  C  2337  1  0.03483400  0.43450500  0.85945800  1
  C  2338  1  0.05294800  0.42559100  0.85907100  1
  C  2339  1  0.05121600  0.41083600  0.85899100  1
  C  2340  1  0.03138500  0.40492800  0.86043900  1
  C  2341  1  0.01332600  0.41401300  0.86104900  1
  C  2342  1  0.01453300  0.42838800  0.86012800  1
  C  2347  1  0.05208100  0.43269700  0.82893100  1
  C  2348  1  0.99473800  0.43651800  0.85926400  1
  C  2357  1  0.02846700  0.38976900  0.85914700  1
  C  2358  1  0.05405400  0.49179700  0.85765100  1
  C  2361  1  0.04552900  0.14060400  0.59212100  1
  C  2362  1  0.04982400  0.15413200  0.59021200  1
  C  2363  1  0.04603200  0.15413800  0.57557800  1
  C  2364  1  0.03761100  0.13996400  0.56206200  1
  C  2365  1  0.03257600  0.12660900  0.56406200  1
  C  2366  1  0.03639000  0.12691200  0.57876500  1
  C  2369  1  0.03485300  0.13846800  0.54642100  1
  C  2370  1  0.05296600  0.13886400  0.53789700  1
  C  2371  1  0.05123000  0.13895300  0.52322700  1
  C  2372  1  0.03139900  0.13749600  0.51586700  1
  C  2373  1  0.01334300  0.13687600  0.52433800  1
  C  2374  1  0.01455200  0.13779000  0.53963100  1
  C  2379  1  0.05208400  0.16900600  0.57513200  1
  C  2380  1  0.99475700  0.13864600  0.54862200  1
  C  2389  1  0.02847800  0.13880200  0.50200800  1
  C  2390  1  0.05409700  0.14031400  0.60553600  1
  C  2393  1  0.04549000  0.40579700  0.51987300  1
  C  2394  1  0.04980000  0.40771300  0.53531000  1
  C  2395  1  0.04601600  0.42235100  0.54994900  1
  C  2396  1  0.03758900  0.43586300  0.54928900  1
  C  2397  1  0.03253800  0.43385500  0.53393300  1
  C  2398  1  0.03634300  0.41915000  0.51953500  1
  C  2401  1  0.03483000  0.45150600  0.56342800  1
  C  2402  1  0.05293900  0.46003700  0.57234500  1
  C  2403  1  0.05120100  0.47471600  0.58709700  1
  C  2404  1  0.03136900  0.48207300  0.59299700  1
  C  2405  1  0.01331500  0.47359400  0.58390900  1
  C  2406  1  0.01452600  0.45829400  0.56953800  1
  C  2411  1  0.05208400  0.42280400  0.56526400  1
  C  2412  1  0.99473200  0.44929800  0.56140700  1
  C  2421  1  0.02844400  0.49594200  0.60815200  1
  C  2422  1  0.05406500  0.39238800  0.50616800  1
  C  2425  1  0.54574800  0.53837200  0.12224600  1
  C  2426  1  0.54983000  0.55381500  0.13583000  1
  C  2427  1  0.54592200  0.56845300  0.13585700  1
  C  2428  1  0.53758800  0.56778100  0.12165300  1
  C  2429  1  0.53273000  0.55241400  0.10825200  1
  C  2430  1  0.53667200  0.53801600  0.10852600  1
  C  2433  1  0.53482100  0.58192100  0.12015200  1
  C  2434  1  0.55292400  0.59087100  0.12060000  1
  C  2435  1  0.55117900  0.60560200  0.12063500  1
  C  2436  1  0.53135400  0.61144700  0.11907900  1
  C  2437  1  0.51330600  0.60233200  0.11842500  1
  C  2438  1  0.51451900  0.58798000  0.11938800  1
  C  2443  1  0.55181400  0.58378400  0.15076200  1
  C  2444  1  0.49473300  0.57980900  0.12019300  1
  C  2453  1  0.52842600  0.62657000  0.12029200  1
  C  2454  1  0.55458900  0.52470100  0.12186000  1
  C  2457  1  0.54551600  0.87571500  0.38741900  1
  C  2458  1  0.54983100  0.86219400  0.38933300  1
  C  2459  1  0.54605500  0.86219000  0.40397000  1
  C  2460  1  0.53762800  0.87636100  0.41748600  1
  C  2461  1  0.53257300  0.88971000  0.41548000  1
  C  2462  1  0.53637100  0.88940400  0.40077500  1
  C  2465  1  0.53486900  0.87785800  0.43312800  1
  C  2466  1  0.55297900  0.87746400  0.44165200  1
  C  2467  1  0.55124400  0.87737500  0.45632200  1
  C  2468  1  0.53141100  0.87882700  0.46367900  1
  C  2469  1  0.51335500  0.87944300  0.45520700  1
  C  2470  1  0.51456500  0.87852800  0.43991300  1
  C  2475  1  0.55212200  0.84732400  0.40441600  1
  C  2476  1  0.49477200  0.87766700  0.43091900  1
  C  2485  1  0.52849000  0.87751800  0.47753700  1
  C  2486  1  0.55403100  0.87599800  0.37398100  1
  C  2489  1  0.54549700  0.61052800  0.45965700  1
  C  2490  1  0.54979700  0.60861100  0.44421800  1
  C  2491  1  0.54601400  0.59397200  0.42958200  1
  C  2492  1  0.53759600  0.58045800  0.43024500  1
  C  2493  1  0.53255500  0.58246700  0.44560300  1
  C  2494  1  0.53636000  0.59717400  0.45999900  1
  C  2497  1  0.53484500  0.56481300  0.41610500  1
  C  2498  1  0.55296200  0.55629000  0.40719200  1
  C  2499  1  0.55123200  0.54161700  0.39243600  1
  C  2500  1  0.53140500  0.53425600  0.38652600  1
  C  2501  1  0.51334400  0.54272600  0.39561100  1
  C  2502  1  0.51454600  0.55802100  0.40998800  1
  C  2507  1  0.55207400  0.59351800  0.41426500  1
  C  2508  1  0.49474900  0.56701000  0.41811800  1
  C  2517  1  0.52849200  0.52039600  0.37136100  1
  C  2518  1  0.55406600  0.62394300  0.47335900  1
  N  38  1  0.90203000  0.71979700  0.15818000  1
  N  39  1  0.92398200  0.62500100  0.10959900  1
  N  40  1  0.83425500  0.68955000  0.08398900  1
  N  41  1  0.93832600  0.64757600  0.04727400  1
  N  79  1  0.90200200  0.46492300  0.27804800  1
  N  80  1  0.92390500  0.51115200  0.37278800  1
  N  81  1  0.83433600  0.42084700  0.30827900  1
  N  82  1  0.93833900  0.42627000  0.35026300  1
  N  120  1  0.90201700  0.83971100  0.53296800  1
  N  121  1  0.92387600  0.88833800  0.48676100  1
  N  122  1  0.83433900  0.91400100  0.57699900  1
  N  123  1  0.93825500  0.95059900  0.57160600  1
  N  161  1  0.40200200  0.29643500  0.82121400  1
  N  162  1  0.42391900  0.39129200  0.86989200  1
  N  163  1  0.33433800  0.32674000  0.89556700  1
  N  164  1  0.43830600  0.36865700  0.93210500  1
  N  202  1  0.40201100  0.55136600  0.70145300  1
  N  203  1  0.42387700  0.50514700  0.60660300  1
  N  204  1  0.33436200  0.59539800  0.67118900  1
  N  205  1  0.43830400  0.58999400  0.62921100  1
  N  243  1  0.40200800  0.17664500  0.44656700  1
  N  244  1  0.42387700  0.12800400  0.49279100  1
  N  245  1  0.33435200  0.10239400  0.40255100  1
  N  246  1  0.43828000  0.06577400  0.40792400  1
  N  284  1  0.07566800  0.55206000  0.82212300  1
  N  285  1  0.05518800  0.50579500  0.87063700  1
  N  286  1  0.14474400  0.59577800  0.89586200  1
  N  287  1  0.04243500  0.59165000  0.93354600  1
  N  325  1  0.07568700  0.17587800  0.70134900  1
  N  326  1  0.05529500  0.12732400  0.60653600  1
  N  327  1  0.14498300  0.10210100  0.67122200  1
  N  328  1  0.04276400  0.06448200  0.62924200  1
  N  366  1  0.07571600  0.29657900  0.44591700  1
  N  367  1  0.05521200  0.39137700  0.49217100  1
  N  368  1  0.14497200  0.32675600  0.40229000  1
  N  369  1  0.04274600  0.36868000  0.40662800  1
  N  407  1  0.57569600  0.46426500  0.15749000  1
  N  408  1  0.55526200  0.51054100  0.10905000  1
  N  409  1  0.64485900  0.42050900  0.08358700  1
  N  410  1  0.54266200  0.42499300  0.04611000  1
  N  448  1  0.57566500  0.84045900  0.27821300  1
  N  449  1  0.55528700  0.88900800  0.37302600  1
  N  450  1  0.64486100  0.91431400  0.30837200  1
  N  451  1  0.54273800  0.95185400  0.35035900  1
  N  489  1  0.57568400  0.71980100  0.53361000  1
  N  490  1  0.55523300  0.62496100  0.48735800  1
  N  491  1  0.64486400  0.68956600  0.57730800  1
  N  492  1  0.54270100  0.64766200  0.57286900  1
  N  530  1  0.08078900  0.29635300  0.82168500  1
  N  531  1  0.03987500  0.38177500  0.86390400  1
  N  532  1  0.15610100  0.33664300  0.89007200  1
  N  533  1  0.03946500  0.36780400  0.93153600  1
  N  571  1  0.08078300  0.55188200  0.70159700  1
  N  572  1  0.03985200  0.50869300  0.61615200  1
  N  573  1  0.15610900  0.57998000  0.66127700  1
  N  574  1  0.03949400  0.59027100  0.63012400  1
  N  612  1  0.08078100  0.17622700  0.44602800  1
  N  613  1  0.03987500  0.13404000  0.48924900  1
  N  614  1  0.15610100  0.10783800  0.41794000  1
  N  615  1  0.03947800  0.06637600  0.40763600  1
  N  653  1  0.58083300  0.71995600  0.15783400  1
  N  654  1  0.53989000  0.63455800  0.11555900  1
  N  655  1  0.65602800  0.67957300  0.08890900  1
  N  656  1  0.53955500  0.64851900  0.04797300  1
  N  694  1  0.58076600  0.46441800  0.27796300  1
  N  695  1  0.53989600  0.50764300  0.36336400  1
  N  696  1  0.65609100  0.43629300  0.31826500  1
  N  697  1  0.53947400  0.42603900  0.34943200  1
  N  735  1  0.58068400  0.84020500  0.53358200  1
  N  736  1  0.53986600  0.88230100  0.49030900  1
  N  737  1  0.65606700  0.90845900  0.56160000  1
  N  738  1  0.53938100  0.95014500  0.57202200  1
  N  776  1  0.89924000  0.46398200  0.15708600  1
  N  777  1  0.93940600  0.50683400  0.11474200  1
  N  778  1  0.82213400  0.43658900  0.08969100  1
  N  779  1  0.93623000  0.42461200  0.04641100  1
  N  817  1  0.89921400  0.84081100  0.27823900  1
  N  818  1  0.93938500  0.88317000  0.36346000  1
  N  819  1  0.82213300  0.90826400  0.31828400  1
  N  820  1  0.93622400  0.95148600  0.34956400  1
  N  858  1  0.89921100  0.71964000  0.53394100  1
  N  859  1  0.93950700  0.63449200  0.49117300  1
  N  860  1  0.82212300  0.67960600  0.56131800  1
  N  861  1  0.93624700  0.64837900  0.57335300  1
  N  899  1  0.39923300  0.55232600  0.82242900  1
  N  900  1  0.43942400  0.50950500  0.86483100  1
  N  901  1  0.32209700  0.57970300  0.88983600  1
  N  902  1  0.43621900  0.59169600  0.93310400  1
  N  940  1  0.39914300  0.17537400  0.70107600  1
  N  941  1  0.43963900  0.13313200  0.61612700  1
  N  942  1  0.32257800  0.10797100  0.66127600  1
  N  943  1  0.43857400  0.06486500  0.63132600  1
  N  981  1  0.39922000  0.29661500  0.44555400  1
  N  982  1  0.43929000  0.38191300  0.48841700  1
  N  983  1  0.32222100  0.33680100  0.41766800  1
  N  984  1  0.43610900  0.36806300  0.40634700  1
  O  1005  1  0.95975400  0.78180900  0.23589100  1
  O  1009  1  0.88494300  0.79685700  0.19607300  1
  O  1037  1  0.95975400  0.48062900  0.21609600  1
  O  1041  1  0.88495900  0.42575600  0.20101300  1
  O  1069  1  0.95973600  0.76200400  0.51733400  1
  O  1073  1  0.88482700  0.80175200  0.57215500  1
  O  1101  1  0.45965900  0.23440500  0.74347600  1
  O  1105  1  0.38499800  0.21939500  0.78341800  1
  O  1133  1  0.45974000  0.53568800  0.76342200  1
  O  1137  1  0.38494600  0.59056600  0.77849600  1
  O  1165  1  0.45974300  0.25428600  0.46223900  1
  O  1169  1  0.38495200  0.21448700  0.40737000  1
  O  1197  1  0.01942800  0.53561200  0.74342800  1
  O  1201  1  0.09400000  0.59046300  0.78382800  1
  O  1229  1  0.01941000  0.25453900  0.76360600  1
  O  1233  1  0.09397500  0.21412300  0.77802200  1
  O  1261  1  0.01941200  0.23432000  0.46232000  1
  O  1265  1  0.09397000  0.21990300  0.40748900  1
  O  1293  1  0.51940200  0.48071100  0.23615900  1
  O  1297  1  0.59396000  0.42587200  0.19576300  1
  O  1325  1  0.51942700  0.76173700  0.21586800  1
  O  1329  1  0.59407200  0.80209700  0.20144700  1
  O  1357  1  0.51937700  0.78211300  0.51728200  1
  O  1361  1  0.59394400  0.79646000  0.57209300  1
  O  1389  1  0.72272200  0.70365600  0.13222600  1
  O  1393  1  0.74883800  0.72618500  0.07972600  1
  O  1421  1  0.72296300  0.45515500  0.29425400  1
  O  1425  1  0.74889500  0.38005900  0.27162400  1
  O  1453  1  0.72296200  0.86566500  0.54274700  1
  O  1457  1  0.74891500  0.91813600  0.61782100  1
  O  1485  1  0.22295000  0.31260200  0.84723400  1
  O  1489  1  0.24902600  0.29004400  0.89976700  1
  O  1517  1  0.22295900  0.56117000  0.68527700  1
  O  1521  1  0.24894200  0.63621900  0.70786300  1
  O  1549  1  0.22294000  0.15065400  0.43674400  1
  O  1553  1  0.24893000  0.09818300  0.36168900  1
  O  1581  1  0.25589100  0.56131500  0.84752900  1
  O  1585  1  0.23152800  0.63585800  0.89939600  1
  O  1613  1  0.25615300  0.15043600  0.68516300  1
  O  1617  1  0.23124200  0.09849800  0.70793600  1
  O  1645  1  0.25609000  0.31264400  0.43655900  1
  O  1649  1  0.23134600  0.29007800  0.36195400  1
  O  1677  1  0.75589800  0.45498200  0.13203800  1
  O  1681  1  0.73142700  0.38036100  0.08010400  1
  O  1709  1  0.75591400  0.86587800  0.29434000  1
  O  1713  1  0.73138100  0.91782200  0.27167500  1
  O  1741  1  0.75594200  0.70364800  0.54295400  1
  O  1745  1  0.73123500  0.72628500  0.61760000  1
  O  1773  1  0.95369300  0.57645400  0.95164600  1
  O  1777  1  0.98242100  0.65551400  0.99163300  1
  O  1805  1  0.95353100  0.40222000  0.42161400  1
  O  1809  1  0.98226700  0.36266300  0.34246100  1
  O  1837  1  0.95354000  0.04600500  0.59574600  1
  O  1841  1  0.98223500  0.00632000  0.63522600  1
  O  1869  1  0.45349400  0.43998400  0.02750000  1
  O  1873  1  0.48222100  0.36082800  0.98790200  1
  O  1901  1  0.45351800  0.61405100  0.55790300  1
  O  1905  1  0.48222900  0.65362500  0.63706800  1
  O  1933  1  0.45351300  0.97039700  0.38384400  1
  O  1937  1  0.48223700  0.01001900  0.34431300  1
  O  1965  1  0.02579300  0.43976400  0.02761700  1
  O  1969  1  0.99637700  0.36106700  0.98793200  1
  O  1997  1  0.02578800  0.61439600  0.55815500  1
  O  2001  1  0.99639300  0.65340200  0.63685200  1
  O  2029  1  0.02578400  0.97030400  0.38353400  1
  O  2033  1  0.99638100  0.00997600  0.34450600  1
  O  2061  1  0.52577200  0.57651600  0.95189100  1
  O  2065  1  0.49639900  0.65520400  0.99153300  1
  O  2093  1  0.52575600  0.40195900  0.42140000  1
  O  2097  1  0.49638700  0.36289700  0.34268300  1
  O  2125  1  0.52484300  0.04699900  0.59702100  1
  O  2129  1  0.49606900  0.00635900  0.63511100  1
  O  2157  1  0.00365600  0.56049700  0.12281100  1
  O  2161  1  0.90421900  0.59244300  0.15145300  1
  O  2189  1  0.00370500  0.58878600  0.43751400  1
  O  2193  1  0.90449600  0.58585100  0.40552200  1
  O  2221  1  0.00362000  0.87510000  0.40906400  1
  O  2225  1  0.90416600  0.84649100  0.41237300  1
  O  2253  1  0.50364600  0.45580700  0.85672700  1
  O  2257  1  0.40421000  0.42389000  0.82807200  1
  O  2285  1  0.50362700  0.42745500  0.54207800  1
  O  2289  1  0.40421500  0.43073900  0.57404200  1
  O  2317  1  0.50366000  0.14119200  0.57044600  1
  O  2321  1  0.40421200  0.16983500  0.56720500  1
  O  2349  1  0.97539600  0.42772500  0.85666800  1
  O  2353  1  0.07464000  0.43147400  0.82823000  1
  O  2381  1  0.97541200  0.14123500  0.54242400  1
  O  2385  1  0.07464300  0.16971500  0.57460900  1
  O  2413  1  0.97538800  0.45549500  0.57019600  1
  O  2417  1  0.07464500  0.42332600  0.56648300  1
  O  2445  1  0.47536100  0.58854300  0.12268300  1
  O  2449  1  0.57436100  0.58513500  0.15156500  1
  O  2477  1  0.47542900  0.87506500  0.43710900  1
  O  2481  1  0.57468200  0.84662200  0.40493000  1
  O  2509  1  0.47540700  0.56080600  0.40932900  1
  O  2513  1  0.57463500  0.59299700  0.41304200  1
