# generated using pymatgen
data_H45C72N7
_symmetry_space_group_name_H-M   'P 1'
_cell_length_a   38.46328146
_cell_length_b   38.47854393
_cell_length_c   59.81820000
_cell_angle_alpha   90.00731836
_cell_angle_beta   90.00732126
_cell_angle_gamma   119.82040490
_symmetry_Int_Tables_number   1
_chemical_formula_structural   H45C72N7
_chemical_formula_sum   'H360 C576 N56'
_cell_volume   76808.98575705
_cell_formula_units_Z   8
loop_
 _symmetry_equiv_pos_site_id
 _symmetry_equiv_pos_as_xyz
  1  'x, y, z'
loop_
 _atom_site_type_symbol
 _atom_site_label
 _atom_site_symmetry_multiplicity
 _atom_site_fract_x
 _atom_site_fract_y
 _atom_site_fract_z
 _atom_site_occupancy
  C  1  1  0.08616400  0.90091700  0.10535400  1
  C  2  1  0.05050800  0.96320200  0.16701950  1
  C  3  1  0.10901050  0.87763450  0.18380950  1
  C  4  1  0.06907200  0.99026400  0.18496050  1
  C  5  1  0.05050300  0.00970400  0.19515100  1
  C  6  1  0.01335450  0.00365850  0.18732900  1
  C  7  1  0.99543550  0.97843550  0.16871800  1
  C  8  1  0.01396700  0.95863000  0.15862450  1
  C  9  1  0.05054300  0.88475300  0.09257850  1
  C  10  1  0.05122250  0.87888350  0.06943050  1
  C  11  1  0.08765300  0.88991800  0.05842550  1
  C  12  1  0.12326350  0.90528750  0.07113550  1
  C  13  1  0.12242550  0.91031950  0.09441750  1
  C  14  1  0.14854850  0.88403950  0.18354200  1
  C  15  1  0.16281850  0.87051550  0.20129100  1
  C  16  1  0.13776250  0.84993450  0.21965000  1
  C  17  1  0.09763550  0.84140750  0.21924500  1
  C  18  1  0.08351600  0.85530400  0.20166100  1
  C  30  1  0.09612000  0.89594600  0.16760950  1
  C  31  1  0.09943450  0.89103650  0.14445050  1
  C  32  1  0.08525350  0.90826650  0.12857150  1
  C  33  1  0.06893850  0.93201250  0.13618200  1
  C  34  1  0.06660250  0.93889650  0.15920650  1
  C  35  1  0.07983050  0.91998650  0.17460550  1
  C  43  1  0.87132400  0.13683500  0.10545850  1
  C  44  1  0.91061550  0.07568350  0.16655650  1
  C  45  1  0.85433750  0.16267350  0.18452900  1
  C  46  1  0.89246500  0.04886900  0.18463700  1
  C  47  1  0.91153600  0.02998800  0.19489900  1
  C  48  1  0.94866800  0.03619500  0.18694000  1
  C  49  1  0.96610800  0.06109600  0.16816400  1
  C  50  1  0.94712000  0.08041300  0.15801600  1
  C  51  1  0.90319100  0.14518000  0.09059150  1
  C  52  1  0.90012000  0.15130300  0.06768000  1
  C  53  1  0.86499350  0.14918150  0.05897800  1
  C  54  1  0.83343300  0.14186900  0.07365600  1
  C  55  1  0.83651350  0.13557050  0.09658800  1
  C  56  1  0.81495600  0.15670600  0.18418900  1
  C  57  1  0.80071400  0.17016000  0.20196200  1
  C  58  1  0.82560600  0.19013700  0.22048100  1
  C  59  1  0.86556900  0.19813600  0.22022500  1
  C  60  1  0.87968150  0.18434650  0.20257900  1
  C  72  1  0.86699200  0.14447600  0.16812600  1
  C  73  1  0.86270500  0.14911100  0.14505750  1
  C  74  1  0.87470300  0.13056600  0.12872200  1
  C  75  1  0.89065650  0.10628650  0.13607150  1
  C  76  1  0.89463700  0.10023500  0.15903700  1
  C  77  1  0.88302550  0.12006150  0.17474900  1
  C  85  1  0.86517100  0.12480000  0.95468900  1
  C  86  1  0.92448800  0.08877100  0.89167300  1
  C  87  1  0.83757650  0.14640650  0.87649950  1
  C  88  1  0.95070500  0.10699300  0.87336500  1
  C  89  1  0.97021150  0.08855350  0.86310100  1
  C  90  1  0.96498600  0.05187300  0.87117850  1
  C  91  1  0.94054900  0.03427200  0.89009300  1
  C  92  1  0.92074800  0.05270800  0.90028950  1
  C  93  1  0.85604100  0.09116700  0.96825300  1
  C  94  1  0.85380650  0.09312150  0.99161250  1
  C  95  1  0.86009950  0.12857850  0.00207250  1
  C  96  1  0.86793700  0.16196100  0.98868650  1
  C  97  1  0.87027250  0.15999150  0.96524850  1
  C  98  1  0.84460650  0.18615550  0.87669600  1
  C  99  1  0.83094300  0.20052300  0.85905300  1
  C  100  1  0.80968900  0.17538800  0.84084300  1
  C  101  1  0.80054750  0.13508850  0.84133400  1
  C  102  1  0.81453250  0.12085350  0.85882350  1
  C  114  1  0.85645050  0.13353350  0.89236350  1
  C  115  1  0.85248650  0.13692450  0.91563150  1
  C  116  1  0.87084500  0.12338200  0.93120500  1
  C  117  1  0.89485500  0.10774700  0.92298450  1
  C  118  1  0.90038300  0.10483200  0.89985650  1
  C  119  1  0.88043650  0.11749150  0.88485750  1
  C  127  1  0.09955600  0.91465600  0.95486200  1
  C  128  1  0.03750150  0.95004550  0.89293850  1
  C  129  1  0.12326350  0.89165950  0.87650050  1
  C  130  1  0.01048150  0.93143450  0.87498300  1
  C  131  1  0.99156550  0.95026150  0.86448400  1
  C  132  1  0.99806900  0.98771500  0.87202100  1
  C  133  1  0.02308000  0.00560800  0.89071750  1
  C  134  1  0.04241450  0.98684250  0.90109600  1
  C  135  1  0.11536700  0.95019000  0.96768350  1
  C  136  1  0.12057550  0.94937850  0.99089550  1
  C  137  1  0.10928600  0.91292200  0.00192400  1
  C  138  1  0.09440000  0.87742800  0.98914400  1
  C  139  1  0.09002000  0.87838900  0.96581200  1
  C  140  1  0.11672500  0.85209000  0.87668600  1
  C  141  1  0.13041000  0.83793800  0.85895450  1
  C  142  1  0.15129000  0.86315900  0.84070750  1
  C  143  1  0.15997050  0.90331350  0.84121100  1
  C  144  1  0.14589350  0.91730450  0.85876850  1
  C  156  1  0.10478400  0.90447000  0.89263500  1
  C  157  1  0.10964250  0.90126950  0.91581100  1
  C  158  1  0.09239400  0.91556500  0.93161550  1
  C  159  1  0.06861300  0.93178900  0.92391000  1
  C  160  1  0.06172100  0.93392900  0.90086750  1
  C  161  1  0.08069900  0.92065400  0.88554400  1
  C  337  1  0.14267550  0.73767650  0.32923800  1
  C  338  1  0.12236650  0.70455050  0.34284650  1
  C  339  1  0.14541000  0.71039800  0.36200200  1
  C  341  1  0.17878350  0.76444150  0.33966000  1
  C  342  1  0.20814000  0.80202900  0.33074550  1
  C  343  1  0.24486250  0.82941950  0.34128100  1
  C  345  1  0.29509500  0.85784500  0.36612200  1
  C  346  1  0.30475500  0.88388900  0.34798800  1
  C  347  1  0.27400050  0.86627450  0.33263700  1
  C  348  1  0.31866500  0.86474800  0.38566700  1
  C  349  1  0.30746500  0.83726200  0.40378600  1
  C  351  1  0.27415250  0.78316150  0.42603950  1
  C  352  1  0.30890600  0.81104600  0.43717100  1
  C  353  1  0.32941350  0.84401650  0.42349850  1
  C  354  1  0.24489250  0.74545750  0.43483200  1
  C  355  1  0.20868450  0.71764050  0.42405550  1
  C  357  1  0.15852150  0.68922350  0.39928500  1
  C  358  1  0.14851100  0.66355100  0.41763150  1
  C  359  1  0.17952250  0.68089350  0.43279900  1
  C  360  1  0.13450050  0.68267850  0.37998600  1
  C  361  1  0.09705250  0.64601050  0.37890650  1
  C  362  1  0.09591250  0.60925750  0.37491050  1
  C  363  1  0.05957450  0.57269550  0.37622850  1
  C  364  1  0.02303100  0.57165400  0.38120950  1
  C  365  1  0.02440800  0.60868800  0.38496500  1
  C  366  1  0.06080200  0.64526700  0.38392600  1
  C  367  1  0.25011950  0.73632150  0.45716950  1
  C  368  1  0.27502100  0.72006500  0.46229150  1
  C  369  1  0.27894100  0.71049700  0.48453800  1
  C  370  1  0.25742500  0.71649100  0.50179500  1
  C  371  1  0.23231450  0.73245950  0.49659000  1
  C  372  1  0.22889900  0.74254300  0.47449850  1
  C  373  1  0.35534250  0.90207450  0.38737450  1
  C  374  1  0.35733100  0.93390300  0.40014950  1
  C  375  1  0.39301300  0.97114800  0.40116650  1
  C  376  1  0.42784000  0.97784500  0.38946700  1
  C  377  1  0.42551100  0.94582000  0.37658800  1
  C  378  1  0.38995200  0.90843900  0.37569250  1
  C  379  1  0.20029900  0.81330800  0.30947900  1
  C  380  1  0.18571800  0.84045300  0.30794500  1
  C  381  1  0.20868250  0.79887750  0.28965200  1
  C  382  1  0.20289250  0.81161250  0.26862900  1
  C  383  1  0.18851700  0.83888900  0.26712200  1
  C  384  1  0.17997150  0.85323350  0.28693200  1
  C  411  1  0.26173700  0.70971300  0.52399050  1
  C  412  1  0.46188850  0.01602450  0.38961900  1
  C  413  1  0.18478400  0.85289600  0.24665000  1
  C  414  1  0.98673000  0.53582000  0.38382300  1
  C  419  1  0.81932350  0.30112450  0.32961450  1
  C  420  1  0.83972600  0.33434300  0.34313550  1
  C  421  1  0.81655700  0.32892700  0.36218500  1
  C  423  1  0.78302250  0.27474950  0.33997850  1
  C  424  1  0.75347550  0.23725450  0.33107350  1
  C  425  1  0.71671500  0.21006800  0.34161000  1
  C  427  1  0.66666850  0.18187450  0.36653450  1
  C  428  1  0.65672750  0.15582950  0.34837150  1
  C  429  1  0.68738650  0.17330350  0.33296700  1
  C  430  1  0.64335300  0.17507400  0.38616850  1
  C  431  1  0.65487650  0.20259250  0.40430050  1
  C  433  1  0.68845450  0.25683450  0.42646850  1
  C  434  1  0.65398100  0.22885700  0.43777000  1
  C  435  1  0.63328550  0.19583450  0.42414300  1
  C  436  1  0.71762300  0.29475800  0.43510400  1
  C  437  1  0.75366250  0.32260950  0.42420000  1
  C  439  1  0.80357850  0.35081250  0.39928850  1
  C  440  1  0.81333350  0.37715550  0.41728550  1
  C  441  1  0.78251050  0.35985650  0.43258850  1
  C  442  1  0.82749600  0.35694600  0.38002250  1
  C  443  1  0.86472200  0.39368700  0.37853050  1
  C  444  1  0.86564200  0.42933900  0.37178000  1
  C  445  1  0.90227800  0.46554000  0.37010300  1
  C  446  1  0.93889300  0.46696300  0.37513600  1
  C  447  1  0.93794500  0.43124800  0.38181750  1
  C  448  1  0.90127100  0.39510900  0.38369050  1
  C  449  1  0.71252050  0.30411850  0.45742550  1
  C  450  1  0.68705800  0.31972500  0.46254900  1
  C  451  1  0.68287600  0.32908600  0.48479900  1
  C  452  1  0.70461150  0.32347550  0.50208750  1
  C  453  1  0.73031950  0.30820950  0.49687700  1
  C  454  1  0.73402900  0.29835800  0.47477300  1
  C  455  1  0.60660300  0.13782300  0.38790900  1
  C  456  1  0.60460650  0.10583850  0.40052450  1
  C  457  1  0.56894900  0.06854800  0.40138100  1
  C  458  1  0.53417650  0.06195150  0.38965350  1
  C  459  1  0.53650750  0.09414550  0.37694850  1
  C  460  1  0.57203050  0.13156650  0.37621900  1
  C  461  1  0.76132400  0.22576200  0.30988800  1
  C  462  1  0.77586450  0.19857050  0.30853600  1
  C  463  1  0.75341350  0.24036650  0.28997950  1
  C  464  1  0.75964900  0.22774800  0.26903300  1
  C  465  1  0.77400550  0.20043850  0.26771100  1
  C  466  1  0.78204400  0.18589800  0.28760150  1
  C  493  1  0.70001550  0.33007850  0.52429000  1
  C  494  1  0.50013900  0.02375600  0.38963750  1
  C  495  1  0.77824500  0.18659100  0.24732100  1
  C  496  1  0.97535150  0.50189750  0.37215450  1
  C  501  1  0.69947700  0.18148900  0.73112550  1
  C  502  1  0.66624500  0.16110100  0.71759950  1
  C  503  1  0.67175000  0.18415800  0.69849250  1
  C  505  1  0.72595950  0.21769250  0.72072300  1
  C  506  1  0.76353400  0.24715600  0.72961850  1
  C  507  1  0.79072000  0.28385200  0.71901550  1
  C  509  1  0.81885450  0.33384450  0.69403850  1
  C  510  1  0.84498250  0.34378650  0.71216750  1
  C  511  1  0.82754750  0.31317750  0.72760000  1
  C  512  1  0.82563050  0.35713750  0.67439450  1
  C  513  1  0.79810300  0.34561600  0.65625950  1
  C  515  1  0.74387900  0.31199600  0.63406900  1
  C  516  1  0.77178700  0.34654900  0.62280550  1
  C  517  1  0.80480050  0.36726050  0.63644450  1
  C  518  1  0.70602400  0.28274800  0.62538600  1
  C  519  1  0.67819750  0.24673150  0.63631100  1
  C  521  1  0.64996950  0.19693750  0.66128750  1
  C  522  1  0.62370550  0.18704450  0.64323100  1
  C  523  1  0.64100650  0.21779750  0.62789600  1
  C  524  1  0.64377550  0.17313750  0.68061250  1
  C  525  1  0.60700400  0.13592000  0.68210300  1
  C  526  1  0.57117100  0.13505400  0.68843300  1
  C  527  1  0.53492500  0.09844300  0.69003750  1
  C  528  1  0.53362600  0.06178400  0.68535450  1
  C  529  1  0.56951600  0.06267900  0.67908500  1
  C  530  1  0.60569850  0.09932450  0.67728100  1
  C  531  1  0.69659700  0.28790000  0.60308500  1
  C  532  1  0.68091100  0.31331200  0.59802000  1
  C  533  1  0.67148600  0.31753500  0.57578900  1
  C  534  1  0.67711850  0.29590150  0.55845500  1
  C  535  1  0.69249350  0.27026750  0.56360400  1
  C  536  1  0.70238650  0.26649650  0.58569100  1
  C  537  1  0.86287550  0.39389850  0.67263500  1
  C  538  1  0.89485100  0.39594400  0.65997300  1
  C  539  1  0.93210100  0.43164200  0.65904900  1
  C  540  1  0.93867900  0.46641400  0.67075350  1
  C  541  1  0.90649850  0.46403450  0.68350600  1
  C  542  1  0.86911550  0.42846450  0.68430700  1
  C  543  1  0.77514700  0.23925700  0.75079050  1
  C  544  1  0.80276750  0.22522250  0.75206300  1
  C  545  1  0.76025250  0.24657650  0.77077900  1
  C  546  1  0.77299850  0.24028550  0.79168900  1
  C  547  1  0.80079600  0.22651300  0.79292200  1
  C  548  1  0.81563450  0.21907950  0.77295500  1
  C  575  1  0.67047050  0.30058050  0.53626150  1
  C  576  1  0.97687200  0.50046800  0.67074450  1
  C  577  1  0.81496000  0.22232100  0.81325000  1
  C  578  1  0.49863300  0.02534500  0.68827350  1
  C  583  1  0.26321000  0.85778300  0.73109250  1
  C  584  1  0.29633600  0.87806100  0.71747400  1
  C  585  1  0.29039800  0.85507600  0.69828600  1
  C  587  1  0.23636500  0.82173200  0.72065500  1
  C  588  1  0.19871500  0.79245500  0.72955550  1
  C  589  1  0.17128900  0.75574800  0.71902150  1
  C  591  1  0.14282750  0.70549950  0.69419700  1
  C  592  1  0.11674800  0.69591000  0.71231250  1
  C  593  1  0.13437350  0.72668050  0.72764650  1
  C  594  1  0.13590200  0.68190600  0.67466300  1
  C  595  1  0.16340550  0.69305450  0.65654900  1
  C  597  1  0.21749350  0.72633950  0.63426950  1
  C  598  1  0.18963450  0.69152750  0.62317950  1
  C  599  1  0.15668600  0.67102300  0.63687500  1
  C  600  1  0.25516150  0.75562950  0.62544200  1
  C  601  1  0.28293900  0.79190700  0.63616500  1
  C  603  1  0.31139350  0.84208650  0.66091450  1
  C  604  1  0.33694400  0.85217800  0.64250200  1
  C  605  1  0.31959500  0.82114300  0.62735450  1
  C  606  1  0.31803800  0.86604700  0.68024800  1
  C  607  1  0.35470050  0.90351050  0.68129600  1
  C  608  1  0.39152100  0.90468700  0.68516300  1
  C  609  1  0.42805500  0.94105800  0.68384750  1
  C  610  1  0.42899000  0.97759400  0.67905200  1
  C  611  1  0.39189800  0.97617900  0.67541700  1
  C  612  1  0.35534150  0.93975650  0.67644600  1
  C  613  1  0.26421750  0.75041850  0.60308250  1
  C  614  1  0.28070600  0.72573400  0.59793350  1
  C  615  1  0.29026050  0.72187250  0.57567450  1
  C  616  1  0.28400650  0.74322450  0.55842950  1
  C  617  1  0.26780200  0.76811600  0.56366000  1
  C  618  1  0.25773300  0.77146900  0.58576500  1
  C  619  1  0.09856050  0.64523550  0.67297250  1
  C  620  1  0.06671900  0.64320800  0.66017900  1
  C  621  1  0.02946250  0.60753050  0.65917400  1
  C  622  1  0.02276300  0.57274500  0.67090300  1
  C  623  1  0.05480450  0.57511050  0.68379450  1
  C  624  1  0.09219800  0.61066300  0.68467750  1
  C  625  1  0.18728600  0.80047100  0.75073750  1
  C  626  1  0.15995000  0.81485400  0.75205250  1
  C  627  1  0.20172400  0.79247900  0.77069000  1
  C  628  1  0.18881000  0.79845700  0.79161650  1
  C  629  1  0.16127500  0.81255000  0.79289300  1
  C  630  1  0.14690700  0.82068300  0.77296150  1
  C  657  1  0.29086350  0.73904150  0.53623750  1
  C  658  1  0.98457600  0.53869400  0.67076950  1
  C  659  1  0.14696650  0.81640950  0.81323500  1
  C  660  1  0.46479850  0.01392750  0.67649200  1
  C  993  1  0.38779500  0.96221200  0.10535400  1
  C  994  1  0.35213900  0.02449700  0.16701950  1
  C  995  1  0.41064150  0.93892950  0.18380950  1
  C  996  1  0.37070300  0.05155900  0.18496050  1
  C  997  1  0.35213400  0.07099900  0.19515100  1
  C  998  1  0.31498550  0.06495350  0.18732900  1
  C  999  1  0.29706650  0.03973050  0.16871800  1
  C  1000  1  0.31559800  0.01992500  0.15862450  1
  C  1001  1  0.35217400  0.94604800  0.09257850  1
  C  1002  1  0.35285350  0.94017850  0.06943050  1
  C  1003  1  0.38928400  0.95121300  0.05842550  1
  C  1004  1  0.42489450  0.96658250  0.07113550  1
  C  1005  1  0.42405650  0.97161450  0.09441750  1
  C  1006  1  0.45017950  0.94533450  0.18354200  1
  C  1007  1  0.46444950  0.93181050  0.20129100  1
  C  1008  1  0.43939350  0.91122950  0.21965000  1
  C  1009  1  0.39926650  0.90270250  0.21924500  1
  C  1010  1  0.38514700  0.91659900  0.20166100  1
  C  1022  1  0.39775100  0.95724100  0.16760950  1
  C  1023  1  0.40106550  0.95233150  0.14445050  1
  C  1024  1  0.38688450  0.96956150  0.12857150  1
  C  1025  1  0.37056950  0.99330750  0.13618200  1
  C  1026  1  0.36823350  0.00019150  0.15920650  1
  C  1027  1  0.38146150  0.98128150  0.17460550  1
  C  1035  1  0.17295500  0.19813000  0.10545850  1
  C  1036  1  0.21224675  0.13697825  0.16655650  1
  C  1037  1  0.15596850  0.22396850  0.18452900  1
  C  1038  1  0.19409625  0.11016375  0.18463700  1
  C  1039  1  0.21316725  0.09128275  0.19489900  1
  C  1040  1  0.25029925  0.09748975  0.18694000  1
  C  1041  1  0.26773925  0.12239075  0.16816400  1
  C  1042  1  0.24875125  0.14170775  0.15801600  1
  C  1043  1  0.20482200  0.20647500  0.09059150  1
  C  1044  1  0.20175100  0.21259800  0.06768000  1
  C  1045  1  0.16662450  0.21047650  0.05897800  1
  C  1046  1  0.13506400  0.20316400  0.07365600  1
  C  1047  1  0.13814450  0.19686550  0.09658800  1
  C  1048  1  0.11658700  0.21800100  0.18418900  1
  C  1049  1  0.10234500  0.23145500  0.20196200  1
  C  1050  1  0.12723700  0.25143200  0.22048100  1
  C  1051  1  0.16720000  0.25943100  0.22022500  1
  C  1052  1  0.18131250  0.24564150  0.20257900  1
  C  1064  1  0.16862300  0.20577100  0.16812600  1
  C  1065  1  0.16433600  0.21040600  0.14505750  1
  C  1066  1  0.17633400  0.19186100  0.12872200  1
  C  1067  1  0.19228775  0.16758125  0.13607150  1
  C  1068  1  0.19626825  0.16152975  0.15903700  1
  C  1069  1  0.18465674  0.18135626  0.17474900  1
  C  1077  1  0.16680200  0.18609500  0.95468900  1
  C  1078  1  0.22611925  0.15006575  0.89167300  1
  C  1079  1  0.13920750  0.20770150  0.87649950  1
  C  1080  1  0.25233625  0.16828775  0.87336500  1
  C  1081  1  0.27184275  0.14984825  0.86310100  1
  C  1082  1  0.26661725  0.11316775  0.87117850  1
  C  1083  1  0.24218025  0.09556675  0.89009300  1
  C  1084  1  0.22237925  0.11400275  0.90028950  1
  C  1085  1  0.15767224  0.15246176  0.96825300  1
  C  1086  1  0.15543774  0.15441626  0.99161250  1
  C  1087  1  0.16173050  0.18987350  0.00207250  1
  C  1088  1  0.16956800  0.22325600  0.98868650  1
  C  1089  1  0.17190350  0.22128650  0.96524850  1
  C  1090  1  0.14623750  0.24745050  0.87669600  1
  C  1091  1  0.13257400  0.26181800  0.85905300  1
  C  1092  1  0.11132000  0.23668300  0.84084300  1
  C  1093  1  0.10217850  0.19638350  0.84133400  1
  C  1094  1  0.11616350  0.18214850  0.85882350  1
  C  1106  1  0.15808150  0.19482850  0.89236350  1
  C  1107  1  0.15411750  0.19821950  0.91563150  1
  C  1108  1  0.17247600  0.18467700  0.93120500  1
  C  1109  1  0.19648625  0.16904175  0.92298450  1
  C  1110  1  0.20201425  0.16612675  0.89985650  1
  C  1111  1  0.18206774  0.17878626  0.88485750  1
  C  1119  1  0.40118700  0.97595100  0.95486200  1
  C  1120  1  0.33913250  0.01134050  0.89293850  1
  C  1121  1  0.42489450  0.95295450  0.87650050  1
  C  1122  1  0.31211250  0.99272950  0.87498300  1
  C  1123  1  0.29319650  0.01155650  0.86448400  1
  C  1124  1  0.29970000  0.04901000  0.87202100  1
  C  1125  1  0.32471100  0.06690300  0.89071750  1
  C  1126  1  0.34404550  0.04813750  0.90109600  1
  C  1127  1  0.41699800  0.01148500  0.96768350  1
  C  1128  1  0.42220650  0.01067350  0.99089550  1
  C  1129  1  0.41091700  0.97421700  0.00192400  1
  C  1130  1  0.39603100  0.93872300  0.98914400  1
  C  1131  1  0.39165100  0.93968400  0.96581200  1
  C  1132  1  0.41835600  0.91338500  0.87668600  1
  C  1133  1  0.43204100  0.89923300  0.85895450  1
  C  1134  1  0.45292100  0.92445400  0.84070750  1
  C  1135  1  0.46160150  0.96460850  0.84121100  1
  C  1136  1  0.44752450  0.97859950  0.85876850  1
  C  1148  1  0.40641500  0.96576500  0.89263500  1
  C  1149  1  0.41127350  0.96256450  0.91581100  1
  C  1150  1  0.39402500  0.97686000  0.93161550  1
  C  1151  1  0.37024400  0.99308400  0.92391000  1
  C  1152  1  0.36335200  0.99522400  0.90086750  1
  C  1153  1  0.38233000  0.98194900  0.88554400  1
  C  1329  1  0.44430650  0.79897150  0.32923800  1
  C  1330  1  0.42399765  0.76584565  0.34284650  1
  C  1331  1  0.44704100  0.77169300  0.36200200  1
  C  1333  1  0.48041450  0.82573650  0.33966000  1
  C  1334  1  0.50977100  0.86332400  0.33074550  1
  C  1335  1  0.54649350  0.89071450  0.34128100  1
  C  1337  1  0.59672600  0.91914000  0.36612200  1
  C  1338  1  0.60638600  0.94518400  0.34798800  1
  C  1339  1  0.57563150  0.92756950  0.33263700  1
  C  1340  1  0.62029600  0.92604300  0.38566700  1
  C  1341  1  0.60909600  0.89855700  0.40378600  1
  C  1343  1  0.57578350  0.84445650  0.42603950  1
  C  1344  1  0.61053700  0.87234100  0.43717100  1
  C  1345  1  0.63104450  0.90531150  0.42349850  1
  C  1346  1  0.54652350  0.80675250  0.43483200  1
  C  1347  1  0.51031550  0.77893550  0.42405550  1
  C  1349  1  0.46015250  0.75051850  0.39928500  1
  C  1350  1  0.45014215  0.72484615  0.41763150  1
  C  1351  1  0.48115350  0.74218850  0.43279900  1
  C  1352  1  0.43613165  0.74397365  0.37998600  1
  C  1353  1  0.39868365  0.70730565  0.37890650  1
  C  1354  1  0.39754365  0.67055265  0.37491050  1
  C  1355  1  0.36120550  0.63399050  0.37622850  1
  C  1356  1  0.32466200  0.63294900  0.38120950  1
  C  1357  1  0.32603900  0.66998300  0.38496500  1
  C  1358  1  0.36243315  0.70656215  0.38392600  1
  C  1359  1  0.55175050  0.79761650  0.45716950  1
  C  1360  1  0.57665200  0.78136000  0.46229150  1
  C  1361  1  0.58057200  0.77179200  0.48453800  1
  C  1362  1  0.55905600  0.77778600  0.50179500  1
  C  1363  1  0.53394550  0.79375450  0.49659000  1
  C  1364  1  0.53053000  0.80383800  0.47449850  1
  C  1365  1  0.65697350  0.96336950  0.38737450  1
  C  1366  1  0.65896200  0.99519800  0.40014950  1
  C  1367  1  0.69464400  0.03244300  0.40116650  1
  C  1368  1  0.72947100  0.03914000  0.38946700  1
  C  1369  1  0.72714200  0.00711500  0.37658800  1
  C  1370  1  0.69158300  0.96973400  0.37569250  1
  C  1371  1  0.50193000  0.87460300  0.30947900  1
  C  1372  1  0.48734900  0.90174800  0.30794500  1
  C  1373  1  0.51031350  0.86017250  0.28965200  1
  C  1374  1  0.50452350  0.87290750  0.26862900  1
  C  1375  1  0.49014800  0.90018400  0.26712200  1
  C  1376  1  0.48160250  0.91452850  0.28693200  1
  C  1403  1  0.56336800  0.77100800  0.52399050  1
  C  1404  1  0.76351950  0.07731950  0.38961900  1
  C  1405  1  0.48641500  0.91419100  0.24665000  1
  C  1406  1  0.28836100  0.59711500  0.38382300  1
  C  1411  1  0.12095450  0.36241950  0.32961450  1
  C  1412  1  0.14135700  0.39563800  0.34313550  1
  C  1413  1  0.11818800  0.39022200  0.36218500  1
  C  1415  1  0.08465350  0.33604450  0.33997850  1
  C  1416  1  0.05510650  0.29854950  0.33107350  1
  C  1417  1  0.01834600  0.27136300  0.34161000  1
  C  1419  1  0.96829950  0.24316950  0.36653450  1
  C  1420  1  0.95835865  0.21712465  0.34837150  1
  C  1421  1  0.98901750  0.23459850  0.33296700  1
  C  1422  1  0.94498415  0.23636915  0.38616850  1
  C  1423  1  0.95650750  0.26388750  0.40430050  1
  C  1425  1  0.99008550  0.31812950  0.42646850  1
  C  1426  1  0.95561200  0.29015200  0.43777000  1
  C  1427  1  0.93491665  0.25712965  0.42414300  1
  C  1428  1  0.01925400  0.35605300  0.43510400  1
  C  1429  1  0.05529350  0.38390450  0.42420000  1
  C  1431  1  0.10520950  0.41210750  0.39928850  1
  C  1432  1  0.11496450  0.43845050  0.41728550  1
  C  1433  1  0.08414150  0.42115150  0.43258850  1
  C  1434  1  0.12912700  0.41824100  0.38002250  1
  C  1435  1  0.16635300  0.45498200  0.37853050  1
  C  1436  1  0.16727300  0.49063400  0.37178000  1
  C  1437  1  0.20390900  0.52683500  0.37010300  1
  C  1438  1  0.24052400  0.52825800  0.37513600  1
  C  1439  1  0.23957600  0.49254300  0.38181750  1
  C  1440  1  0.20290200  0.45640400  0.38369050  1
  C  1441  1  0.01415150  0.36541350  0.45742550  1
  C  1442  1  0.98868900  0.38102000  0.46254900  1
  C  1443  1  0.98450700  0.39038100  0.48479900  1
  C  1444  1  0.00624250  0.38477050  0.50208750  1
  C  1445  1  0.03195050  0.36950450  0.49687700  1
  C  1446  1  0.03566000  0.35965300  0.47477300  1
  C  1447  1  0.90823415  0.19911815  0.38790900  1
  C  1448  1  0.90623765  0.16713365  0.40052450  1
  C  1449  1  0.87058013  0.12984313  0.40138100  1
  C  1450  1  0.83580750  0.12324650  0.38965350  1
  C  1451  1  0.83813850  0.15544050  0.37694850  1
  C  1452  1  0.87366165  0.19286165  0.37621900  1
  C  1453  1  0.06295500  0.28705700  0.30988800  1
  C  1454  1  0.07749550  0.25986550  0.30853600  1
  C  1455  1  0.05504450  0.30166150  0.28997950  1
  C  1456  1  0.06128000  0.28904300  0.26903300  1
  C  1457  1  0.07563650  0.26173350  0.26771100  1
  C  1458  1  0.08367500  0.24719300  0.28760150  1
  C  1485  1  0.00164650  0.39137350  0.52429000  1
  C  1486  1  0.80177000  0.08505100  0.38963750  1
  C  1487  1  0.07987600  0.24788600  0.24732100  1
  C  1488  1  0.27698250  0.56319250  0.37215450  1
  C  1493  1  0.00110800  0.24278400  0.73112550  1
  C  1494  1  0.96787615  0.22239615  0.71759950  1
  C  1495  1  0.97338100  0.24545300  0.69849250  1
  C  1497  1  0.02759050  0.27898750  0.72072300  1
  C  1498  1  0.06516500  0.30845100  0.72961850  1
  C  1499  1  0.09235100  0.34514700  0.71901550  1
  C  1501  1  0.12048550  0.39513950  0.69403850  1
  C  1502  1  0.14661350  0.40508150  0.71216750  1
  C  1503  1  0.12917850  0.37447250  0.72760000  1
  C  1504  1  0.12726150  0.41843250  0.67439450  1
  C  1505  1  0.09973400  0.40691100  0.65625950  1
  C  1507  1  0.04551000  0.37329100  0.63406900  1
  C  1508  1  0.07341800  0.40784400  0.62280550  1
  C  1509  1  0.10643150  0.42855550  0.63644450  1
  C  1510  1  0.00765500  0.34404300  0.62538600  1
  C  1511  1  0.97982850  0.30802650  0.63631100  1
  C  1513  1  0.95160050  0.25823250  0.66128750  1
  C  1514  1  0.92533665  0.24833965  0.64323100  1
  C  1515  1  0.94263750  0.27909250  0.62789600  1
  C  1516  1  0.94540665  0.23443265  0.68061250  1
  C  1517  1  0.90863515  0.19721515  0.68210300  1
  C  1518  1  0.87280215  0.19634915  0.68843300  1
  C  1519  1  0.83655600  0.15973800  0.69003750  1
  C  1520  1  0.83525700  0.12307900  0.68535450  1
  C  1521  1  0.87114700  0.12397400  0.67908500  1
  C  1522  1  0.90732965  0.16061965  0.67728100  1
  C  1523  1  0.99822800  0.34919500  0.60308500  1
  C  1524  1  0.98254200  0.37460700  0.59802000  1
  C  1525  1  0.97311700  0.37883000  0.57578900  1
  C  1526  1  0.97874950  0.35719650  0.55845500  1
  C  1527  1  0.99412450  0.33156250  0.56360400  1
  C  1528  1  0.00401750  0.32779150  0.58569100  1
  C  1529  1  0.16450650  0.45519350  0.67263500  1
  C  1530  1  0.19648200  0.45723900  0.65997300  1
  C  1531  1  0.23373200  0.49293700  0.65904900  1
  C  1532  1  0.24031000  0.52770900  0.67075350  1
  C  1533  1  0.20812950  0.52532950  0.68350600  1
  C  1534  1  0.17074650  0.48975950  0.68430700  1
  C  1535  1  0.07677800  0.30055200  0.75079050  1
  C  1536  1  0.10439850  0.28651750  0.75206300  1
  C  1537  1  0.06188350  0.30787150  0.77077900  1
  C  1538  1  0.07462950  0.30158050  0.79168900  1
  C  1539  1  0.10242700  0.28780800  0.79292200  1
  C  1540  1  0.11726550  0.28037450  0.77295500  1
  C  1567  1  0.97210150  0.36187550  0.53626150  1
  C  1568  1  0.27850300  0.56176300  0.67074450  1
  C  1569  1  0.11659100  0.28361600  0.81325000  1
  C  1570  1  0.80026400  0.08664000  0.68827350  1
  C  1575  1  0.56484100  0.91907800  0.73109250  1
  C  1576  1  0.59796700  0.93935600  0.71747400  1
  C  1577  1  0.59202900  0.91637100  0.69828600  1
  C  1579  1  0.53799600  0.88302700  0.72065500  1
  C  1580  1  0.50034600  0.85375000  0.72955550  1
  C  1581  1  0.47292000  0.81704300  0.71902150  1
  C  1583  1  0.44445850  0.76679450  0.69419700  1
  C  1584  1  0.41837915  0.75720515  0.71231250  1
  C  1585  1  0.43600450  0.78797550  0.72764650  1
  C  1586  1  0.43753315  0.74320115  0.67466300  1
  C  1587  1  0.46503650  0.75434950  0.65654900  1
  C  1589  1  0.51912450  0.78763450  0.63426950  1
  C  1590  1  0.49126550  0.75282250  0.62317950  1
  C  1591  1  0.45831715  0.73231815  0.63687500  1
  C  1592  1  0.55679250  0.81692450  0.62544200  1
  C  1593  1  0.58457000  0.85320200  0.63616500  1
  C  1595  1  0.61302450  0.90338150  0.66091450  1
  C  1596  1  0.63857500  0.91347300  0.64250200  1
  C  1597  1  0.62122600  0.88243800  0.62735450  1
  C  1598  1  0.61966900  0.92734200  0.68024800  1
  C  1599  1  0.65633150  0.96480550  0.68129600  1
  C  1600  1  0.69315200  0.96598200  0.68516300  1
  C  1601  1  0.72968600  0.00235300  0.68384750  1
  C  1602  1  0.73062100  0.03888900  0.67905200  1
  C  1603  1  0.69352900  0.03747400  0.67541700  1
  C  1604  1  0.65697250  0.00105150  0.67644600  1
  C  1605  1  0.56584850  0.81171350  0.60308250  1
  C  1606  1  0.58233700  0.78702900  0.59793350  1
  C  1607  1  0.59189150  0.78316750  0.57567450  1
  C  1608  1  0.58563750  0.80451950  0.55842950  1
  C  1609  1  0.56943300  0.82941100  0.56366000  1
  C  1610  1  0.55936400  0.83276400  0.58576500  1
  C  1611  1  0.40019165  0.70653065  0.67297250  1
  C  1612  1  0.36835015  0.70450315  0.66017900  1
  C  1613  1  0.33109350  0.66882550  0.65917400  1
  C  1614  1  0.32439400  0.63404000  0.67090300  1
  C  1615  1  0.35643550  0.63640550  0.68379450  1
  C  1616  1  0.39382915  0.67195815  0.68467750  1
  C  1617  1  0.48891700  0.86176600  0.75073750  1
  C  1618  1  0.46158100  0.87614900  0.75205250  1
  C  1619  1  0.50335500  0.85377400  0.77069000  1
  C  1620  1  0.49044100  0.85975200  0.79161650  1
  C  1621  1  0.46290600  0.87384500  0.79289300  1
  C  1622  1  0.44853800  0.88197800  0.77296150  1
  C  1649  1  0.59249450  0.80033650  0.53623750  1
  C  1650  1  0.28620700  0.59998900  0.67076950  1
  C  1651  1  0.44859750  0.87770450  0.81323500  1
  C  1652  1  0.76642950  0.07522250  0.67649200  1
  H  19  1  0.96740500  0.97178900  0.16362250  1
  H  20  1  0.99883600  0.93832000  0.14622450  1
  H  21  1  0.06336100  0.02666100  0.20914000  1
  H  22  1  0.14877350  0.92247650  0.10316400  1
  H  23  1  0.02375700  0.87734200  0.10000800  1
  H  24  1  0.02514450  0.86815950  0.06052000  1
  H  25  1  0.15004050  0.91366550  0.06343750  1
  H  26  1  0.16805250  0.90073150  0.17112900  1
  H  27  1  0.07885200  0.82671200  0.23233800  1
  H  28  1  0.05466000  0.84992600  0.20234800  1
  H  29  1  0.19203600  0.87707100  0.20104550  1
  H  36  1  0.05956000  0.94537600  0.12471700  1
  H  37  1  0.11045300  0.87307100  0.13912950  1
  H  38  1  0.07748300  0.92370800  0.19139000  1
  H  39  1  0.09549250  0.99462350  0.19157650  1
  H  61  1  0.99417100  0.06798300  0.16299800  1
  H  62  1  0.96190400  0.10058500  0.14550450  1
  H  63  1  0.89910400  0.01343600  0.20906300  1
  H  64  1  0.81257800  0.12912400  0.10668700  1
  H  65  1  0.92925250  0.14732650  0.09633600  1
  H  66  1  0.92355300  0.15702300  0.05732050  1
  H  67  1  0.80763800  0.13999900  0.06764750  1
  H  68  1  0.79553750  0.14051050  0.17162300  1
  H  69  1  0.88421000  0.21238500  0.23344650  1
  H  70  1  0.90840950  0.18937250  0.20333300  1
  H  71  1  0.77163850  0.16405250  0.20158700  1
  H  78  1  0.89841100  0.09171500  0.12450350  1
  H  79  1  0.85199200  0.16752600  0.14012250  1
  H  80  1  0.88612450  0.11651950  0.19146950  1
  H  81  1  0.86625350  0.04470350  0.19145850  1
  H  103  1  0.93460350  0.00660750  0.89545550  1
  H  104  1  0.90105800  0.03784500  0.91298550  1
  H  105  1  0.98665800  0.10116400  0.84892850  1
  H  106  1  0.87776250  0.18518850  0.95605950  1
  H  107  1  0.85177600  0.06504000  0.96127300  1
  H  108  1  0.84860700  0.06870900  0.00097100  1
  H  109  1  0.87367800  0.18835800  0.99595650  1
  H  110  1  0.86184200  0.20569900  0.88896800  1
  H  111  1  0.78543100  0.11626900  0.82832550  1
  H  112  1  0.80888500  0.09191900  0.85812500  1
  H  113  1  0.83799150  0.22988250  0.85919350  1
  H  120  1  0.90953200  0.09926500  0.93408250  1
  H  121  1  0.83446850  0.14766250  0.92126700  1
  H  122  1  0.88342500  0.11499000  0.86800700  1
  H  123  1  0.95446300  0.13308200  0.86661150  1
  H  145  1  0.03025400  0.03390900  0.89554650  1
  H  146  1  0.06277450  0.00203450  0.91346700  1
  H  147  1  0.97484450  0.93745050  0.85041550  1
  H  148  1  0.07803400  0.85208500  0.95704100  1
  H  149  1  0.12282850  0.97697550  0.96025200  1
  H  150  1  0.13092800  0.97538800  0.99982050  1
  H  151  1  0.08579150  0.85059550  0.99681900  1
  H  152  1  0.09981450  0.83249250  0.88901300  1
  H  153  1  0.17482200  0.92217700  0.82817550  1
  H  154  1  0.15130800  0.94616500  0.85812750  1
  H  155  1  0.12374050  0.80869350  0.85909750  1
  H  162  1  0.05519450  0.94121050  0.93531600  1
  H  163  1  0.12764600  0.89033600  0.92119900  1
  H  164  1  0.07703800  0.92292800  0.86874450  1
  H  165  1  0.00596350  0.90487750  0.86850500  1
  H  385  1  0.17011300  0.87352000  0.28624750  1
  H  386  1  0.17992800  0.85165400  0.32210500  1
  H  387  1  0.20971100  0.80119100  0.25449750  1
  H  388  1  0.21967350  0.77952950  0.29040200  1
  H  389  1  0.13235500  0.74109700  0.31412400  1
  H  390  1  0.09518350  0.68030150  0.33908150  1
  H  391  1  0.20029200  0.75868700  0.36985000  1
  H  392  1  0.25465250  0.78723050  0.39487050  1
  H  393  1  0.27334650  0.87889750  0.31772750  1
  H  394  1  0.32983950  0.91127150  0.34599100  1
  H  395  1  0.33260250  0.93032550  0.40858350  1
  H  396  1  0.39313300  0.99362800  0.41039550  1
  H  397  1  0.38921450  0.88610750  0.36604350  1
  H  398  1  0.44948000  0.94961700  0.36729200  1
  H  399  1  0.35585950  0.86887650  0.42766650  1
  H  400  1  0.31823100  0.80844800  0.45276450  1
  H  401  1  0.12285550  0.63678950  0.42002250  1
  H  402  1  0.17990300  0.66857400  0.44786900  1
  H  403  1  0.29054700  0.71532200  0.44990450  1
  H  404  1  0.29756300  0.69932800  0.48803750  1
  H  405  1  0.21063150  0.75420750  0.47114350  1
  H  406  1  0.21682500  0.73758400  0.50887400  1
  H  407  1  0.06079850  0.67132350  0.38737950  1
  H  408  1  0.99886450  0.60936350  0.38897600  1
  H  409  1  0.06039750  0.54672750  0.37415150  1
  H  410  1  0.12185400  0.60878100  0.37182650  1
  H  415  1  0.23738950  0.68834850  0.53160300  1
  H  416  1  0.45720150  0.03922550  0.39010200  1
  H  417  1  0.20911450  0.87503350  0.23959400  1
  H  418  1  0.96754800  0.53568600  0.39506800  1
  H  467  1  0.79192850  0.16562350  0.28703150  1
  H  468  1  0.78140350  0.18733650  0.32276500  1
  H  469  1  0.75323950  0.23832750  0.25482300  1
  H  470  1  0.74256850  0.25984350  0.29061150  1
  H  471  1  0.82965600  0.29746600  0.31456500  1
  H  472  1  0.86702450  0.35839850  0.33935500  1
  H  473  1  0.76125900  0.28122900  0.36990850  1
  H  474  1  0.70729250  0.25280750  0.39511400  1
  H  475  1  0.68787800  0.16065200  0.31803300  1
  H  476  1  0.63155600  0.12850500  0.34639950  1
  H  477  1  0.62932500  0.10931800  0.40893000  1
  H  478  1  0.56881950  0.04595250  0.41049300  1
  H  479  1  0.57281100  0.15397000  0.36662250  1
  H  480  1  0.51260250  0.09041650  0.36760700  1
  H  481  1  0.60699350  0.17091350  0.42843400  1
  H  482  1  0.64487550  0.23147950  0.45341600  1
  H  483  1  0.83864100  0.40436700  0.41929050  1
  H  484  1  0.78186600  0.37266100  0.44743950  1
  H  485  1  0.67125300  0.32406900  0.45016400  1
  H  486  1  0.66383250  0.33975750  0.48828500  1
  H  487  1  0.75261400  0.28706000  0.47143450  1
  H  488  1  0.74594550  0.30331450  0.50917600  1
  H  489  1  0.90145550  0.36969250  0.38855100  1
  H  490  1  0.96399000  0.43121300  0.38533050  1
  H  491  1  0.90203650  0.49071150  0.36479100  1
  H  492  1  0.83962150  0.42909350  0.36783550  1
  H  497  1  0.72426350  0.35102850  0.53216400  1
  H  498  1  0.50483250  0.00055350  0.39001400  1
  H  499  1  0.75408600  0.16448700  0.24010100  1
  H  500  1  0.99370250  0.50111850  0.36072350  1
  H  549  1  0.83621850  0.20957750  0.77343700  1
  H  550  1  0.81421900  0.22007400  0.73779750  1
  H  551  1  0.76221200  0.24630900  0.80594400  1
  H  552  1  0.74048800  0.25707800  0.77023350  1
  H  553  1  0.70311250  0.17116150  0.74618050  1
  H  554  1  0.64215550  0.13384450  0.72139800  1
  H  555  1  0.71960650  0.23927350  0.69068700  1
  H  556  1  0.74804050  0.29303650  0.66537100  1
  H  557  1  0.84025150  0.31273350  0.74252600  1
  H  558  1  0.87233100  0.36894500  0.71410400  1
  H  559  1  0.89138650  0.37123750  0.65157000  1
  H  560  1  0.95469750  0.43179250  0.64991700  1
  H  561  1  0.84670700  0.42767100  0.69391300  1
  H  562  1  0.91021000  0.48793600  0.69283300  1
  H  563  1  0.82966500  0.39362300  0.63218300  1
  H  564  1  0.76913700  0.35568000  0.60717250  1
  H  565  1  0.59652700  0.16170100  0.64121200  1
  H  566  1  0.62824550  0.21833550  0.61300600  1
  H  567  1  0.67654800  0.32904700  0.61043600  1
  H  568  1  0.66076400  0.33655200  0.57234950  1
  H  569  1  0.71373750  0.24794450  0.58898250  1
  H  570  1  0.69738650  0.25469950  0.55127200  1
  H  571  1  0.63122500  0.09909300  0.67269700  1
  H  572  1  0.56964300  0.03661600  0.67582050  1
  H  573  1  0.50961750  0.09874150  0.69503550  1
  H  574  1  0.57130700  0.16110500  0.69210650  1
  H  579  1  0.64949800  0.27625800  0.52845750  1
  H  580  1  0.00010200  0.49580600  0.67034450  1
  H  581  1  0.83912750  0.24577050  0.81958800  1
  H  582  1  0.49930600  0.00698600  0.69973400  1
  H  631  1  0.12648450  0.83038950  0.77348150  1
  H  632  1  0.14872800  0.82035300  0.73780450  1
  H  633  1  0.19922350  0.79190750  0.80584550  1
  H  634  1  0.22121400  0.78164200  0.77010200  1
  H  635  1  0.25983400  0.86809600  0.74621800  1
  H  636  1  0.32061800  0.90521800  0.72123800  1
  H  637  1  0.24198650  0.80030450  0.69040750  1
  H  638  1  0.21336600  0.74598900  0.66538250  1
  H  639  1  0.12175400  0.72735000  0.74255700  1
  H  640  1  0.08933350  0.67086250  0.71430800  1
  H  641  1  0.07029350  0.66790650  0.65172600  1
  H  642  1  0.00696950  0.60738650  0.64993700  1
  H  643  1  0.11452800  0.61142800  0.69434950  1
  H  644  1  0.05100150  0.55117450  0.69311700  1
  H  645  1  0.13181950  0.64456850  0.63272400  1
  H  646  1  0.19224300  0.68215900  0.60760150  1
  H  647  1  0.36369750  0.87783550  0.64009050  1
  H  648  1  0.33186500  0.82078300  0.61226200  1
  H  649  1  0.28564900  0.71033900  0.61031250  1
  H  650  1  0.30162650  0.70342550  0.57216000  1
  H  651  1  0.24591550  0.78959250  0.58914050  1
  H  652  1  0.26251500  0.78350300  0.55138800  1
  H  653  1  0.32922750  0.93973350  0.67310000  1
  H  654  1  0.39115500  0.00173300  0.67155000  1
  H  655  1  0.45407750  0.94029350  0.68585450  1
  H  656  1  0.39206350  0.87875750  0.68812650  1
  H  661  1  0.31209500  0.76338200  0.52855550  1
  H  662  1  0.96135300  0.54336300  0.67030450  1
  H  663  1  0.12349000  0.79254200  0.81977950  1
  H  664  1  0.46497850  0.03306450  0.66520800  1
  H  1011  1  0.26903600  0.03308400  0.16362250  1
  H  1012  1  0.30046700  0.99961500  0.14622450  1
  H  1013  1  0.36499200  0.08795600  0.20914000  1
  H  1014  1  0.45040450  0.98377150  0.10316400  1
  H  1015  1  0.32538800  0.93863700  0.10000800  1
  H  1016  1  0.32677550  0.92945450  0.06052000  1
  H  1017  1  0.45167150  0.97496050  0.06343750  1
  H  1018  1  0.46968350  0.96202650  0.17112900  1
  H  1019  1  0.38048300  0.88800700  0.23233800  1
  H  1020  1  0.35629100  0.91122100  0.20234800  1
  H  1021  1  0.49366700  0.93836600  0.20104550  1
  H  1028  1  0.36119100  0.00667100  0.12471700  1
  H  1029  1  0.41208400  0.93436600  0.13912950  1
  H  1030  1  0.37911400  0.98500300  0.19139000  1
  H  1031  1  0.39712350  0.05591850  0.19157650  1
  H  1053  1  0.29580225  0.12927775  0.16299800  1
  H  1054  1  0.26353525  0.16187975  0.14550450  1
  H  1055  1  0.20073525  0.07473075  0.20906300  1
  H  1056  1  0.11420900  0.19041900  0.10668700  1
  H  1057  1  0.23088375  0.20862125  0.09633600  1
  H  1058  1  0.22518424  0.21831776  0.05732050  1
  H  1059  1  0.10926900  0.20129400  0.06764750  1
  H  1060  1  0.09716850  0.20180550  0.17162300  1
  H  1061  1  0.18584100  0.27368000  0.23344650  1
  H  1062  1  0.21004050  0.25066750  0.20333300  1
  H  1063  1  0.07326950  0.22534750  0.20158700  1
  H  1070  1  0.20004225  0.15300975  0.12450350  1
  H  1071  1  0.15362300  0.22882100  0.14012250  1
  H  1072  1  0.18775574  0.17781426  0.19146950  1
  H  1073  1  0.16788475  0.10599825  0.19145850  1
  H  1095  1  0.23623475  0.06790225  0.89545550  1
  H  1096  1  0.20268925  0.09913975  0.91298550  1
  H  1097  1  0.28828925  0.16245875  0.84892850  1
  H  1098  1  0.17939350  0.24648350  0.95605950  1
  H  1099  1  0.15340725  0.12633475  0.96127300  1
  H  1100  1  0.15023825  0.13000375  0.00097100  1
  H  1101  1  0.17530900  0.24965300  0.99595650  1
  H  1102  1  0.16347300  0.26699400  0.88896800  1
  H  1103  1  0.08706200  0.17756400  0.82832550  1
  H  1104  1  0.11051600  0.15321400  0.85812500  1
  H  1105  1  0.13962250  0.29117750  0.85919350  1
  H  1112  1  0.21116325  0.16055975  0.93408250  1
  H  1113  1  0.13609950  0.20895750  0.92126700  1
  H  1114  1  0.18505624  0.17628476  0.86800700  1
  H  1115  1  0.25609425  0.19437675  0.86661150  1
  H  1137  1  0.33188500  0.09520400  0.89554650  1
  H  1138  1  0.36440550  0.06332950  0.91346700  1
  H  1139  1  0.27647550  0.99874550  0.85041550  1
  H  1140  1  0.37966500  0.91338000  0.95704100  1
  H  1141  1  0.42445950  0.03827050  0.96025200  1
  H  1142  1  0.43255900  0.03668300  0.99982050  1
  H  1143  1  0.38742250  0.91189050  0.99681900  1
  H  1144  1  0.40144550  0.89378750  0.88901300  1
  H  1145  1  0.47645300  0.98347200  0.82817550  1
  H  1146  1  0.45293900  0.00746000  0.85812750  1
  H  1147  1  0.42537150  0.86998850  0.85909750  1
  H  1154  1  0.35682550  0.00250550  0.93531600  1
  H  1155  1  0.42927700  0.95163100  0.92119900  1
  H  1156  1  0.37866900  0.98422300  0.86874450  1
  H  1157  1  0.30759450  0.96617250  0.86850500  1
  H  1377  1  0.47174400  0.93481500  0.28624750  1
  H  1378  1  0.48155900  0.91294900  0.32210500  1
  H  1379  1  0.51134200  0.86248600  0.25449750  1
  H  1380  1  0.52130450  0.84082450  0.29040200  1
  H  1381  1  0.43398600  0.80239200  0.31412400  1
  H  1382  1  0.39681465  0.74159665  0.33908150  1
  H  1383  1  0.50192300  0.81998200  0.36985000  1
  H  1384  1  0.55628350  0.84852550  0.39487050  1
  H  1385  1  0.57497750  0.94019250  0.31772750  1
  H  1386  1  0.63147050  0.97256650  0.34599100  1
  H  1387  1  0.63423350  0.99162050  0.40858350  1
  H  1388  1  0.69476400  0.05492300  0.41039550  1
  H  1389  1  0.69084550  0.94740250  0.36604350  1
  H  1390  1  0.75111100  0.01091200  0.36729200  1
  H  1391  1  0.65749050  0.93017150  0.42766650  1
  H  1392  1  0.61986200  0.86974300  0.45276450  1
  H  1393  1  0.42448665  0.69808465  0.42002250  1
  H  1394  1  0.48153400  0.72986900  0.44786900  1
  H  1395  1  0.59217800  0.77661700  0.44990450  1
  H  1396  1  0.59919400  0.76062300  0.48803750  1
  H  1397  1  0.51226250  0.81550250  0.47114350  1
  H  1398  1  0.51845600  0.79887900  0.50887400  1
  H  1399  1  0.36242965  0.73261865  0.38737950  1
  H  1400  1  0.30049550  0.67065850  0.38897600  1
  H  1401  1  0.36202850  0.60802250  0.37415150  1
  H  1402  1  0.42348515  0.67007615  0.37182650  1
  H  1407  1  0.53902050  0.74964350  0.53160300  1
  H  1408  1  0.75883250  0.10052050  0.39010200  1
  H  1409  1  0.51074550  0.93632850  0.23959400  1
  H  1410  1  0.26917900  0.59698100  0.39506800  1
  H  1459  1  0.09355950  0.22691850  0.28703150  1
  H  1460  1  0.08303450  0.24863150  0.32276500  1
  H  1461  1  0.05487050  0.29962250  0.25482300  1
  H  1462  1  0.04419950  0.32113850  0.29061150  1
  H  1463  1  0.13128700  0.35876100  0.31456500  1
  H  1464  1  0.16865550  0.41969350  0.33935500  1
  H  1465  1  0.06289000  0.34252400  0.36990850  1
  H  1466  1  0.00892350  0.31410250  0.39511400  1
  H  1467  1  0.98950900  0.22194700  0.31803300  1
  H  1468  1  0.93318715  0.18980015  0.34639950  1
  H  1469  1  0.93095615  0.17061315  0.40893000  1
  H  1470  1  0.87045050  0.10724750  0.41049300  1
  H  1471  1  0.87444215  0.21526515  0.36662250  1
  H  1472  1  0.81423350  0.15171150  0.36760700  1
  H  1473  1  0.90862465  0.23220865  0.42843400  1
  H  1474  1  0.94650650  0.29277450  0.45341600  1
  H  1475  1  0.14027200  0.46566200  0.41929050  1
  H  1476  1  0.08349700  0.43395600  0.44743950  1
  H  1477  1  0.97288400  0.38536400  0.45016400  1
  H  1478  1  0.96546350  0.40105250  0.48828500  1
  H  1479  1  0.05424500  0.34835500  0.47143450  1
  H  1480  1  0.04757650  0.36460950  0.50917600  1
  H  1481  1  0.20308650  0.43098750  0.38855100  1
  H  1482  1  0.26562100  0.49250800  0.38533050  1
  H  1483  1  0.20366750  0.55200650  0.36479100  1
  H  1484  1  0.14125250  0.49038850  0.36783550  1
  H  1489  1  0.02589450  0.41232350  0.53216400  1
  H  1490  1  0.80646350  0.06184850  0.39001400  1
  H  1491  1  0.05571700  0.22578200  0.24010100  1
  H  1492  1  0.29533350  0.56241350  0.36072350  1
  H  1541  1  0.13784950  0.27087250  0.77343700  1
  H  1542  1  0.11585000  0.28136900  0.73779750  1
  H  1543  1  0.06384300  0.30760400  0.80594400  1
  H  1544  1  0.04211900  0.31837300  0.77023350  1
  H  1545  1  0.00474350  0.23245650  0.74618050  1
  H  1546  1  0.94378665  0.19513965  0.72139800  1
  H  1547  1  0.02123750  0.30056850  0.69068700  1
  H  1548  1  0.04967150  0.35433150  0.66537100  1
  H  1549  1  0.14188250  0.37402850  0.74252600  1
  H  1550  1  0.17396200  0.43024000  0.71410400  1
  H  1551  1  0.19301750  0.43253250  0.65157000  1
  H  1552  1  0.25632850  0.49308750  0.64991700  1
  H  1553  1  0.14833800  0.48896600  0.69391300  1
  H  1554  1  0.21184100  0.54923100  0.69283300  1
  H  1555  1  0.13129600  0.45491800  0.63218300  1
  H  1556  1  0.07076800  0.41697500  0.60717250  1
  H  1557  1  0.89815815  0.22299615  0.64121200  1
  H  1558  1  0.92987650  0.27963050  0.61300600  1
  H  1559  1  0.97817900  0.39034200  0.61043600  1
  H  1560  1  0.96239500  0.39784700  0.57234950  1
  H  1561  1  0.01536850  0.30923950  0.58898250  1
  H  1562  1  0.99901750  0.31599450  0.55127200  1
  H  1563  1  0.93285615  0.16038815  0.67269700  1
  H  1564  1  0.87127400  0.09791100  0.67582050  1
  H  1565  1  0.81124850  0.16003650  0.69503550  1
  H  1566  1  0.87293815  0.22240015  0.69210650  1
  H  1571  1  0.95112900  0.33755300  0.52845750  1
  H  1572  1  0.30173300  0.55710100  0.67034450  1
  H  1573  1  0.14075850  0.30706550  0.81958800  1
  H  1574  1  0.80093700  0.06828100  0.69973400  1
  H  1623  1  0.42811550  0.89168450  0.77348150  1
  H  1624  1  0.45035900  0.88164800  0.73780450  1
  H  1625  1  0.50085450  0.85320250  0.80584550  1
  H  1626  1  0.52284500  0.84293700  0.77010200  1
  H  1627  1  0.56146500  0.92939100  0.74621800  1
  H  1628  1  0.62224900  0.96651300  0.72123800  1
  H  1629  1  0.54361750  0.86159950  0.69040750  1
  H  1630  1  0.51499700  0.80728400  0.66538250  1
  H  1631  1  0.42338500  0.78864500  0.74255700  1
  H  1632  1  0.39096465  0.73215765  0.71430800  1
  H  1633  1  0.37192465  0.72920165  0.65172600  1
  H  1634  1  0.30860050  0.66868150  0.64993700  1
  H  1635  1  0.41615915  0.67272315  0.69434950  1
  H  1636  1  0.35263250  0.61246950  0.69311700  1
  H  1637  1  0.43345065  0.70586365  0.63272400  1
  H  1638  1  0.49387400  0.74345400  0.60760150  1
  H  1639  1  0.66532850  0.93913050  0.64009050  1
  H  1640  1  0.63349600  0.88207800  0.61226200  1
  H  1641  1  0.58728000  0.77163400  0.61031250  1
  H  1642  1  0.60325750  0.76472050  0.57216000  1
  H  1643  1  0.54754650  0.85088750  0.58914050  1
  H  1644  1  0.56414600  0.84479800  0.55138800  1
  H  1645  1  0.63085850  0.00102850  0.67310000  1
  H  1646  1  0.69278600  0.06302800  0.67155000  1
  H  1647  1  0.75570850  0.00158850  0.68585450  1
  H  1648  1  0.69369450  0.94005250  0.68812650  1
  H  1653  1  0.61372600  0.82467700  0.52855550  1
  H  1654  1  0.26298400  0.60465800  0.67030450  1
  H  1655  1  0.42512100  0.85383700  0.81977950  1
  H  1656  1  0.76660950  0.09435950  0.66520800  1
  N  40  1  0.14983000  0.83984100  0.23812000  1
  N  41  1  0.08670600  0.88749300  0.03639450  1
  N  42  1  0.99359300  0.01474900  0.20089550  1
  N  82  1  0.81336550  0.20003150  0.23894900  1
  N  83  1  0.86135900  0.15342400  0.03735000  1
  N  84  1  0.96912000  0.02634100  0.20075050  1
  N  124  1  0.79961100  0.18760300  0.82240850  1
  N  125  1  0.86198100  0.12942100  0.02411650  1
  N  126  1  0.97640500  0.03221800  0.85773600  1
  N  166  1  0.16148500  0.85117300  0.82224250  1
  N  167  1  0.11069200  0.91382800  0.02400600  1
  N  168  1  0.98821200  0.00791900  0.85803550  1
  N  340  1  0.17881650  0.74670450  0.35922250  1
  N  344  1  0.25896000  0.82575900  0.36131900  1
  N  350  1  0.27492800  0.80020600  0.40609350  1
  N  356  1  0.19478800  0.72116900  0.40394600  1
  N  422  1  0.78298700  0.29275100  0.35944000  1
  N  426  1  0.70286000  0.21382100  0.36170000  1
  N  432  1  0.68738150  0.23972250  0.40648850  1
  N  438  1  0.76761450  0.31865350  0.40420850  1
  N  504  1  0.70797650  0.21768350  0.70123250  1
  N  508  1  0.78689900  0.29768400  0.69892550  1
  N  514  1  0.76101700  0.31305700  0.65404200  1
  N  520  1  0.68210250  0.23290850  0.65635750  1
  N  586  1  0.25406450  0.82170250  0.70107550  1
  N  590  1  0.17496150  0.74159950  0.69900350  1
  N  596  1  0.20044200  0.72561300  0.65420800  1
  N  602  1  0.27949050  0.80576450  0.65630350  1
  N  1032  1  0.45146100  0.90113600  0.23812000  1
  N  1033  1  0.38833700  0.94878800  0.03639450  1
  N  1034  1  0.29522400  0.07604400  0.20089550  1
  N  1074  1  0.11499650  0.26132650  0.23894900  1
  N  1075  1  0.16299000  0.21471900  0.03735000  1
  N  1076  1  0.27075125  0.08763575  0.20075050  1
  N  1116  1  0.10124200  0.24889800  0.82240850  1
  N  1117  1  0.16361200  0.19071600  0.02411650  1
  N  1118  1  0.27803625  0.09351275  0.85773600  1
  N  1158  1  0.46311600  0.91246800  0.82224250  1
  N  1159  1  0.41232300  0.97512300  0.02400600  1
  N  1160  1  0.28984300  0.06921400  0.85803550  1
  N  1332  1  0.48044750  0.80799950  0.35922250  1
  N  1336  1  0.56059100  0.88705400  0.36131900  1
  N  1342  1  0.57655900  0.86150100  0.40609350  1
  N  1348  1  0.49641900  0.78246400  0.40394600  1
  N  1414  1  0.08461800  0.35404600  0.35944000  1
  N  1418  1  0.00449100  0.27511600  0.36170000  1
  N  1424  1  0.98901250  0.30101750  0.40648850  1
  N  1430  1  0.06924550  0.37994850  0.40420850  1
  N  1496  1  0.00960750  0.27897850  0.70123250  1
  N  1500  1  0.08853000  0.35897900  0.69892550  1
  N  1506  1  0.06264800  0.37435200  0.65404200  1
  N  1512  1  0.98373350  0.29420350  0.65635750  1
  N  1578  1  0.55569550  0.88299750  0.70107550  1
  N  1582  1  0.47659250  0.80289450  0.69900350  1
  N  1588  1  0.50207300  0.78690800  0.65420800  1
  N  1594  1  0.58112150  0.86705950  0.65630350  1
