# generated using pymatgen
data_H36C39(N4O)2
_symmetry_space_group_name_H-M   'P 1'
_cell_length_a   27.26370000
_cell_length_b   56.19370000
_cell_length_c   56.19370000
_cell_angle_alpha   120.00000000
_cell_angle_beta   90.00000000
_cell_angle_gamma   90.00000000
_symmetry_Int_Tables_number   1
_chemical_formula_structural   H36C39(N4O)2
_chemical_formula_sum   'H432 C468 N96 O24'
_cell_volume   74557.38771863
_cell_formula_units_Z   12
loop_
 _symmetry_equiv_pos_site_id
 _symmetry_equiv_pos_as_xyz
  1  'x, y, z'
loop_
 _atom_site_type_symbol
 _atom_site_label
 _atom_site_symmetry_multiplicity
 _atom_site_fract_x
 _atom_site_fract_y
 _atom_site_fract_z
 _atom_site_occupancy
  H  26  1  0.70970000  0.51797700  0.33520900  1
  H  27  1  0.68930300  0.53700000  0.38258400  1
  H  28  1  0.85927200  0.53327500  0.35582700  1
  H  29  1  0.83923900  0.55340200  0.40325600  1
  H  30  1  0.80805500  0.60184400  0.44002700  1
  H  31  1  0.78852700  0.64668400  0.44851200  1
  H  32  1  0.63862400  0.62604500  0.43702600  1
  H  33  1  0.65796300  0.58075700  0.42724200  1
  H  34  1  0.68013900  0.57584700  0.47033100  1
  H  35  1  0.61549300  0.55169900  0.47745400  1
  H  36  1  0.66345300  0.47780600  0.40916400  1
  H  37  1  0.72687500  0.50198900  0.40117200  1
  H  38  1  0.81612900  0.51725300  0.41842300  1
  H  39  1  0.77110100  0.59455500  0.48326500  1
  H  40  1  0.83479900  0.59296100  0.51141700  1
  H  45  1  0.88089700  0.51642200  0.44623700  1
  H  46  1  0.66737800  0.66975000  0.44357100  1
  H  47  1  0.81674300  0.49371900  0.30666400  1
  H  48  1  0.91130000  0.57263200  0.51383500  1
  H  49  1  0.58702300  0.47981800  0.43109000  1
  H  75  1  0.70971000  0.81869700  0.48317700  1
  H  76  1  0.68930900  0.84707300  0.46418400  1
  H  77  1  0.85926800  0.82397800  0.46782500  1
  H  78  1  0.83922300  0.85130400  0.44772700  1
  H  79  1  0.80805500  0.83969300  0.39930900  1
  H  80  1  0.78854400  0.80332200  0.35447600  1
  H  81  1  0.63865600  0.81240200  0.37513900  1
  H  82  1  0.65798800  0.84792300  0.42041900  1
  H  83  1  0.68008200  0.89593800  0.42531700  1
  H  84  1  0.61544500  0.92721200  0.44946900  1
  H  85  1  0.66350800  0.93287400  0.52337000  1
  H  86  1  0.72691900  0.90069400  0.49918200  1
  H  87  1  0.81616800  0.90261900  0.48390600  1
  H  88  1  0.77105300  0.89023600  0.40664700  1
  H  89  1  0.83472900  0.92000000  0.40825500  1
  H  94  1  0.88091400  0.93128300  0.48475100  1
  H  95  1  0.66741700  0.77525700  0.33142900  1
  H  96  1  0.81676600  0.81436200  0.50738400  1
  H  97  1  0.91126200  0.94272100  0.42856800  1
  H  98  1  0.58704100  0.95276700  0.52136300  1
  H  124  1  0.70974300  0.66595200  0.18244700  1
  H  125  1  0.68932600  0.61858400  0.15407600  1
  H  126  1  0.85928000  0.64529500  0.17722600  1
  H  127  1  0.83921600  0.59787300  0.14990900  1
  H  128  1  0.80804500  0.56105100  0.16147900  1
  H  129  1  0.78853100  0.55261300  0.19786500  1
  H  130  1  0.63865400  0.56426400  0.18882200  1
  H  131  1  0.65799600  0.57399900  0.15328600  1
  H  132  1  0.68000500  0.53087100  0.10528400  1
  H  133  1  0.61539700  0.52374800  0.07399400  1
  H  134  1  0.66362300  0.59191800  0.06825300  1
  H  135  1  0.72700400  0.59991200  0.10045100  1
  H  136  1  0.81622700  0.58273100  0.09858100  1
  H  137  1  0.77094800  0.51785900  0.11092600  1
  H  138  1  0.83460100  0.48967700  0.08116200  1
  H  143  1  0.88096100  0.55489000  0.06992000  1
  H  144  1  0.66740500  0.55769200  0.22596500  1
  H  145  1  0.81681800  0.69447300  0.18680500  1
  H  146  1  0.91114400  0.48722900  0.05843600  1
  H  147  1  0.58714000  0.57004100  0.04836500  1
  H  173  1  0.20963900  0.48383300  0.66531100  1
  H  174  1  0.18928600  0.46486700  0.61794100  1
  H  175  1  0.35918200  0.46833300  0.64470300  1
  H  176  1  0.33917700  0.44824800  0.59727600  1
  H  177  1  0.30809900  0.39987400  0.56037300  1
  H  178  1  0.28858600  0.35504700  0.55193100  1
  H  179  1  0.13872000  0.37575900  0.56366000  1
  H  180  1  0.15805700  0.42103400  0.57340500  1
  H  181  1  0.17995100  0.42587000  0.53025900  1
  H  182  1  0.11533700  0.45003500  0.52313600  1
  H  183  1  0.16368000  0.52396900  0.59123500  1
  H  184  1  0.22706800  0.49977000  0.59923200  1
  H  185  1  0.31634800  0.48444800  0.58214800  1
  H  186  1  0.27090700  0.40729400  0.51722900  1
  H  187  1  0.33458100  0.40887100  0.48905300  1
  H  192  1  0.38110100  0.48525800  0.55431100  1
  H  193  1  0.16747300  0.33204300  0.55706800  1
  H  194  1  0.31666700  0.50794200  0.69389000  1
  H  195  1  0.41117000  0.42911500  0.48661100  1
  H  196  1  0.08716800  0.52197900  0.56938500  1
  H  222  1  0.20969000  0.18291700  0.51727300  1
  H  223  1  0.18932200  0.15453800  0.53626700  1
  H  224  1  0.35922900  0.17782400  0.53279700  1
  H  225  1  0.33921000  0.15050000  0.55290300  1
  H  226  1  0.30818700  0.16192800  0.60126500  1
  H  227  1  0.28875500  0.19832800  0.64609800  1
  H  228  1  0.13887800  0.18947300  0.62542400  1
  H  229  1  0.15813400  0.15392500  0.58014400  1
  H  230  1  0.17991000  0.10592700  0.57531400  1
  H  231  1  0.11526000  0.07465200  0.55116300  1
  H  232  1  0.16368000  0.06873100  0.47720200  1
  H  233  1  0.22709800  0.10090900  0.50138700  1
  H  234  1  0.31637700  0.09917700  0.51670200  1
  H  235  1  0.27085900  0.11137700  0.59383100  1
  H  236  1  0.33450800  0.08160800  0.59225100  1
  H  241  1  0.38110400  0.07051600  0.51588800  1
  H  242  1  0.16772200  0.22658100  0.66913000  1
  H  243  1  0.31675200  0.18736200  0.49316600  1
  H  244  1  0.41110800  0.05892800  0.57202000  1
  H  245  1  0.08714300  0.04890000  0.47920000  1
  H  271  1  0.20969000  0.33582600  0.81819800  1
  H  272  1  0.18930400  0.38319900  0.84656300  1
  H  273  1  0.35925900  0.35643900  0.82347700  1
  H  274  1  0.33923200  0.40386900  0.85078800  1
  H  275  1  0.30810300  0.44068300  0.83916900  1
  H  276  1  0.28861900  0.44913800  0.80278900  1
  H  277  1  0.13871700  0.43756000  0.81185000  1
  H  278  1  0.15802100  0.42780100  0.84737400  1
  H  279  1  0.18005300  0.47092100  0.89537900  1
  H  280  1  0.11537800  0.47804000  0.92663800  1
  H  281  1  0.16346700  0.40982300  0.93233900  1
  H  282  1  0.22690700  0.40183900  0.90017700  1
  H  283  1  0.31617600  0.41902600  0.90209400  1
  H  284  1  0.27102000  0.48388900  0.88969700  1
  H  285  1  0.33471300  0.51205100  0.91944500  1
  H  290  1  0.38093900  0.44685000  0.93073600  1
  H  291  1  0.16749100  0.44411400  0.77470600  1
  H  292  1  0.31670800  0.30727300  0.81388200  1
  H  293  1  0.41124300  0.51447700  0.94216700  1
  H  294  1  0.08700300  0.43171000  0.95221800  1
  H  301  1  0.06540300  0.54729700  0.51803100  1
  H  304  1  0.93391100  0.46908800  0.52036900  1
  H  305  1  0.90032100  0.47563800  0.49758100  1
  H  306  1  0.89882100  0.50744500  0.55639600  1
  H  308  1  0.10270500  0.48535700  0.50942300  1
  H  309  1  0.12200200  0.51988200  0.52946600  1
  H  311  1  0.87780400  0.54006800  0.52350500  1
  H  312  1  0.88634900  0.51374000  0.48906400  1
  H  319  1  0.06537700  0.97224700  0.45391600  1
  H  322  1  0.93387100  0.05278600  0.53211700  1
  H  323  1  0.90029000  0.02344400  0.52556500  1
  H  324  1  0.89877300  0.05045900  0.49376400  1
  H  326  1  0.10266100  0.02559900  0.51585700  1
  H  327  1  0.12197300  0.01109900  0.48133500  1
  H  329  1  0.87776100  0.98494400  0.46115300  1
  H  330  1  0.88634400  0.97681400  0.48746700  1
  H  337  1  0.06528600  0.48302100  0.02892100  1
  H  340  1  0.93384700  0.48082200  0.94842100  1
  H  341  1  0.90028400  0.50360600  0.97777500  1
  H  342  1  0.89867200  0.44478900  0.95070300  1
  H  344  1  0.10263600  0.49167600  0.97563600  1
  H  345  1  0.12189200  0.47158700  0.99007300  1
  H  347  1  0.87766200  0.47764500  0.01622500  1
  H  348  1  0.88631300  0.51209300  0.02438400  1
  H  355  1  0.56533500  0.45435300  0.48234300  1
  H  358  1  0.43398800  0.53278200  0.48032000  1
  H  359  1  0.40043400  0.52619800  0.50309600  1
  H  360  1  0.39874300  0.49450300  0.44427700  1
  H  362  1  0.60277600  0.51630500  0.49105400  1
  H  363  1  0.62195900  0.48176900  0.47092000  1
  H  365  1  0.37771900  0.46178800  0.47708200  1
  H  366  1  0.38642700  0.48804900  0.51153600  1
  H  373  1  0.56530200  0.02946000  0.54681600  1
  H  376  1  0.43403200  0.94900300  0.46832500  1
  H  377  1  0.40046700  0.97836000  0.47491200  1
  H  378  1  0.39876500  0.95121700  0.50659000  1
  H  380  1  0.60279800  0.97622100  0.48485600  1
  H  381  1  0.62195900  0.99063800  0.51939600  1
  H  383  1  0.37770800  0.01672600  0.53932400  1
  H  384  1  0.38640800  0.02493900  0.51307700  1
  H  391  1  0.56537900  0.51872300  0.97168000  1
  H  394  1  0.43398800  0.52092400  0.05219900  1
  H  395  1  0.40041600  0.49813600  0.02285400  1
  H  396  1  0.39880200  0.55695100  0.04990900  1
  H  398  1  0.60276900  0.51007900  0.02497300  1
  H  399  1  0.62200300  0.53015800  0.01052000  1
  H  401  1  0.37777800  0.52410000  0.98439400  1
  H  402  1  0.38639700  0.48965700  0.97625600  1
  H  409  1  0.77660200  0.57060400  0.29796200  1
  H  412  1  0.77148700  0.45667700  0.21574800  1
  H  413  1  0.76708700  0.47037100  0.19374700  1
  H  414  1  0.68803500  0.46203700  0.22240200  1
  H  416  1  0.85742700  0.52189500  0.29613900  1
  H  417  1  0.82346200  0.55045200  0.32028200  1
  H  419  1  0.67711200  0.51207300  0.20948400  1
  H  420  1  0.73417900  0.51154300  0.19447300  1
  H  427  1  0.77650100  0.72878500  0.43053600  1
  H  430  1  0.77172000  0.76053100  0.54447600  1
  H  431  1  0.76729000  0.72483900  0.53080000  1
  H  432  1  0.68825600  0.76185100  0.53917500  1
  H  434  1  0.85744000  0.77566900  0.47916400  1
  H  435  1  0.82337000  0.77124900  0.45063400  1
  H  437  1  0.67723000  0.69888800  0.48917800  1
  H  438  1  0.73430800  0.68438800  0.48965200  1
  H  445  1  0.77653100  0.70320000  0.27237900  1
  H  448  1  0.77170400  0.78539700  0.24063900  1
  H  449  1  0.76728000  0.80741300  0.27633000  1
  H  450  1  0.68824400  0.77876600  0.23932300  1
  H  452  1  0.85747100  0.70495900  0.22550400  1
  H  453  1  0.82341100  0.68084500  0.22992000  1
  H  455  1  0.67720700  0.79170600  0.30227000  1
  H  456  1  0.73426100  0.80671700  0.31677200  1
  H  463  1  0.27636100  0.43108400  0.70258800  1
  H  466  1  0.27178700  0.54501900  0.78480700  1
  H  467  1  0.26742600  0.53133600  0.80681900  1
  H  468  1  0.18830300  0.53975300  0.77826000  1
  H  470  1  0.35733700  0.47966300  0.70428600  1
  H  471  1  0.32317400  0.45116800  0.68019800  1
  H  473  1  0.17730300  0.48973500  0.79119900  1
  H  474  1  0.23441500  0.49020700  0.80614100  1
  H  481  1  0.27644500  0.27294400  0.57002700  1
  H  484  1  0.27156000  0.24120300  0.45609000  1
  H  485  1  0.26720600  0.27689800  0.46977400  1
  H  486  1  0.18809000  0.23993600  0.46141300  1
  H  488  1  0.35734800  0.22607400  0.52139400  1
  H  489  1  0.32327700  0.23047000  0.54991400  1
  H  491  1  0.17716700  0.30290400  0.51144100  1
  H  492  1  0.23427200  0.31735300  0.51091900  1
  H  499  1  0.27669500  0.29857300  0.72827900  1
  H  502  1  0.27151200  0.21635300  0.75998400  1
  H  503  1  0.26719500  0.19434800  0.72428600  1
  H  504  1  0.18806000  0.22298400  0.76121300  1
  H  506  1  0.35743900  0.29677600  0.77520300  1
  H  507  1  0.32346400  0.32090800  0.77077800  1
  H  509  1  0.17730600  0.21004100  0.69823600  1
  H  510  1  0.23442600  0.19506700  0.68381100  1
  H  536  1  0.70970000  0.98410930  0.97929730  1
  H  537  1  0.68930300  0.00313200  0.02667190  1
  H  538  1  0.85927200  0.99940732  0.99991522  1
  H  539  1  0.83923900  0.01953400  0.04734390  1
  H  540  1  0.80805500  0.06797600  0.08411490  1
  H  541  1  0.78852700  0.11281600  0.09260000  1
  H  542  1  0.63862400  0.09217700  0.08111400  1
  H  543  1  0.65796300  0.04688900  0.07132990  1
  H  544  1  0.68013900  0.04197900  0.11441890  1
  H  545  1  0.61549300  0.01783100  0.12154200  1
  H  546  1  0.66345300  0.94393830  0.05325230  1
  H  547  1  0.72687500  0.96812130  0.04526020  1
  H  548  1  0.81612900  0.98338530  0.06251120  1
  H  549  1  0.77110100  0.06068700  0.12735290  1
  H  550  1  0.83479900  0.05909300  0.15550490  1
  H  555  1  0.88089700  0.98255430  0.09032530  1
  H  556  1  0.66737800  0.13588200  0.08765900  1
  H  557  1  0.81674300  0.95985130  0.95075230  1
  H  558  1  0.91130000  0.03876400  0.15792300  1
  H  559  1  0.58702300  0.94595030  0.07517830  1
  H  585  1  0.70971000  0.28482900  0.12726500  1
  H  586  1  0.68930900  0.31320500  0.10827200  1
  H  587  1  0.85926800  0.29011000  0.11191300  1
  H  588  1  0.83922300  0.31743600  0.09181500  1
  H  589  1  0.80805500  0.30582500  0.04339700  1
  H  590  1  0.78854400  0.26945400  0.99856400  1
  H  591  1  0.63865600  0.27853400  0.01922700  1
  H  592  1  0.65798800  0.31405500  0.06450700  1
  H  593  1  0.68008200  0.36207000  0.06940500  1
  H  594  1  0.61544500  0.39334400  0.09355700  1
  H  595  1  0.66350800  0.39900600  0.16745800  1
  H  596  1  0.72691900  0.36682600  0.14327000  1
  H  597  1  0.81616800  0.36875100  0.12799400  1
  H  598  1  0.77105300  0.35636800  0.05073500  1
  H  599  1  0.83472900  0.38613200  0.05234300  1
  H  604  1  0.88091400  0.39741500  0.12883900  1
  H  605  1  0.66741700  0.24138900  0.97551700  1
  H  606  1  0.81676600  0.28049400  0.15147200  1
  H  607  1  0.91126200  0.40885300  0.07265600  1
  H  608  1  0.58704100  0.41889900  0.16545100  1
  H  634  1  0.70974300  0.13208400  0.82653500  1
  H  635  1  0.68932600  0.08471600  0.79816400  1
  H  636  1  0.85928000  0.11142700  0.82131400  1
  H  637  1  0.83921600  0.06400500  0.79399700  1
  H  638  1  0.80804500  0.02718300  0.80556700  1
  H  639  1  0.78853100  0.01874500  0.84195300  1
  H  640  1  0.63865400  0.03039600  0.83291000  1
  H  641  1  0.65799600  0.04013100  0.79737400  1
  H  642  1  0.68000500  0.99700332  0.74937232  1
  H  643  1  0.61539700  0.98988030  0.71808230  1
  H  644  1  0.66362300  0.05805000  0.71234100  1
  H  645  1  0.72700400  0.06604400  0.74453900  1
  H  646  1  0.81622700  0.04886300  0.74266900  1
  H  647  1  0.77094800  0.98399130  0.75501430  1
  H  648  1  0.83460100  0.95580930  0.72525030  1
  H  653  1  0.88096100  0.02102200  0.71400800  1
  H  654  1  0.66740500  0.02382400  0.87005300  1
  H  655  1  0.81681800  0.16060500  0.83089300  1
  H  656  1  0.91114400  0.95336130  0.70252430  1
  H  657  1  0.58714000  0.03617300  0.69245300  1
  H  683  1  0.20963900  0.94996530  0.30939930  1
  H  684  1  0.18928600  0.93099930  0.26202930  1
  H  685  1  0.35918200  0.93446530  0.28879130  1
  H  686  1  0.33917700  0.91438030  0.24136430  1
  H  687  1  0.30809900  0.86600600  0.20446100  1
  H  688  1  0.28858600  0.82117900  0.19601900  1
  H  689  1  0.13872000  0.84189100  0.20774800  1
  H  690  1  0.15805700  0.88716600  0.21749300  1
  H  691  1  0.17995100  0.89200200  0.17434700  1
  H  692  1  0.11533700  0.91616730  0.16722430  1
  H  693  1  0.16368000  0.99010132  0.23532332  1
  H  694  1  0.22706800  0.96590230  0.24332030  1
  H  695  1  0.31634800  0.95058030  0.22623630  1
  H  696  1  0.27090700  0.87342600  0.16131700  1
  H  697  1  0.33458100  0.87500300  0.13314100  1
  H  702  1  0.38110100  0.95139030  0.19839930  1
  H  703  1  0.16747300  0.79817500  0.20115600  1
  H  704  1  0.31666700  0.97407430  0.33797830  1
  H  705  1  0.41117000  0.89524700  0.13069900  1
  H  706  1  0.08716800  0.98811130  0.21347330  1
  H  732  1  0.20969000  0.64904900  0.16136100  1
  H  733  1  0.18932200  0.62067000  0.18035500  1
  H  734  1  0.35922900  0.64395600  0.17688500  1
  H  735  1  0.33921000  0.61663200  0.19699100  1
  H  736  1  0.30818700  0.62806000  0.24535300  1
  H  737  1  0.28875500  0.66446000  0.29018600  1
  H  738  1  0.13887800  0.65560500  0.26951200  1
  H  739  1  0.15813400  0.62005700  0.22423200  1
  H  740  1  0.17991000  0.57205900  0.21940200  1
  H  741  1  0.11526000  0.54078400  0.19525100  1
  H  742  1  0.16368000  0.53486300  0.12129000  1
  H  743  1  0.22709800  0.56704100  0.14547500  1
  H  744  1  0.31637700  0.56530900  0.16079000  1
  H  745  1  0.27085900  0.57750900  0.23791900  1
  H  746  1  0.33450800  0.54774000  0.23633900  1
  H  751  1  0.38110400  0.53664800  0.15997600  1
  H  752  1  0.16772200  0.69271300  0.31321800  1
  H  753  1  0.31675200  0.65349400  0.13725400  1
  H  754  1  0.41110800  0.52506000  0.21610800  1
  H  755  1  0.08714300  0.51503200  0.12328800  1
  H  781  1  0.20969000  0.80195800  0.46228600  1
  H  782  1  0.18930400  0.84933100  0.49065100  1
  H  783  1  0.35925900  0.82257100  0.46756500  1
  H  784  1  0.33923200  0.87000100  0.49487600  1
  H  785  1  0.30810300  0.90681530  0.48325730  1
  H  786  1  0.28861900  0.91527030  0.44687730  1
  H  787  1  0.13871700  0.90369230  0.45593830  1
  H  788  1  0.15802100  0.89393300  0.49146200  1
  H  789  1  0.18005300  0.93705330  0.53946730  1
  H  790  1  0.11537800  0.94417230  0.57072630  1
  H  791  1  0.16346700  0.87595500  0.57642700  1
  H  792  1  0.22690700  0.86797100  0.54426500  1
  H  793  1  0.31617600  0.88515800  0.54618200  1
  H  794  1  0.27102000  0.95002130  0.53378530  1
  H  795  1  0.33471300  0.97818330  0.56353330  1
  H  800  1  0.38093900  0.91298230  0.57482430  1
  H  801  1  0.16749100  0.91024630  0.41879430  1
  H  802  1  0.31670800  0.77340500  0.45797000  1
  H  803  1  0.41124300  0.98060930  0.58625530  1
  H  804  1  0.08700300  0.89784200  0.59630600  1
  H  811  1  0.06540300  0.01342900  0.16211900  1
  H  814  1  0.93391100  0.93522030  0.16445730  1
  H  815  1  0.90032100  0.94177030  0.14166930  1
  H  816  1  0.89882100  0.97357730  0.20048430  1
  H  818  1  0.10270500  0.95148930  0.15351130  1
  H  819  1  0.12200200  0.98601430  0.17355430  1
  H  821  1  0.87780400  0.00620000  0.16759300  1
  H  822  1  0.88634900  0.97987230  0.13315230  1
  H  829  1  0.06537700  0.43837900  0.09800400  1
  H  832  1  0.93387100  0.51891800  0.17620500  1
  H  833  1  0.90029000  0.48957600  0.16965300  1
  H  834  1  0.89877300  0.51659100  0.13785200  1
  H  836  1  0.10266100  0.49173100  0.15994500  1
  H  837  1  0.12197300  0.47723100  0.12542300  1
  H  839  1  0.87776100  0.45107600  0.10524100  1
  H  840  1  0.88634400  0.44294600  0.13155500  1
  H  847  1  0.06528600  0.94915330  0.67300930  1
  H  850  1  0.93384700  0.94695430  0.59250930  1
  H  851  1  0.90028400  0.96973830  0.62186330  1
  H  852  1  0.89867200  0.91092130  0.59479130  1
  H  854  1  0.10263600  0.95780830  0.61972430  1
  H  855  1  0.12189200  0.93771930  0.63416130  1
  H  857  1  0.87766200  0.94377730  0.66031330  1
  H  858  1  0.88631300  0.97822530  0.66847230  1
  H  865  1  0.56533500  0.92048530  0.12643130  1
  H  868  1  0.43398800  0.99891432  0.12440832  1
  H  869  1  0.40043400  0.99233032  0.14718432  1
  H  870  1  0.39874300  0.96063530  0.08836530  1
  H  872  1  0.60277600  0.98243730  0.13514230  1
  H  873  1  0.62195900  0.94790130  0.11500830  1
  H  875  1  0.37771900  0.92792030  0.12117030  1
  H  876  1  0.38642700  0.95418130  0.15562430  1
  H  883  1  0.56530200  0.49559200  0.19090400  1
  H  886  1  0.43403200  0.41513500  0.11241300  1
  H  887  1  0.40046700  0.44449200  0.11900000  1
  H  888  1  0.39876500  0.41734900  0.15067800  1
  H  890  1  0.60279800  0.44235300  0.12894400  1
  H  891  1  0.62195900  0.45677000  0.16348400  1
  H  893  1  0.37770800  0.48285800  0.18341200  1
  H  894  1  0.38640800  0.49107100  0.15716500  1
  H  901  1  0.56537900  0.98485530  0.61576830  1
  H  904  1  0.43398800  0.98705630  0.69628730  1
  H  905  1  0.40041600  0.96426830  0.66694230  1
  H  906  1  0.39880200  0.02308300  0.69399700  1
  H  908  1  0.60276900  0.97621130  0.66906130  1
  H  909  1  0.62200300  0.99629032  0.65460832  1
  H  911  1  0.37777800  0.99023232  0.62848232  1
  H  912  1  0.38639700  0.95578930  0.62034430  1
  H  919  1  0.77660200  0.03673600  0.94205000  1
  H  922  1  0.77148700  0.92280930  0.85983630  1
  H  923  1  0.76708700  0.93650330  0.83783530  1
  H  924  1  0.68803500  0.92816930  0.86649030  1
  H  926  1  0.85742700  0.98802730  0.94022730  1
  H  927  1  0.82346200  0.01658400  0.96437000  1
  H  929  1  0.67711200  0.97820530  0.85357230  1
  H  930  1  0.73417900  0.97767530  0.83856130  1
  H  937  1  0.77650100  0.19491700  0.07462400  1
  H  940  1  0.77172000  0.22666300  0.18856400  1
  H  941  1  0.76729000  0.19097100  0.17488800  1
  H  942  1  0.68825600  0.22798300  0.18326300  1
  H  944  1  0.85744000  0.24180100  0.12325200  1
  H  945  1  0.82337000  0.23738100  0.09472200  1
  H  947  1  0.67723000  0.16502000  0.13326600  1
  H  948  1  0.73430800  0.15052000  0.13374000  1
  H  955  1  0.77653100  0.16933200  0.91646700  1
  H  958  1  0.77170400  0.25152900  0.88472700  1
  H  959  1  0.76728000  0.27354500  0.92041800  1
  H  960  1  0.68824400  0.24489800  0.88341100  1
  H  962  1  0.85747100  0.17109100  0.86959200  1
  H  963  1  0.82341100  0.14697700  0.87400800  1
  H  965  1  0.67720700  0.25783800  0.94635800  1
  H  966  1  0.73426100  0.27284900  0.96086000  1
  H  973  1  0.27636100  0.89721600  0.34667600  1
  H  976  1  0.27178700  0.01115100  0.42889500  1
  H  977  1  0.26742600  0.99746832  0.45090732  1
  H  978  1  0.18830300  0.00588500  0.42234800  1
  H  980  1  0.35733700  0.94579530  0.34837430  1
  H  981  1  0.32317400  0.91730030  0.32428630  1
  H  983  1  0.17730300  0.95586730  0.43528730  1
  H  984  1  0.23441500  0.95633930  0.45022930  1
  H  991  1  0.27644500  0.73907600  0.21411500  1
  H  994  1  0.27156000  0.70733500  0.10017800  1
  H  995  1  0.26720600  0.74303000  0.11386200  1
  H  996  1  0.18809000  0.70606800  0.10550100  1
  H  998  1  0.35734800  0.69220600  0.16548200  1
  H  999  1  0.32327700  0.69660200  0.19400200  1
  H  1001  1  0.17716700  0.76903600  0.15552900  1
  H  1002  1  0.23427200  0.78348500  0.15500700  1
  H  1009  1  0.27669500  0.76470500  0.37236700  1
  H  1012  1  0.27151200  0.68248500  0.40407200  1
  H  1013  1  0.26719500  0.66048000  0.36837400  1
  H  1014  1  0.18806000  0.68911600  0.40530100  1
  H  1016  1  0.35743900  0.76290800  0.41929100  1
  H  1017  1  0.32346400  0.78704000  0.41486600  1
  H  1019  1  0.17730600  0.67617300  0.34232400  1
  H  1020  1  0.23442600  0.66119900  0.32786567  1
  C  1  1  0.86414000  0.55461500  0.48145700  1
  C  2  1  0.83140300  0.57705100  0.49167900  1
  C  3  1  0.79418000  0.57800800  0.47483000  1
  C  4  1  0.78892200  0.55709300  0.44688200  1
  C  5  1  0.81978800  0.53374900  0.43778200  1
  C  6  1  0.85777700  0.53298000  0.45425700  1
  C  7  1  0.74850400  0.55785800  0.42843600  1
  C  8  1  0.70811000  0.54207900  0.43351100  1
  C  9  1  0.70351000  0.51304600  0.41721200  1
  C  10  1  0.66644400  0.49856200  0.42202600  1
  C  11  1  0.63318300  0.51245100  0.44399000  1
  C  12  1  0.63904300  0.54101100  0.46137600  1
  C  13  1  0.67686100  0.55525800  0.45681500  1
  C  14  1  0.73478200  0.58691700  0.43506600  1
  C  15  1  0.76235400  0.54531200  0.39812500  1
  C  16  1  0.72551000  0.53607600  0.37745800  1
  C  17  1  0.73720300  0.52497200  0.34951900  1
  C  18  1  0.78634200  0.52334500  0.34124200  1
  C  19  1  0.82343100  0.53367400  0.36140400  1
  C  20  1  0.81132800  0.54519300  0.38933500  1
  C  21  1  0.77189900  0.60662100  0.43995000  1
  C  22  1  0.76062400  0.63310300  0.44489100  1
  C  23  1  0.71156000  0.64102200  0.44497500  1
  C  24  1  0.67434800  0.62124900  0.43833500  1
  C  25  1  0.68598800  0.59461100  0.43292900  1
  C  50  1  0.86411600  0.92834500  0.44657600  1
  C  51  1  0.83135400  0.91615300  0.42415300  1
  C  52  1  0.79413000  0.89834700  0.42319500  1
  C  53  1  0.78892300  0.89126800  0.44408000  1
  C  54  1  0.81978600  0.90551300  0.46742600  1
  C  55  1  0.85777800  0.92276000  0.46820000  1
  C  56  1  0.74850100  0.87205800  0.44330900  1
  C  57  1  0.70809000  0.89289900  0.45908400  1
  C  58  1  0.70353200  0.90566400  0.48812200  1
  C  59  1  0.66647000  0.92496100  0.50261000  1
  C  60  1  0.63317200  0.93301300  0.48871900  1
  C  61  1  0.63900900  0.92183100  0.46015700  1
  C  62  1  0.67682500  0.90302000  0.44590700  1
  C  63  1  0.73478700  0.84964100  0.41424600  1
  C  64  1  0.76235200  0.85429700  0.45585700  1
  C  65  1  0.72551700  0.84286100  0.46509300  1
  C  66  1  0.73720900  0.82600500  0.47617500  1
  C  67  1  0.78634500  0.81933700  0.47777700  1
  C  68  1  0.82342400  0.82915400  0.46742800  1
  C  69  1  0.81131700  0.84559200  0.45593800  1
  C  70  1  0.77190100  0.83482200  0.39453700  1
  C  71  1  0.76063800  0.81327300  0.36806000  1
  C  72  1  0.71158100  0.80540900  0.36014700  1
  C  73  1  0.67437500  0.81852300  0.37992900  1
  C  74  1  0.68601100  0.83976900  0.40656100  1
  C  99  1  0.86409100  0.51965700  0.07285000  1
  C  100  1  0.83127500  0.50942900  0.08502200  1
  C  101  1  0.79406500  0.52629100  0.10282900  1
  C  102  1  0.78891700  0.55426400  0.10992200  1
  C  103  1  0.81984500  0.56336400  0.09570200  1
  C  104  1  0.85780200  0.54687000  0.07844100  1
  C  105  1  0.74850100  0.57271200  0.12912900  1
  C  106  1  0.70809700  0.56764600  0.10828300  1
  C  107  1  0.70359200  0.58389700  0.09549100  1
  C  108  1  0.66654700  0.57908500  0.07618400  1
  C  109  1  0.63321700  0.55715600  0.06814400  1
  C  110  1  0.63899100  0.53980300  0.07936200  1
  C  111  1  0.67678900  0.54436700  0.09818400  1
  C  112  1  0.73478300  0.56607800  0.15155200  1
  C  113  1  0.76235900  0.60302100  0.14688200  1
  C  114  1  0.72553300  0.62369900  0.15829900  1
  C  115  1  0.73723500  0.65163600  0.17515400  1
  C  116  1  0.78637100  0.65990000  0.18183400  1
  C  117  1  0.82344100  0.63972800  0.17203100  1
  C  118  1  0.81132000  0.61180200  0.15560400  1
  C  119  1  0.77189300  0.56117100  0.16636200  1
  C  120  1  0.76062900  0.55626100  0.18792200  1
  C  121  1  0.71157500  0.55625300  0.19581100  1
  C  122  1  0.67437100  0.56291800  0.18269400  1
  C  123  1  0.68601200  0.56829100  0.16144000  1
  C  148  1  0.36415200  0.44712800  0.51905500  1
  C  149  1  0.33128400  0.42475000  0.50881400  1
  C  150  1  0.29406200  0.42380900  0.52567100  1
  C  151  1  0.28894500  0.44467500  0.55365100  1
  C  152  1  0.31993900  0.46797100  0.56277400  1
  C  153  1  0.35790500  0.46873200  0.54628200  1
  C  154  1  0.24851400  0.44390100  0.57208400  1
  C  155  1  0.20811600  0.45966400  0.56699300  1
  C  156  1  0.20364900  0.48871100  0.58322200  1
  C  157  1  0.16658500  0.50320100  0.57841400  1
  C  158  1  0.13321800  0.48930500  0.55650600  1
  C  159  1  0.13895900  0.46072700  0.53917600  1
  C  160  1  0.17676000  0.44647200  0.54373900  1
  C  161  1  0.23484100  0.41484000  0.56545900  1
  C  162  1  0.26233100  0.45646400  0.60239900  1
  C  163  1  0.22548400  0.46574500  0.62306700  1
  C  164  1  0.23714800  0.47681400  0.65100700  1
  C  165  1  0.28626800  0.47836700  0.65928500  1
  C  166  1  0.32335700  0.46799500  0.63912600  1
  C  167  1  0.31127200  0.45649300  0.61119600  1
  C  168  1  0.27194800  0.39511400  0.56050900  1
  C  169  1  0.26068400  0.36864000  0.55559300  1
  C  170  1  0.21163400  0.36075100  0.55561100  1
  C  171  1  0.17443400  0.38053900  0.56229900  1
  C  172  1  0.18606900  0.40716800  0.56767700  1
  C  197  1  0.36411100  0.07337200  0.55400500  1
  C  198  1  0.33123200  0.08550100  0.57637800  1
  C  199  1  0.29402500  0.10330800  0.57732100  1
  C  200  1  0.28894200  0.11043900  0.55646700  1
  C  201  1  0.31995000  0.09627500  0.53317700  1
  C  202  1  0.35789800  0.07900800  0.53241000  1
  C  203  1  0.24853300  0.12966300  0.55725000  1
  C  204  1  0.20810200  0.10882500  0.54150400  1
  C  205  1  0.20365300  0.09598400  0.51245400  1
  C  206  1  0.16658100  0.07668800  0.49797100  1
  C  207  1  0.13316700  0.06872200  0.51188500  1
  C  208  1  0.13889600  0.07998400  0.54046300  1
  C  209  1  0.17669400  0.09880800  0.55471500  1
  C  210  1  0.23491000  0.15210900  0.58631900  1
  C  211  1  0.26237200  0.14740700  0.54468100  1
  C  212  1  0.22552000  0.15878400  0.53539000  1
  C  213  1  0.23719200  0.17564500  0.52430900  1
  C  214  1  0.28631600  0.18236800  0.52275700  1
  C  215  1  0.32340100  0.17260000  0.53315000  1
  C  216  1  0.31130800  0.15617400  0.54465500  1
  C  217  1  0.27204800  0.16685400  0.60603500  1
  C  218  1  0.26083500  0.18842100  0.63251100  1
  C  219  1  0.21180300  0.19636800  0.64041300  1
  C  220  1  0.17457400  0.18330200  0.62063500  1
  C  221  1  0.18616400  0.16204000  0.59400200  1
  C  246  1  0.36412600  0.48207900  0.92779200  1
  C  247  1  0.33134600  0.49230600  0.91560100  1
  C  248  1  0.29411300  0.47545600  0.89780500  1
  C  249  1  0.28890100  0.44749900  0.89074800  1
  C  250  1  0.31979200  0.43839700  0.90498100  1
  C  251  1  0.35779100  0.45487200  0.92221500  1
  C  252  1  0.24849600  0.42904900  0.87152800  1
  C  253  1  0.20807600  0.43413200  0.89237000  1
  C  254  1  0.20352400  0.41786700  0.90514400  1
  C  255  1  0.16643800  0.42267200  0.92442900  1
  C  256  1  0.13311200  0.44460200  0.93245600  1
  C  257  1  0.13895100  0.46197300  0.92126500  1
  C  258  1  0.17676300  0.45740600  0.90245100  1
  C  259  1  0.23483000  0.43567300  0.84908800  1
  C  260  1  0.26235700  0.39874100  0.85378100  1
  C  261  1  0.22550900  0.37807500  0.84234400  1
  C  262  1  0.23719500  0.35013400  0.82550100  1
  C  263  1  0.28632700  0.34185600  0.81884000  1
  C  264  1  0.32341600  0.36201700  0.82865900  1
  C  265  1  0.31131900  0.38994800  0.84508100  1
  C  266  1  0.27195600  0.44058000  0.83428900  1
  C  267  1  0.26070600  0.44550100  0.81273300  1
  C  268  1  0.21165600  0.44553400  0.80485300  1
  C  269  1  0.17443400  0.43888400  0.81797200  1
  C  270  1  0.18605000  0.43350100  0.83922300  1
  C  295  1  0.95070200  0.52578200  0.51235600  1
  C  297  1  0.03706500  0.53540200  0.51803100  1
  C  298  1  0.04487000  0.51317100  0.52248600  1
  C  300  1  0.95828800  0.50359200  0.51728700  1
  C  302  1  0.91878200  0.48550300  0.51746300  1
  C  307  1  0.09378500  0.50512500  0.52744300  1
  C  310  1  0.90192700  0.53272700  0.50564900  1
  C  313  1  0.95067200  0.98808100  0.47541900  1
  C  315  1  0.03703900  0.98414100  0.46580800  1
  C  316  1  0.04483700  0.01082800  0.48803600  1
  C  318  1  0.95825300  0.01520400  0.49760900  1
  C  320  1  0.91874600  0.03346500  0.51570100  1
  C  325  1  0.09374800  0.02383500  0.49608300  1
  C  328  1  0.90190200  0.97442400  0.46848000  1
  C  331  1  0.95060000  0.48874200  0.01309300  1
  C  333  1  0.03694800  0.48300700  0.01701900  1
  C  334  1  0.04477100  0.47859700  0.99035100  1
  C  336  1  0.95819800  0.48383700  0.98598300  1
  C  338  1  0.91870800  0.48371300  0.96773500  1
  C  343  1  0.09369000  0.47364200  0.97735400  1
  C  346  1  0.90183400  0.49547700  0.02675400  1
  C  349  1  0.45068000  0.47597800  0.48815900  1
  C  351  1  0.53701500  0.46627600  0.48237800  1
  C  352  1  0.54485700  0.48854500  0.47798800  1
  C  354  1  0.45830200  0.49820300  0.48328600  1
  C  356  1  0.41883200  0.51635500  0.48319700  1
  C  361  1  0.59377900  0.49656800  0.47301200  1
  C  364  1  0.40191200  0.46906300  0.49490300  1
  C  367  1  0.45067300  0.01364100  0.52514700  1
  C  369  1  0.53700000  0.01757600  0.53486800  1
  C  370  1  0.54486100  0.99091700  0.51260200  1
  C  372  1  0.45831700  0.98654600  0.50292000  1
  C  374  1  0.41886200  0.96830100  0.48475500  1
  C  379  1  0.59378600  0.97792400  0.50459400  1
  C  382  1  0.40189400  0.02728500  0.53205900  1
  C  385  1  0.45070600  0.51298400  0.98751700  1
  C  387  1  0.53705500  0.51870300  0.98357400  1
  C  388  1  0.54488600  0.52313800  0.01024800  1
  C  390  1  0.45832100  0.51789400  0.01462700  1
  C  392  1  0.41884000  0.51802600  0.03288500  1
  C  397  1  0.59380800  0.52810600  0.02324700  1
  C  400  1  0.40193100  0.50625700  0.97386700  1
  C  403  1  0.73814200  0.52366600  0.23625000  1
  C  405  1  0.77164500  0.55137700  0.28145600  1
  C  406  1  0.79127900  0.52786700  0.28076700  1
  C  408  1  0.75717400  0.49979900  0.23560300  1
  C  410  1  0.75142000  0.47144000  0.21211600  1
  C  415  1  0.82026500  0.52913500  0.30357600  1
  C  418  1  0.71171800  0.52315800  0.21287700  1
  C  421  1  0.73821100  0.71403500  0.47751800  1
  C  423  1  0.77162500  0.73150500  0.44976600  1
  C  424  1  0.79130400  0.75433000  0.47325700  1
  C  426  1  0.75730600  0.73725300  0.50136600  1
  C  428  1  0.75161900  0.74214100  0.52973300  1
  C  433  1  0.82024900  0.77586600  0.47195700  1
  C  436  1  0.71180200  0.69118200  0.47805700  1
  C  439  1  0.73823700  0.76493500  0.28714000  1
  C  441  1  0.77167200  0.71971800  0.26967000  1
  C  442  1  0.79133300  0.72038400  0.24684100  1
  C  444  1  0.75731600  0.76556500  0.26392000  1
  C  446  1  0.75161100  0.78904400  0.25902900  1
  C  451  1  0.82028200  0.69755100  0.22530400  1
  C  454  1  0.71179300  0.78831700  0.30998400  1
  C  457  1  0.23823700  0.47807100  0.76436000  1
  C  459  1  0.27154900  0.45031400  0.71911200  1
  C  460  1  0.29121900  0.47379900  0.71976600  1
  C  462  1  0.25732500  0.50191300  0.76497600  1
  C  464  1  0.25170200  0.53028200  0.78846700  1
  C  469  1  0.32011900  0.47249000  0.69691100  1
  C  472  1  0.21188000  0.47861400  0.78776700  1
  C  475  1  0.23813800  0.28770900  0.52305800  1
  C  477  1  0.27153000  0.27021600  0.55079500  1
  C  478  1  0.29119000  0.24739000  0.52729900  1
  C  480  1  0.25718500  0.26448100  0.49920300  1
  C  482  1  0.25149600  0.25960300  0.47083800  1
  C  487  1  0.32015900  0.22585900  0.52859300  1
  C  490  1  0.21177300  0.31058100  0.52253300  1
  C  493  1  0.23828800  0.23684400  0.71347000  1
  C  495  1  0.27175000  0.28206100  0.73099000  1
  C  496  1  0.29132600  0.28138100  0.75382800  1
  C  498  1  0.25727000  0.23620300  0.73670500  1
  C  500  1  0.25149300  0.21271500  0.74157400  1
  C  505  1  0.32027300  0.30419900  0.77538600  1
  C  508  1  0.21193500  0.21345700  0.69058100  1
  C  511  1  0.86414000  0.02074700  0.12554500  1
  C  512  1  0.83140300  0.04318300  0.13576690  1
  C  513  1  0.79418000  0.04414000  0.11891790  1
  C  514  1  0.78892200  0.02322500  0.09096990  1
  C  515  1  0.81978800  0.99988132  0.08187022  1
  C  516  1  0.85777700  0.99911232  0.09834522  1
  C  517  1  0.74850400  0.02399000  0.07252390  1
  C  518  1  0.70811000  0.00821100  0.07759890  1
  C  519  1  0.70351000  0.97917830  0.06130020  1
  C  520  1  0.66644400  0.96469430  0.06611430  1
  C  521  1  0.63318300  0.97858330  0.08807830  1
  C  522  1  0.63904300  0.00714300  0.10546390  1
  C  523  1  0.67686100  0.02139000  0.10090290  1
  C  524  1  0.73478200  0.05304900  0.07915390  1
  C  525  1  0.76235400  0.01144400  0.04221290  1
  C  526  1  0.72551000  0.00220800  0.02154590  1
  C  527  1  0.73720300  0.99110432  0.99360721  1
  C  528  1  0.78634200  0.98947730  0.98533030  1
  C  529  1  0.82343100  0.99980632  0.00549221  1
  C  530  1  0.81132800  0.01132500  0.03342290  1
  C  531  1  0.77189900  0.07275300  0.08403790  1
  C  532  1  0.76062400  0.09923500  0.08897900  1
  C  533  1  0.71156000  0.10715400  0.08906300  1
  C  534  1  0.67434800  0.08738100  0.08242300  1
  C  535  1  0.68598800  0.06074300  0.07701690  1
  C  560  1  0.86411600  0.39447700  0.09066400  1
  C  561  1  0.83135400  0.38228500  0.06824100  1
  C  562  1  0.79413000  0.36447900  0.06728300  1
  C  563  1  0.78892300  0.35740000  0.08816800  1
  C  564  1  0.81978600  0.37164500  0.11151400  1
  C  565  1  0.85777800  0.38889200  0.11228800  1
  C  566  1  0.74850100  0.33819000  0.08739700  1
  C  567  1  0.70809000  0.35903100  0.10317200  1
  C  568  1  0.70353200  0.37179600  0.13221000  1
  C  569  1  0.66647000  0.39109300  0.14669800  1
  C  570  1  0.63317200  0.39914500  0.13280700  1
  C  571  1  0.63900900  0.38796300  0.10424500  1
  C  572  1  0.67682500  0.36915200  0.08999500  1
  C  573  1  0.73478700  0.31577300  0.05833400  1
  C  574  1  0.76235200  0.32042900  0.09994500  1
  C  575  1  0.72551700  0.30899300  0.10918100  1
  C  576  1  0.73720900  0.29213700  0.12026300  1
  C  577  1  0.78634500  0.28546900  0.12186500  1
  C  578  1  0.82342400  0.29528600  0.11151600  1
  C  579  1  0.81131700  0.31172400  0.10002600  1
  C  580  1  0.77190100  0.30095400  0.03862500  1
  C  581  1  0.76063800  0.27940500  0.01214800  1
  C  582  1  0.71158100  0.27154100  0.00423500  1
  C  583  1  0.67437500  0.28465500  0.02401700  1
  C  584  1  0.68601100  0.30590100  0.05064900  1
  C  609  1  0.86409100  0.98578930  0.71693830  1
  C  610  1  0.83127500  0.97556130  0.72911030  1
  C  611  1  0.79406500  0.99242332  0.74691732  1
  C  612  1  0.78891700  0.02039600  0.75401000  1
  C  613  1  0.81984500  0.02949600  0.73979000  1
  C  614  1  0.85780200  0.01300200  0.72252900  1
  C  615  1  0.74850100  0.03884400  0.77321700  1
  C  616  1  0.70809700  0.03377800  0.75237100  1
  C  617  1  0.70359200  0.05002900  0.73957900  1
  C  618  1  0.66654700  0.04521700  0.72027200  1
  C  619  1  0.63321700  0.02328800  0.71223200  1
  C  620  1  0.63899100  0.00593500  0.72345000  1
  C  621  1  0.67678900  0.01049900  0.74227200  1
  C  622  1  0.73478300  0.03221000  0.79564000  1
  C  623  1  0.76235900  0.06915300  0.79097000  1
  C  624  1  0.72553300  0.08983100  0.80238700  1
  C  625  1  0.73723500  0.11776800  0.81924200  1
  C  626  1  0.78637100  0.12603200  0.82592200  1
  C  627  1  0.82344100  0.10586000  0.81611900  1
  C  628  1  0.81132000  0.07793400  0.79969200  1
  C  629  1  0.77189300  0.02730300  0.81045000  1
  C  630  1  0.76062900  0.02239300  0.83201000  1
  C  631  1  0.71157500  0.02238500  0.83989900  1
  C  632  1  0.67437100  0.02905000  0.82678200  1
  C  633  1  0.68601200  0.03442300  0.80552800  1
  C  658  1  0.36415200  0.91326030  0.16314330  1
  C  659  1  0.33128400  0.89088200  0.15290200  1
  C  660  1  0.29406200  0.88994100  0.16975900  1
  C  661  1  0.28894500  0.91080730  0.19773930  1
  C  662  1  0.31993900  0.93410330  0.20686230  1
  C  663  1  0.35790500  0.93486430  0.19037030  1
  C  664  1  0.24851400  0.91003330  0.21617230  1
  C  665  1  0.20811600  0.92579630  0.21108130  1
  C  666  1  0.20364900  0.95484330  0.22731030  1
  C  667  1  0.16658500  0.96933330  0.22250230  1
  C  668  1  0.13321800  0.95543730  0.20059430  1
  C  669  1  0.13895900  0.92685930  0.18326430  1
  C  670  1  0.17676000  0.91260430  0.18782730  1
  C  671  1  0.23484100  0.88097200  0.20954700  1
  C  672  1  0.26233100  0.92259630  0.24648730  1
  C  673  1  0.22548400  0.93187730  0.26715530  1
  C  674  1  0.23714800  0.94294630  0.29509530  1
  C  675  1  0.28626800  0.94449930  0.30337330  1
  C  676  1  0.32335700  0.93412730  0.28321430  1
  C  677  1  0.31127200  0.92262530  0.25528430  1
  C  678  1  0.27194800  0.86124600  0.20459700  1
  C  679  1  0.26068400  0.83477200  0.19968100  1
  C  680  1  0.21163400  0.82688300  0.19969900  1
  C  681  1  0.17443400  0.84667100  0.20638700  1
  C  682  1  0.18606900  0.87330000  0.21176500  1
  C  707  1  0.36411100  0.53950400  0.19809300  1
  C  708  1  0.33123200  0.55163300  0.22046600  1
  C  709  1  0.29402500  0.56944000  0.22140900  1
  C  710  1  0.28894200  0.57657100  0.20055500  1
  C  711  1  0.31995000  0.56240700  0.17726500  1
  C  712  1  0.35789800  0.54514000  0.17649800  1
  C  713  1  0.24853300  0.59579500  0.20133800  1
  C  714  1  0.20810200  0.57495700  0.18559200  1
  C  715  1  0.20365300  0.56211600  0.15654200  1
  C  716  1  0.16658100  0.54282000  0.14205900  1
  C  717  1  0.13316700  0.53485400  0.15597300  1
  C  718  1  0.13889600  0.54611600  0.18455100  1
  C  719  1  0.17669400  0.56494000  0.19880300  1
  C  720  1  0.23491000  0.61824100  0.23040700  1
  C  721  1  0.26237200  0.61353900  0.18876900  1
  C  722  1  0.22552000  0.62491600  0.17947800  1
  C  723  1  0.23719200  0.64177700  0.16839700  1
  C  724  1  0.28631600  0.64850000  0.16684500  1
  C  725  1  0.32340100  0.63873200  0.17723800  1
  C  726  1  0.31130800  0.62230600  0.18874300  1
  C  727  1  0.27204800  0.63298600  0.25012300  1
  C  728  1  0.26083500  0.65455300  0.27659900  1
  C  729  1  0.21180300  0.66250000  0.28450100  1
  C  730  1  0.17457400  0.64943400  0.26472300  1
  C  731  1  0.18616400  0.62817200  0.23809000  1
  C  756  1  0.36412600  0.94821130  0.57188030  1
  C  757  1  0.33134600  0.95843830  0.55968930  1
  C  758  1  0.29411300  0.94158830  0.54189330  1
  C  759  1  0.28890100  0.91363130  0.53483630  1
  C  760  1  0.31979200  0.90452930  0.54906930  1
  C  761  1  0.35779100  0.92100430  0.56630330  1
  C  762  1  0.24849600  0.89518100  0.51561600  1
  C  763  1  0.20807600  0.90026430  0.53645830  1
  C  764  1  0.20352400  0.88399900  0.54923200  1
  C  765  1  0.16643800  0.88880400  0.56851700  1
  C  766  1  0.13311200  0.91073430  0.57654430  1
  C  767  1  0.13895100  0.92810530  0.56535330  1
  C  768  1  0.17676300  0.92353830  0.54653930  1
  C  769  1  0.23483000  0.90180530  0.49317630  1
  C  770  1  0.26235700  0.86487300  0.49786900  1
  C  771  1  0.22550900  0.84420700  0.48643200  1
  C  772  1  0.23719500  0.81626600  0.46958900  1
  C  773  1  0.28632700  0.80798800  0.46292800  1
  C  774  1  0.32341600  0.82814900  0.47274700  1
  C  775  1  0.31131900  0.85608000  0.48916900  1
  C  776  1  0.27195600  0.90671230  0.47837730  1
  C  777  1  0.26070600  0.91163330  0.45682130  1
  C  778  1  0.21165600  0.91166630  0.44894130  1
  C  779  1  0.17443400  0.90501630  0.46206030  1
  C  780  1  0.18605000  0.89963300  0.48331100  1
  C  805  1  0.95070200  0.99191432  0.15644432  1
  C  807  1  0.03706500  0.00153400  0.16211900  1
  C  808  1  0.04487000  0.97930330  0.16657430  1
  C  810  1  0.95828800  0.96972430  0.16137530  1
  C  812  1  0.91878200  0.95163530  0.16155130  1
  C  817  1  0.09378500  0.97125730  0.17153130  1
  C  820  1  0.90192700  0.99885932  0.14973732  1
  C  823  1  0.95067200  0.45421300  0.11950700  1
  C  825  1  0.03703900  0.45027300  0.10989600  1
  C  826  1  0.04483700  0.47696000  0.13212400  1
  C  828  1  0.95825300  0.48133600  0.14169700  1
  C  830  1  0.91874600  0.49959700  0.15978900  1
  C  835  1  0.09374800  0.48996700  0.14017100  1
  C  838  1  0.90190200  0.44055600  0.11256800  1
  C  841  1  0.95060000  0.95487430  0.65718130  1
  C  843  1  0.03694800  0.94913930  0.66110730  1
  C  844  1  0.04477100  0.94472930  0.63443930  1
  C  846  1  0.95819800  0.94996930  0.63007130  1
  C  848  1  0.91870800  0.94984530  0.61182330  1
  C  853  1  0.09369000  0.93977430  0.62144230  1
  C  856  1  0.90183400  0.96160930  0.67084230  1
  C  859  1  0.45068000  0.94211030  0.13224730  1
  C  861  1  0.53701500  0.93240830  0.12646630  1
  C  862  1  0.54485700  0.95467730  0.12207630  1
  C  864  1  0.45830200  0.96433530  0.12737430  1
  C  866  1  0.41883200  0.98248730  0.12728530  1
  C  871  1  0.59377900  0.96270030  0.11710030  1
  C  874  1  0.40191200  0.93519530  0.13899130  1
  C  877  1  0.45067300  0.47977300  0.16923500  1
  C  879  1  0.53700000  0.48370800  0.17895600  1
  C  880  1  0.54486100  0.45704900  0.15669000  1
  C  882  1  0.45831700  0.45267800  0.14700800  1
  C  884  1  0.41886200  0.43443300  0.12884300  1
  C  889  1  0.59378600  0.44405600  0.14868200  1
  C  892  1  0.40189400  0.49341700  0.17614700  1
  C  895  1  0.45070600  0.97911630  0.63160530  1
  C  897  1  0.53705500  0.98483530  0.62766230  1
  C  898  1  0.54488600  0.98927030  0.65433630  1
  C  900  1  0.45832100  0.98402630  0.65871530  1
  C  902  1  0.41884000  0.98415830  0.67697330  1
  C  907  1  0.59380800  0.99423832  0.66733532  1
  C  910  1  0.40193100  0.97238930  0.61795530  1
  C  913  1  0.73814200  0.98979830  0.88033830  1
  C  915  1  0.77164500  0.01750900  0.92554400  1
  C  916  1  0.79127900  0.99399932  0.92485532  1
  C  918  1  0.75717400  0.96593130  0.87969130  1
  C  920  1  0.75142000  0.93757230  0.85620430  1
  C  925  1  0.82026500  0.99526732  0.94766432  1
  C  928  1  0.71171800  0.98929030  0.85696530  1
  C  931  1  0.73821100  0.18016700  0.12160600  1
  C  933  1  0.77162500  0.19763700  0.09385400  1
  C  934  1  0.79130400  0.22046200  0.11734500  1
  C  936  1  0.75730600  0.20338500  0.14545400  1
  C  938  1  0.75161900  0.20827300  0.17382100  1
  C  943  1  0.82024900  0.24199800  0.11604500  1
  C  946  1  0.71180200  0.15731400  0.12214500  1
  C  949  1  0.73823700  0.23106700  0.93122800  1
  C  951  1  0.77167200  0.18585000  0.91375800  1
  C  952  1  0.79133300  0.18651600  0.89092900  1
  C  954  1  0.75731600  0.23169700  0.90800800  1
  C  956  1  0.75161100  0.25517600  0.90311700  1
  C  961  1  0.82028200  0.16368300  0.86939200  1
  C  964  1  0.71179300  0.25444900  0.95407200  1
  C  967  1  0.23823700  0.94420330  0.40844830  1
  C  969  1  0.27154900  0.91644630  0.36320030  1
  C  970  1  0.29121900  0.93993130  0.36385430  1
  C  972  1  0.25732500  0.96804530  0.40906430  1
  C  974  1  0.25170200  0.99641432  0.43255532  1
  C  979  1  0.32011900  0.93862230  0.34099930  1
  C  982  1  0.21188000  0.94474630  0.43185530  1
  C  985  1  0.23813800  0.75384100  0.16714600  1
  C  987  1  0.27153000  0.73634800  0.19488300  1
  C  988  1  0.29119000  0.71352200  0.17138700  1
  C  990  1  0.25718500  0.73061300  0.14329100  1
  C  992  1  0.25149600  0.72573500  0.11492600  1
  C  997  1  0.32015900  0.69199100  0.17268100  1
  C  1000  1  0.21177300  0.77671300  0.16662100  1
  C  1003  1  0.23828800  0.70297600  0.35755800  1
  C  1005  1  0.27175000  0.74819300  0.37507800  1
  C  1006  1  0.29132600  0.74751300  0.39791600  1
  C  1008  1  0.25727000  0.70233500  0.38079300  1
  C  1010  1  0.25149300  0.67884700  0.38566200  1
  C  1015  1  0.32027300  0.77033100  0.41947400  1
  C  1018  1  0.21193500  0.67958900  0.33466900  1
  N  41  1  0.79670100  0.51135000  0.31293600  1
  N  42  1  0.70190400  0.66788500  0.44980600  1
  N  43  1  0.90462600  0.55371800  0.49689800  1
  N  44  1  0.59244800  0.49900800  0.44788400  1
  N  90  1  0.79670600  0.80301400  0.48975800  1
  N  91  1  0.70193100  0.78336800  0.33328700  1
  N  92  1  0.90460000  0.94468600  0.44747700  1
  N  93  1  0.59245500  0.95036300  0.50216800  1
  N  139  1  0.79674500  0.68820300  0.19815500  1
  N  140  1  0.70190800  0.55142100  0.21784200  1
  N  141  1  0.90453300  0.50418700  0.05648800  1
  N  142  1  0.59250600  0.55326300  0.05079400  1
  N  188  1  0.29659700  0.49031700  0.68759100  1
  N  189  1  0.20196900  0.33389200  0.55079100  1
  N  190  1  0.40459000  0.44801800  0.50358400  1
  N  191  1  0.09250500  0.50276300  0.55261500  1
  N  237  1  0.29665900  0.19870000  0.51078200  1
  N  238  1  0.20219300  0.21842000  0.66727500  1
  N  239  1  0.40454600  0.05700800  0.55311900  1
  N  240  1  0.09246800  0.05136200  0.49842300  1
  N  286  1  0.29668100  0.31354900  0.80252100  1
  N  287  1  0.20200600  0.45036300  0.78281900  1
  N  288  1  0.40460500  0.49752800  0.94412900  1
  N  289  1  0.09238800  0.44849300  0.94980000  1
  N  296  1  0.99083000  0.54052900  0.51294800  1
  N  299  1  0.00500400  0.49834500  0.52181600  1
  N  314  1  0.99080400  0.97392700  0.46067800  1
  N  317  1  0.00496700  0.02498400  0.50286000  1
  N  332  1  0.99071800  0.48812000  0.02723900  1
  N  335  1  0.00491600  0.47930500  0.97620900  1
  N  350  1  0.49078100  0.46117900  0.48749600  1
  N  353  1  0.50502000  0.50342600  0.47873400  1
  N  368  1  0.49075900  0.02778100  0.53996100  1
  N  371  1  0.50503800  0.97677700  0.49770800  1
  N  386  1  0.49081800  0.51360400  0.97336400  1
  N  389  1  0.50504200  0.52243600  0.02440100  1
  N  404  1  0.74657000  0.54830600  0.25931000  1
  N  407  1  0.78302600  0.50321100  0.25781900  1
  N  422  1  0.74656400  0.71244500  0.45286800  1
  N  425  1  0.78312600  0.75604800  0.49792400  1
  N  440  1  0.74659400  0.74187400  0.28872700  1
  N  443  1  0.78314100  0.74333100  0.24512300  1
  N  458  1  0.24653000  0.45342200  0.74128900  1
  N  461  1  0.28309500  0.49846800  0.74272500  1
  N  476  1  0.24650100  0.28929300  0.54770600  1
  N  479  1  0.28300000  0.24567800  0.50263400  1
  N  494  1  0.24671300  0.25990700  0.71190000  1
  N  497  1  0.28307300  0.25842900  0.75552800  1
  N  551  1  0.79670100  0.97748230  0.95702430  1
  N  552  1  0.70190400  0.13401700  0.09389400  1
  N  553  1  0.90462600  0.01985000  0.14098600  1
  N  554  1  0.59244800  0.96514030  0.09197230  1
  N  600  1  0.79670600  0.26914600  0.13384600  1
  N  601  1  0.70193100  0.24950000  0.97737500  1
  N  602  1  0.90460000  0.41081800  0.09156500  1
  N  603  1  0.59245500  0.41649500  0.14625600  1
  N  649  1  0.79674500  0.15433500  0.84224300  1
  N  650  1  0.70190800  0.01755300  0.86193000  1
  N  651  1  0.90453300  0.97031930  0.70057630  1
  N  652  1  0.59250600  0.01939500  0.69488200  1
  N  698  1  0.29659700  0.95644930  0.33167930  1
  N  699  1  0.20196900  0.80002400  0.19487900  1
  N  700  1  0.40459000  0.91415030  0.14767230  1
  N  701  1  0.09250500  0.96889530  0.19670330  1
  N  747  1  0.29665900  0.66483200  0.15487000  1
  N  748  1  0.20219300  0.68455200  0.31136300  1
  N  749  1  0.40454600  0.52314000  0.19720700  1
  N  750  1  0.09246800  0.51749400  0.14251100  1
  N  796  1  0.29668100  0.77968100  0.44660900  1
  N  797  1  0.20200600  0.91649530  0.42690730  1
  N  798  1  0.40460500  0.96366030  0.58821730  1
  N  799  1  0.09238800  0.91462530  0.59388830  1
  N  806  1  0.99083000  0.00666100  0.15703600  1
  N  809  1  0.00500400  0.96447730  0.16590430  1
  N  824  1  0.99080400  0.44005900  0.10476600  1
  N  827  1  0.00496700  0.49111600  0.14694800  1
  N  842  1  0.99071800  0.95425230  0.67132730  1
  N  845  1  0.00491600  0.94543730  0.62029730  1
  N  860  1  0.49078100  0.92731130  0.13158430  1
  N  863  1  0.50502000  0.96955830  0.12282230  1
  N  878  1  0.49075900  0.49391300  0.18404900  1
  N  881  1  0.50503800  0.44290900  0.14179600  1
  N  896  1  0.49081800  0.97973630  0.61745230  1
  N  899  1  0.50504200  0.98856830  0.66848930  1
  N  914  1  0.74657000  0.01443800  0.90339800  1
  N  917  1  0.78302600  0.96934330  0.90190730  1
  N  932  1  0.74656400  0.17857700  0.09695600  1
  N  935  1  0.78312600  0.22218000  0.14201200  1
  N  950  1  0.74659400  0.20800600  0.93281500  1
  N  953  1  0.78314100  0.20946300  0.88921100  1
  N  968  1  0.24653000  0.91955430  0.38537730  1
  N  971  1  0.28309500  0.96460030  0.38681330  1
  N  986  1  0.24650100  0.75542500  0.19179400  1
  N  989  1  0.28300000  0.71181000  0.14672200  1
  N  1004  1  0.24671300  0.72603900  0.35598800  1
  N  1007  1  0.28307300  0.72456100  0.39961600  1
  O  303  1  0.88294100  0.50036800  0.53836000  1
  O  321  1  0.88289900  0.03949700  0.50083900  1
  O  339  1  0.88282400  0.46283100  0.96168300  1
  O  357  1  0.38291600  0.50155600  0.46232400  1
  O  375  1  0.38293800  0.96221200  0.49953900  1
  O  393  1  0.38295300  0.53890900  0.03893800  1
  O  411  1  0.70107400  0.46319500  0.20666900  1
  O  429  1  0.70129400  0.74496100  0.53801700  1
  O  447  1  0.70128100  0.79450100  0.25621300  1
  O  465  1  0.20139000  0.53858400  0.79397800  1
  O  483  1  0.20116600  0.25682000  0.46257100  1
  O  501  1  0.20113600  0.20725400  0.74433400  1
  O  813  1  0.88294100  0.96650030  0.18244830  1
  O  831  1  0.88289900  0.50562900  0.14492700  1
  O  849  1  0.88282400  0.92896330  0.60577130  1
  O  867  1  0.38291600  0.96768830  0.10641230  1
  O  885  1  0.38293800  0.42834400  0.14362700  1
  O  903  1  0.38295300  0.00504100  0.68302600  1
  O  921  1  0.70107400  0.92932730  0.85075730  1
  O  939  1  0.70129400  0.21109300  0.18210500  1
  O  957  1  0.70128100  0.26063300  0.90030100  1
  O  975  1  0.20139000  0.00471600  0.43806600  1
  O  993  1  0.20116600  0.72295200  0.10665900  1
  O  1011  1  0.20113600  0.67338600  0.38842200  1
