# generated using pymatgen
data_H30C45N4
_symmetry_space_group_name_H-M   'P 1'
_cell_length_a   40.28246875
_cell_length_b   40.28454541
_cell_length_c   41.68850000
_cell_angle_alpha   89.99955630
_cell_angle_beta   89.99955628
_cell_angle_gamma   112.62830683
_symmetry_Int_Tables_number   1
_chemical_formula_structural   H30C45N4
_chemical_formula_sum   'H360 C540 N48'
_cell_volume   62442.75290780
_cell_formula_units_Z   12
loop_
 _symmetry_equiv_pos_site_id
 _symmetry_equiv_pos_as_xyz
  1  'x, y, z'
loop_
 _atom_site_type_symbol
 _atom_site_label
 _atom_site_symmetry_multiplicity
 _atom_site_fract_x
 _atom_site_fract_y
 _atom_site_fract_z
 _atom_site_occupancy
  C  2  1  0.94211150  0.31467450  0.03035050  1
  C  3  1  0.94026750  0.31142550  0.97177500  1
  C  4  1  0.96124050  0.37015150  0.99869400  1
  C  5  1  0.96745500  0.30964400  0.95136600  1
  C  6  1  0.95842950  0.28936650  0.92286450  1
  C  7  1  0.92198900  0.27075300  0.91412100  1
  C  8  1  0.89484500  0.27281600  0.93457050  1
  C  9  1  0.90390950  0.29271950  0.96323200  1
  C  10  1  0.96330200  0.29604100  0.04115950  1
  C  11  1  0.95661550  0.27880150  0.07119900  1
  C  12  1  0.92859650  0.27988150  0.09117100  1
  C  13  1  0.90768650  0.29894650  0.08029900  1
  C  14  1  0.91426300  0.31600800  0.05016550  1
  C  15  1  0.99496800  0.39208800  0.01147300  1
  C  16  1  0.00612500  0.42976200  0.01160400  1
  C  17  1  0.98434300  0.44673200  0.99812800  1
  C  18  1  0.95059150  0.42432150  0.98518500  1
  C  19  1  0.93909450  0.38663750  0.98564900  1
  C  32  1  0.99375750  0.48402650  0.99858450  1
  C  33  1  0.92157450  0.26301350  0.12082800  1
  C  34  1  0.91261450  0.25156050  0.88580600  1
  C  39  1  0.07824150  0.67912150  0.03126950  1
  C  40  1  0.08023550  0.68123650  0.97264700  1
  C  41  1  0.05961050  0.62309950  0.00026450  1
  C  42  1  0.05307850  0.68233850  0.95183550  1
  C  43  1  0.06215500  0.70172200  0.92286800  1
  C  44  1  0.09861200  0.72002300  0.91406950  1
  C  45  1  0.12574600  0.71867500  0.93490650  1
  C  46  1  0.11661850  0.69967850  0.96403200  1
  C  47  1  0.05705300  0.69794900  0.04163900  1
  C  48  1  0.06385000  0.71588900  0.07136500  1
  C  49  1  0.09198800  0.71534700  0.09147700  1
  C  50  1  0.11292300  0.69612500  0.08100000  1
  C  51  1  0.10624550  0.67836950  0.05119050  1
  C  52  1  0.02570700  0.60094300  0.01256550  1
  C  53  1  0.01468250  0.56327650  0.01245000  1
  C  54  1  0.03683300  0.54657400  0.99924100  1
  C  55  1  0.07083800  0.56919400  0.98693900  1
  C  56  1  0.08216100  0.60685100  0.98761600  1
  C  69  1  0.02746300  0.50930300  0.99930750  1
  C  70  1  0.09902500  0.73259700  0.12100000  1
  C  71  1  0.10793900  0.73865500  0.88552200  1
  C  76  1  0.32995750  0.92624350  0.46957200  1
  C  77  1  0.32290950  0.92234650  0.52771900  1
  C  78  1  0.38359650  0.94475150  0.50372600  1
  C  79  1  0.32055950  0.94919550  0.54823050  1
  C  80  1  0.29556500  0.94002700  0.57361650  1
  C  81  1  0.27237050  0.90376850  0.57903100  1
  C  82  1  0.27541050  0.87694950  0.55869150  1
  C  83  1  0.30052350  0.88610350  0.53347400  1
  C  84  1  0.31143950  0.94763850  0.45898450  1
  C  85  1  0.29484300  0.94176200  0.42867050  1
  C  86  1  0.29644000  0.91435800  0.40818950  1
  C  87  1  0.31563150  0.89343250  0.41873000  1
  C  88  1  0.33206900  0.89921000  0.44914350  1
  C  89  1  0.40532550  0.97897450  0.49175450  1
  C  90  1  0.44305350  0.99100950  0.49275600  1
  C  91  1  0.46026200  0.96966100  0.50664500  1
  C  92  1  0.43803150  0.93551750  0.51900500  1
  C  93  1  0.40029650  0.92313850  0.51740700  1
  C  106  1  0.49766600  0.97974200  0.50668700  1
  C  107  1  0.27959300  0.90772500  0.37851850  1
  C  108  1  0.24505950  0.89440550  0.60166750  1
  C  113  1  0.69074400  0.06631500  0.46863550  1
  C  114  1  0.69668650  0.07085950  0.52683000  1
  C  115  1  0.63650350  0.04826050  0.50219900  1
  C  116  1  0.69897250  0.04446250  0.54792500  1
  C  117  1  0.72330300  0.05429200  0.57380850  1
  C  118  1  0.74582450  0.09078050  0.57919850  1
  C  119  1  0.74277150  0.11713450  0.55827200  1
  C  120  1  0.71837500  0.10731500  0.53251050  1
  C  121  1  0.70974450  0.04515250  0.45861150  1
  C  122  1  0.72714600  0.05122700  0.42864650  1
  C  123  1  0.72590650  0.07860950  0.40793900  1
  C  124  1  0.70627650  0.09933150  0.41795650  1
  C  125  1  0.68904450  0.09336950  0.44801100  1
  C  126  1  0.61457350  0.01386050  0.49073550  1
  C  127  1  0.57685800  0.00197400  0.49197450  1
  C  128  1  0.55990050  0.02368650  0.50559800  1
  C  129  1  0.58232050  0.05808550  0.51729150  1
  C  130  1  0.62002250  0.07029350  0.51545550  1
  C  143  1  0.52252850  0.01366550  0.50600550  1
  C  144  1  0.74315900  0.08527700  0.37841400  1
  C  145  1  0.77278350  0.10083250  0.60221250  1
  C  297  1  0.07751350  0.92692350  0.25535250  1
  C  298  1  0.17398400  0.89408600  0.30095400  1
  C  299  1  0.11136700  0.83499000  0.20145500  1
  C  300  1  0.20929100  0.89685900  0.29363150  1
  C  301  1  0.23493800  0.90173300  0.31802900  1
  C  302  1  0.22591350  0.90379450  0.35054400  1
  C  303  1  0.19079700  0.90096300  0.35797450  1
  C  304  1  0.16520250  0.89602550  0.33361500  1
  C  305  1  0.06283650  0.93205550  0.28494350  1
  C  306  1  0.04148350  0.95260050  0.28679300  1
  C  307  1  0.03388850  0.96843650  0.25908350  1
  C  308  1  0.04832800  0.96342500  0.22941000  1
  C  309  1  0.06980850  0.94298650  0.22761800  1
  C  310  1  0.10751000  0.84432400  0.16931200  1
  C  311  1  0.10213900  0.81943500  0.14422200  1
  C  312  1  0.10066900  0.78448400  0.15037700  1
  C  313  1  0.10425900  0.77484900  0.18243300  1
  C  314  1  0.10961850  0.79976650  0.20753100  1
  C  326  1  0.11647650  0.86028350  0.22690400  1
  C  327  1  0.09512000  0.88109000  0.22879450  1
  C  328  1  0.09956050  0.90636150  0.25363500  1
  C  329  1  0.12633250  0.91050150  0.27698200  1
  C  330  1  0.14797300  0.88994900  0.27633550  1
  C  331  1  0.14271300  0.86508000  0.25098200  1
  C  339  1  0.93899650  0.06233050  0.24720150  1
  C  340  1  0.84698400  0.09755100  0.29938750  1
  C  341  1  0.90731050  0.15856750  0.19971850  1
  C  342  1  0.81193950  0.09605150  0.29280850  1
  C  343  1  0.78670450  0.09102550  0.31758050  1
  C  344  1  0.79583850  0.08754350  0.34981150  1
  C  345  1  0.83064950  0.08890050  0.35648700  1
  C  346  1  0.85584900  0.09392200  0.33172000  1
  C  347  1  0.95523850  0.05530250  0.27512900  1
  C  348  1  0.97597800  0.03408400  0.27374950  1
  C  349  1  0.98101800  0.01918600  0.24432900  1
  C  350  1  0.96480450  0.02592050  0.21647400  1
  C  351  1  0.94402900  0.04706200  0.21789950  1
  C  352  1  0.90933300  0.14926600  0.16721700  1
  C  353  1  0.91470600  0.17457700  0.14252700  1
  C  354  1  0.91790050  0.20991450  0.14946050  1
  C  355  1  0.91580650  0.21946150  0.18182300  1
  C  356  1  0.91049550  0.19410250  0.20655100  1
  C  368  1  0.90275650  0.13285750  0.22468650  1
  C  369  1  0.92308500  0.11100300  0.22463550  1
  C  370  1  0.91858100  0.08453400  0.24835900  1
  C  371  1  0.89318200  0.08061900  0.27297500  1
  C  372  1  0.87254450  0.10218950  0.27424400  1
  C  373  1  0.87772450  0.12812950  0.24980900  1
  C  381  1  0.94296600  0.06618400  0.74585150  1
  C  382  1  0.84574000  0.09843100  0.70168450  1
  C  383  1  0.90749500  0.15566400  0.80219700  1
  C  384  1  0.80950200  0.09242400  0.70877400  1
  C  385  1  0.78421500  0.08752300  0.68401900  1
  C  386  1  0.79471950  0.08944750  0.65157450  1
  C  387  1  0.83083600  0.09536400  0.64437500  1
  C  388  1  0.85595550  0.09991650  0.66905350  1
  C  389  1  0.95769250  0.06163550  0.71609350  1
  C  390  1  0.97914750  0.04122050  0.71379950  1
  C  391  1  0.98675750  0.02493750  0.74121500  1
  C  392  1  0.97223350  0.02936650  0.77104000  1
  C  393  1  0.95067850  0.04967050  0.77328000  1
  C  394  1  0.91369250  0.14654150  0.83384800  1
  C  395  1  0.91957250  0.17108450  0.85929750  1
  C  396  1  0.91881750  0.20533750  0.85405400  1
  C  397  1  0.91280950  0.21481650  0.82256800  1
  C  398  1  0.90718250  0.19031550  0.79708150  1
  C  410  1  0.90253850  0.13093250  0.77623600  1
  C  411  1  0.92463750  0.11094450  0.77343200  1
  C  412  1  0.92058350  0.08634150  0.74809300  1
  C  413  1  0.89369850  0.08228750  0.72491800  1
  C  414  1  0.87140700  0.10210200  0.72641800  1
  C  415  1  0.87597050  0.12602350  0.75241800  1
  C  423  1  0.08188500  0.93139600  0.75390500  1
  C  424  1  0.17424750  0.89613550  0.70290550  1
  C  425  1  0.11498050  0.83723250  0.80380300  1
  C  426  1  0.21027100  0.90066500  0.70926100  1
  C  427  1  0.23505550  0.90560150  0.68408500  1
  C  428  1  0.22427000  0.90523900  0.65186400  1
  C  429  1  0.18840900  0.90094600  0.64537050  1
  C  430  1  0.16379000  0.89642000  0.67051800  1
  C  431  1  0.06556300  0.93789500  0.72579600  1
  C  432  1  0.04478450  0.95909550  0.72676000  1
  C  433  1  0.03980050  0.97445150  0.75594200  1
  C  434  1  0.05607600  0.96824300  0.78396900  1
  C  435  1  0.07691600  0.94716500  0.78294700  1
  C  436  1  0.11072700  0.84643800  0.83593050  1
  C  437  1  0.10485850  0.82146950  0.86099000  1
  C  438  1  0.10378300  0.78668900  0.85486600  1
  C  439  1  0.10815550  0.77719450  0.82295800  1
  C  440  1  0.11370950  0.80214150  0.79783350  1
  C  452  1  0.11942900  0.86240100  0.77831150  1
  C  453  1  0.09842100  0.88359900  0.77747750  1
  C  454  1  0.10255350  0.90943850  0.75324300  1
  C  455  1  0.12797550  0.91310550  0.72873400  1
  C  456  1  0.14915800  0.89207600  0.72825650  1
  C  457  1  0.14470950  0.86707950  0.75337750  1
  C  634  1  0.23303250  0.60559550  0.03035050  1
  C  635  1  0.23118850  0.60234650  0.97177500  1
  C  636  1  0.25216150  0.66107250  0.99869400  1
  C  637  1  0.25837600  0.60056500  0.95136600  1
  C  638  1  0.24935050  0.58028750  0.92286450  1
  C  639  1  0.21291000  0.56167400  0.91412100  1
  C  640  1  0.18576600  0.56373700  0.93457050  1
  C  641  1  0.19483050  0.58364050  0.96323200  1
  C  642  1  0.25422300  0.58696200  0.04115950  1
  C  643  1  0.24753650  0.56972250  0.07119900  1
  C  644  1  0.21951750  0.57080250  0.09117100  1
  C  645  1  0.19860750  0.58986750  0.08029900  1
  C  646  1  0.20518400  0.60692900  0.05016550  1
  C  647  1  0.28588900  0.68300900  0.01147300  1
  C  648  1  0.29704623  0.72068323  0.01160400  1
  C  649  1  0.27526423  0.73765323  0.99812800  1
  C  650  1  0.24151250  0.71524250  0.98518500  1
  C  651  1  0.23001550  0.67755850  0.98564900  1
  C  664  1  0.28467875  0.77494775  0.99858450  1
  C  665  1  0.21249550  0.55393450  0.12082800  1
  C  666  1  0.20353550  0.54248150  0.88580600  1
  C  671  1  0.36916250  0.97004250  0.03126950  1
  C  672  1  0.37115650  0.97215750  0.97264700  1
  C  673  1  0.35053150  0.91402050  0.00026450  1
  C  674  1  0.34399950  0.97325950  0.95183550  1
  C  675  1  0.35307600  0.99264300  0.92286800  1
  C  676  1  0.38953300  0.01094400  0.91406950  1
  C  677  1  0.41666700  0.00959600  0.93490650  1
  C  678  1  0.40753950  0.99059950  0.96403200  1
  C  679  1  0.34797400  0.98887000  0.04163900  1
  C  680  1  0.35477100  0.00681000  0.07136500  1
  C  681  1  0.38290900  0.00626800  0.09147700  1
  C  682  1  0.40384400  0.98704600  0.08100000  1
  C  683  1  0.39716650  0.96929050  0.05119050  1
  C  684  1  0.31662800  0.89186400  0.01256550  1
  C  685  1  0.30560375  0.85419775  0.01245000  1
  C  686  1  0.32775425  0.83749525  0.99924100  1
  C  687  1  0.36175900  0.86011500  0.98693900  1
  C  688  1  0.37308200  0.89777200  0.98761600  1
  C  701  1  0.31838425  0.80022425  0.99930750  1
  C  702  1  0.38994600  0.02351800  0.12100000  1
  C  703  1  0.39886000  0.02957600  0.88552200  1
  C  708  1  0.62087850  0.21716450  0.46957200  1
  C  709  1  0.61383050  0.21326750  0.52771900  1
  C  710  1  0.67451750  0.23567250  0.50372600  1
  C  711  1  0.61148050  0.24011650  0.54823050  1
  C  712  1  0.58648600  0.23094800  0.57361650  1
  C  713  1  0.56329150  0.19468950  0.57903100  1
  C  714  1  0.56633150  0.16787050  0.55869150  1
  C  715  1  0.59144450  0.17702450  0.53347400  1
  C  716  1  0.60236050  0.23855950  0.45898450  1
  C  717  1  0.58576400  0.23268300  0.42867050  1
  C  718  1  0.58736100  0.20527900  0.40818950  1
  C  719  1  0.60655250  0.18435350  0.41873000  1
  C  720  1  0.62299000  0.19013100  0.44914350  1
  C  721  1  0.69624650  0.26989550  0.49175450  1
  C  722  1  0.73397473  0.28193073  0.49275600  1
  C  723  1  0.75118323  0.26058223  0.50664500  1
  C  724  1  0.72895250  0.22643850  0.51900500  1
  C  725  1  0.69121750  0.21405950  0.51740700  1
  C  738  1  0.78858725  0.27066325  0.50668700  1
  C  739  1  0.57051400  0.19864600  0.37851850  1
  C  740  1  0.53598050  0.18532650  0.60166750  1
  C  745  1  0.98166500  0.35723600  0.46863550  1
  C  746  1  0.98760750  0.36178050  0.52683000  1
  C  747  1  0.92742450  0.33918150  0.50219900  1
  C  748  1  0.98989350  0.33538350  0.54792500  1
  C  749  1  0.01422400  0.34521300  0.57380850  1
  C  750  1  0.03674550  0.38170150  0.57919850  1
  C  751  1  0.03369250  0.40805550  0.55827200  1
  C  752  1  0.00929600  0.39823600  0.53251050  1
  C  753  1  0.00066550  0.33607350  0.45861150  1
  C  754  1  0.01806700  0.34214800  0.42864650  1
  C  755  1  0.01682750  0.36953050  0.40793900  1
  C  756  1  0.99719750  0.39025250  0.41795650  1
  C  757  1  0.97996550  0.38429050  0.44801100  1
  C  758  1  0.90549450  0.30478150  0.49073550  1
  C  759  1  0.86777925  0.29289525  0.49197450  1
  C  760  1  0.85082175  0.31460775  0.50559800  1
  C  761  1  0.87324150  0.34900650  0.51729150  1
  C  762  1  0.91094350  0.36121450  0.51545550  1
  C  775  1  0.81344975  0.30458675  0.50600550  1
  C  776  1  0.03408000  0.37619800  0.37841400  1
  C  777  1  0.06370450  0.39175350  0.60221250  1
  C  929  1  0.36843450  0.21784450  0.25535250  1
  C  930  1  0.46490500  0.18500700  0.30095400  1
  C  931  1  0.40228800  0.12591100  0.20145500  1
  C  932  1  0.50021200  0.18778000  0.29363150  1
  C  933  1  0.52585900  0.19265400  0.31802900  1
  C  934  1  0.51683450  0.19471550  0.35054400  1
  C  935  1  0.48171800  0.19188400  0.35797450  1
  C  936  1  0.45612350  0.18694650  0.33361500  1
  C  937  1  0.35375750  0.22297650  0.28494350  1
  C  938  1  0.33240450  0.24352150  0.28679300  1
  C  939  1  0.32480950  0.25935750  0.25908350  1
  C  940  1  0.33924900  0.25434600  0.22941000  1
  C  941  1  0.36072950  0.23390750  0.22761800  1
  C  942  1  0.39843100  0.13524500  0.16931200  1
  C  943  1  0.39306000  0.11035600  0.14422200  1
  C  944  1  0.39159000  0.07540500  0.15037700  1
  C  945  1  0.39518000  0.06577000  0.18243300  1
  C  946  1  0.40053950  0.09068750  0.20753100  1
  C  958  1  0.40739750  0.15120450  0.22690400  1
  C  959  1  0.38604100  0.17201100  0.22879450  1
  C  960  1  0.39048150  0.19728250  0.25363500  1
  C  961  1  0.41725350  0.20142250  0.27698200  1
  C  962  1  0.43889400  0.18087000  0.27633550  1
  C  963  1  0.43363400  0.15600100  0.25098200  1
  C  971  1  0.22991750  0.35325150  0.24720150  1
  C  972  1  0.13790500  0.38847200  0.29938750  1
  C  973  1  0.19823150  0.44948850  0.19971850  1
  C  974  1  0.10286050  0.38697250  0.29280850  1
  C  975  1  0.07762550  0.38194650  0.31758050  1
  C  976  1  0.08675950  0.37846450  0.34981150  1
  C  977  1  0.12157050  0.37982150  0.35648700  1
  C  978  1  0.14677000  0.38484300  0.33172000  1
  C  979  1  0.24615950  0.34622350  0.27512900  1
  C  980  1  0.26689900  0.32500500  0.27374950  1
  C  981  1  0.27193900  0.31010700  0.24432900  1
  C  982  1  0.25572550  0.31684150  0.21647400  1
  C  983  1  0.23495000  0.33798300  0.21789950  1
  C  984  1  0.20025400  0.44018700  0.16721700  1
  C  985  1  0.20562700  0.46549800  0.14252700  1
  C  986  1  0.20882150  0.50083550  0.14946050  1
  C  987  1  0.20672750  0.51038250  0.18182300  1
  C  988  1  0.20141650  0.48502350  0.20655100  1
  C  1000  1  0.19367750  0.42377850  0.22468650  1
  C  1001  1  0.21400600  0.40192400  0.22463550  1
  C  1002  1  0.20950200  0.37545500  0.24835900  1
  C  1003  1  0.18410300  0.37154000  0.27297500  1
  C  1004  1  0.16346550  0.39311050  0.27424400  1
  C  1005  1  0.16864550  0.41905050  0.24980900  1
  C  1013  1  0.23388700  0.35710500  0.74585150  1
  C  1014  1  0.13666100  0.38935200  0.70168450  1
  C  1015  1  0.19841600  0.44658500  0.80219700  1
  C  1016  1  0.10042300  0.38334500  0.70877400  1
  C  1017  1  0.07513600  0.37844400  0.68401900  1
  C  1018  1  0.08564050  0.38036850  0.65157450  1
  C  1019  1  0.12175700  0.38628500  0.64437500  1
  C  1020  1  0.14687650  0.39083750  0.66905350  1
  C  1021  1  0.24861350  0.35255650  0.71609350  1
  C  1022  1  0.27006850  0.33214150  0.71379950  1
  C  1023  1  0.27767850  0.31585850  0.74121500  1
  C  1024  1  0.26315450  0.32028750  0.77104000  1
  C  1025  1  0.24159950  0.34059150  0.77328000  1
  C  1026  1  0.20461350  0.43746250  0.83384800  1
  C  1027  1  0.21049350  0.46200550  0.85929750  1
  C  1028  1  0.20973850  0.49625850  0.85405400  1
  C  1029  1  0.20373050  0.50573750  0.82256800  1
  C  1030  1  0.19810350  0.48123650  0.79708150  1
  C  1042  1  0.19345950  0.42185350  0.77623600  1
  C  1043  1  0.21555850  0.40186550  0.77343200  1
  C  1044  1  0.21150450  0.37726250  0.74809300  1
  C  1045  1  0.18461950  0.37320850  0.72491800  1
  C  1046  1  0.16232800  0.39302300  0.72641800  1
  C  1047  1  0.16689150  0.41694450  0.75241800  1
  C  1055  1  0.37280600  0.22231700  0.75390500  1
  C  1056  1  0.46516850  0.18705650  0.70290550  1
  C  1057  1  0.40590150  0.12815350  0.80380300  1
  C  1058  1  0.50119200  0.19158600  0.70926100  1
  C  1059  1  0.52597650  0.19652250  0.68408500  1
  C  1060  1  0.51519100  0.19616000  0.65186400  1
  C  1061  1  0.47933000  0.19186700  0.64537050  1
  C  1062  1  0.45471100  0.18734100  0.67051800  1
  C  1063  1  0.35648400  0.22881600  0.72579600  1
  C  1064  1  0.33570550  0.25001650  0.72676000  1
  C  1065  1  0.33072150  0.26537250  0.75594200  1
  C  1066  1  0.34699700  0.25916400  0.78396900  1
  C  1067  1  0.36783700  0.23808600  0.78294700  1
  C  1068  1  0.40164800  0.13735900  0.83593050  1
  C  1069  1  0.39577950  0.11239050  0.86099000  1
  C  1070  1  0.39470400  0.07761000  0.85486600  1
  C  1071  1  0.39907650  0.06811550  0.82295800  1
  C  1072  1  0.40463050  0.09306250  0.79783350  1
  C  1084  1  0.41035000  0.15332200  0.77831150  1
  C  1085  1  0.38934200  0.17452000  0.77747750  1
  C  1086  1  0.39347450  0.20035950  0.75324300  1
  C  1087  1  0.41889650  0.20402650  0.72873400  1
  C  1088  1  0.44007900  0.18299700  0.72825650  1
  C  1089  1  0.43563050  0.15800050  0.75337750  1
  C  1266  1  0.52395450  0.89651750  0.03035050  1
  C  1267  1  0.52211050  0.89326850  0.97177500  1
  C  1268  1  0.54308350  0.95199450  0.99869400  1
  C  1269  1  0.54929800  0.89148700  0.95136600  1
  C  1270  1  0.54027250  0.87120950  0.92286450  1
  C  1271  1  0.50383200  0.85259600  0.91412100  1
  C  1272  1  0.47668800  0.85465900  0.93457050  1
  C  1273  1  0.48575250  0.87456250  0.96323200  1
  C  1274  1  0.54514500  0.87788400  0.04115950  1
  C  1275  1  0.53845850  0.86064450  0.07119900  1
  C  1276  1  0.51043950  0.86172450  0.09117100  1
  C  1277  1  0.48952950  0.88078950  0.08029900  1
  C  1278  1  0.49610600  0.89785100  0.05016550  1
  C  1279  1  0.57681100  0.97393100  0.01147300  1
  C  1280  1  0.58796800  0.01160500  0.01160400  1
  C  1281  1  0.56618600  0.02857500  0.99812800  1
  C  1282  1  0.53243450  0.00616450  0.98518500  1
  C  1283  1  0.52093750  0.96848050  0.98564900  1
  C  1296  1  0.57560050  0.06586950  0.99858450  1
  C  1297  1  0.50341750  0.84485650  0.12082800  1
  C  1298  1  0.49445750  0.83340350  0.88580600  1
  C  1303  1  0.66008450  0.26096450  0.03126950  1
  C  1304  1  0.66207850  0.26307950  0.97264700  1
  C  1305  1  0.64145350  0.20494250  0.00026450  1
  C  1306  1  0.63492150  0.26418150  0.95183550  1
  C  1307  1  0.64399800  0.28356500  0.92286800  1
  C  1308  1  0.68045500  0.30186600  0.91406950  1
  C  1309  1  0.70758896  0.30051796  0.93490650  1
  C  1310  1  0.69846150  0.28152150  0.96403200  1
  C  1311  1  0.63889600  0.27979200  0.04163900  1
  C  1312  1  0.64569300  0.29773200  0.07136500  1
  C  1313  1  0.67383100  0.29719000  0.09147700  1
  C  1314  1  0.69476600  0.27796800  0.08100000  1
  C  1315  1  0.68808850  0.26021250  0.05119050  1
  C  1316  1  0.60755000  0.18278600  0.01256550  1
  C  1317  1  0.59652550  0.14511950  0.01245000  1
  C  1318  1  0.61867600  0.12841700  0.99924100  1
  C  1319  1  0.65268100  0.15103700  0.98693900  1
  C  1320  1  0.66400400  0.18869400  0.98761600  1
  C  1333  1  0.60930600  0.09114600  0.99930750  1
  C  1334  1  0.68086800  0.31444000  0.12100000  1
  C  1335  1  0.68978196  0.32049796  0.88552200  1
  C  1340  1  0.91180050  0.50808650  0.46957200  1
  C  1341  1  0.90475250  0.50418950  0.52771900  1
  C  1342  1  0.96543950  0.52659450  0.50372600  1
  C  1343  1  0.90240250  0.53103850  0.54823050  1
  C  1344  1  0.87740800  0.52187000  0.57361650  1
  C  1345  1  0.85421350  0.48561150  0.57903100  1
  C  1346  1  0.85725350  0.45879250  0.55869150  1
  C  1347  1  0.88236650  0.46794650  0.53347400  1
  C  1348  1  0.89328250  0.52948150  0.45898450  1
  C  1349  1  0.87668600  0.52360500  0.42867050  1
  C  1350  1  0.87828300  0.49620100  0.40818950  1
  C  1351  1  0.89747450  0.47527550  0.41873000  1
  C  1352  1  0.91391200  0.48105300  0.44914350  1
  C  1353  1  0.98716850  0.56081750  0.49175450  1
  C  1354  1  0.02489650  0.57285250  0.49275600  1
  C  1355  1  0.04210500  0.55150400  0.50664500  1
  C  1356  1  0.01987450  0.51736050  0.51900500  1
  C  1357  1  0.98213950  0.50498150  0.51740700  1
  C  1370  1  0.07950900  0.56158500  0.50668700  1
  C  1371  1  0.86143600  0.48956800  0.37851850  1
  C  1372  1  0.82690250  0.47624850  0.60166750  1
  C  1377  1  0.27258700  0.64815800  0.46863550  1
  C  1378  1  0.27852950  0.65270250  0.52683000  1
  C  1379  1  0.21834650  0.63010350  0.50219900  1
  C  1380  1  0.28081550  0.62630550  0.54792500  1
  C  1381  1  0.30514600  0.63613500  0.57380850  1
  C  1382  1  0.32766746  0.67262346  0.57919850  1
  C  1383  1  0.32461445  0.69897745  0.55827200  1
  C  1384  1  0.30021800  0.68915800  0.53251050  1
  C  1385  1  0.29158750  0.62699550  0.45861150  1
  C  1386  1  0.30898900  0.63307000  0.42864650  1
  C  1387  1  0.30774950  0.66045250  0.40793900  1
  C  1388  1  0.28811950  0.68117450  0.41795650  1
  C  1389  1  0.27088750  0.67521250  0.44801100  1
  C  1390  1  0.19641650  0.59570350  0.49073550  1
  C  1391  1  0.15870100  0.58381700  0.49197450  1
  C  1392  1  0.14174350  0.60552950  0.50559800  1
  C  1393  1  0.16416350  0.63992850  0.51729150  1
  C  1394  1  0.20186550  0.65213650  0.51545550  1
  C  1407  1  0.10437150  0.59550850  0.50600550  1
  C  1408  1  0.32500200  0.66712000  0.37841400  1
  C  1409  1  0.35462645  0.68267545  0.60221250  1
  C  1561  1  0.65935645  0.50876645  0.25535250  1
  C  1562  1  0.75582700  0.47592900  0.30095400  1
  C  1563  1  0.69320995  0.41683295  0.20145500  1
  C  1564  1  0.79113400  0.47870200  0.29363150  1
  C  1565  1  0.81678100  0.48357600  0.31802900  1
  C  1566  1  0.80775650  0.48563750  0.35054400  1
  C  1567  1  0.77264000  0.48280600  0.35797450  1
  C  1568  1  0.74704550  0.47786850  0.33361500  1
  C  1569  1  0.64467945  0.51389845  0.28494350  1
  C  1570  1  0.62332645  0.53444345  0.28679300  1
  C  1571  1  0.61573145  0.55027945  0.25908350  1
  C  1572  1  0.63017095  0.54526795  0.22941000  1
  C  1573  1  0.65165145  0.52482945  0.22761800  1
  C  1574  1  0.68935295  0.42616695  0.16931200  1
  C  1575  1  0.68398195  0.40127795  0.14422200  1
  C  1576  1  0.68251195  0.36632695  0.15037700  1
  C  1577  1  0.68610195  0.35669195  0.18243300  1
  C  1578  1  0.69146145  0.38160945  0.20753100  1
  C  1590  1  0.69831945  0.44212645  0.22690400  1
  C  1591  1  0.67696295  0.46293295  0.22879450  1
  C  1592  1  0.68140345  0.48820445  0.25363500  1
  C  1593  1  0.70817550  0.49234450  0.27698200  1
  C  1594  1  0.72981600  0.47179200  0.27633550  1
  C  1595  1  0.72455595  0.44692295  0.25098200  1
  C  1603  1  0.52083945  0.64417345  0.24720150  1
  C  1604  1  0.42882695  0.67939395  0.29938750  1
  C  1605  1  0.48915350  0.74041050  0.19971850  1
  C  1606  1  0.39378245  0.67789445  0.29280850  1
  C  1607  1  0.36854745  0.67286845  0.31758050  1
  C  1608  1  0.37768145  0.66938645  0.34981150  1
  C  1609  1  0.41249245  0.67074345  0.35648700  1
  C  1610  1  0.43769195  0.67576495  0.33172000  1
  C  1611  1  0.53708145  0.63714545  0.27512900  1
  C  1612  1  0.55782095  0.61592695  0.27374950  1
  C  1613  1  0.56286095  0.60102895  0.24432900  1
  C  1614  1  0.54664745  0.60776345  0.21647400  1
  C  1615  1  0.52587195  0.62890495  0.21789950  1
  C  1616  1  0.49117600  0.73110900  0.16721700  1
  C  1617  1  0.49654900  0.75642000  0.14252700  1
  C  1618  1  0.49974350  0.79175750  0.14946050  1
  C  1619  1  0.49764950  0.80130450  0.18182300  1
  C  1620  1  0.49233850  0.77594550  0.20655100  1
  C  1632  1  0.48459945  0.71470045  0.22468650  1
  C  1633  1  0.50492795  0.69284595  0.22463550  1
  C  1634  1  0.50042395  0.66637695  0.24835900  1
  C  1635  1  0.47502495  0.66246195  0.27297500  1
  C  1636  1  0.45438745  0.68403245  0.27424400  1
  C  1637  1  0.45956745  0.70997245  0.24980900  1
  C  1645  1  0.52480895  0.64802695  0.74585150  1
  C  1646  1  0.42758295  0.68027395  0.70168450  1
  C  1647  1  0.48933800  0.73750700  0.80219700  1
  C  1648  1  0.39134495  0.67426695  0.70877400  1
  C  1649  1  0.36605795  0.66936595  0.68401900  1
  C  1650  1  0.37656245  0.67129045  0.65157450  1
  C  1651  1  0.41267895  0.67720695  0.64437500  1
  C  1652  1  0.43779845  0.68175945  0.66905350  1
  C  1653  1  0.53953545  0.64347845  0.71609350  1
  C  1654  1  0.56099045  0.62306345  0.71379950  1
  C  1655  1  0.56860045  0.60678045  0.74121500  1
  C  1656  1  0.55407645  0.61120945  0.77104000  1
  C  1657  1  0.53252145  0.63151345  0.77328000  1
  C  1658  1  0.49553550  0.72838450  0.83384800  1
  C  1659  1  0.50141550  0.75292750  0.85929750  1
  C  1660  1  0.50066050  0.78718050  0.85405400  1
  C  1661  1  0.49465250  0.79665950  0.82256800  1
  C  1662  1  0.48902550  0.77215850  0.79708150  1
  C  1674  1  0.48438145  0.71277545  0.77623600  1
  C  1675  1  0.50648045  0.69278745  0.77343200  1
  C  1676  1  0.50242645  0.66818445  0.74809300  1
  C  1677  1  0.47554145  0.66413045  0.72491800  1
  C  1678  1  0.45324995  0.68394495  0.72641800  1
  C  1679  1  0.45781345  0.70786645  0.75241800  1
  C  1687  1  0.66372795  0.51323895  0.75390500  1
  C  1688  1  0.75609050  0.47797850  0.70290550  1
  C  1689  1  0.69682345  0.41907545  0.80380300  1
  C  1690  1  0.79211400  0.48250800  0.70926100  1
  C  1691  1  0.81689850  0.48744450  0.68408500  1
  C  1692  1  0.80611300  0.48708200  0.65186400  1
  C  1693  1  0.77025200  0.48278900  0.64537050  1
  C  1694  1  0.74563300  0.47826300  0.67051800  1
  C  1695  1  0.64740595  0.51973795  0.72579600  1
  C  1696  1  0.62662745  0.54093845  0.72676000  1
  C  1697  1  0.62164345  0.55629445  0.75594200  1
  C  1698  1  0.63791895  0.55008595  0.78396900  1
  C  1699  1  0.65875895  0.52900795  0.78294700  1
  C  1700  1  0.69256995  0.42828095  0.83593050  1
  C  1701  1  0.68670145  0.40331245  0.86099000  1
  C  1702  1  0.68562595  0.36853195  0.85486600  1
  C  1703  1  0.68999845  0.35903745  0.82295800  1
  C  1704  1  0.69555245  0.38398445  0.79783350  1
  C  1716  1  0.70127195  0.44424395  0.77831150  1
  C  1717  1  0.68026395  0.46544195  0.77747750  1
  C  1718  1  0.68439645  0.49128145  0.75324300  1
  C  1719  1  0.70981850  0.49494850  0.72873400  1
  C  1720  1  0.73100100  0.47391900  0.72825650  1
  C  1721  1  0.72655245  0.44892245  0.75337750  1
  H  20  1  0.99393000  0.32316900  0.95719650  1
  H  21  1  0.86822800  0.25973700  0.92886250  1
  H  22  1  0.88388400  0.29396900  0.97765550  1
  H  23  1  0.97868400  0.28873800  0.90834850  1
  H  24  1  0.89868850  0.32946750  0.04270900  1
  H  25  1  0.98380050  0.29507950  0.02720500  1
  H  26  1  0.97259400  0.26564400  0.07841900  1
  H  27  1  0.88719450  0.30028850  0.09408550  1
  H  28  1  0.01113150  0.38062050  0.02158300  1
  H  29  1  0.93365700  0.43523400  0.97559500  1
  H  30  1  0.91431550  0.37123750  0.97664550  1
  H  31  1  0.03013900  0.44450400  0.02228800  1
  H  35  1  0.97360500  0.49245700  0.99749400  1
  H  36  1  0.91311650  0.27413550  0.13868550  1
  H  37  1  0.89425950  0.25505450  0.87174100  1
  H  57  1  0.02659150  0.66895050  0.95770000  1
  H  58  1  0.15236600  0.73164100  0.92916150  1
  H  59  1  0.13661300  0.69886500  0.97874000  1
  H  60  1  0.04194050  0.70196350  0.90809450  1
  H  61  1  0.12186250  0.66482950  0.04405250  1
  H  62  1  0.03647650  0.69854850  0.02758600  1
  H  63  1  0.04782050  0.72910550  0.07827700  1
  H  64  1  0.13349700  0.69511100  0.09487200  1
  H  65  1  0.00919150  0.61223350  0.02228400  1
  H  66  1  0.08800450  0.55845250  0.97753800  1
  H  67  1  0.10703650  0.62240050  0.97890200  1
  H  68  1  0.99042400  0.54830700  0.02262950  1
  H  72  1  0.04768700  0.50094800  0.99900900  1
  H  73  1  0.10876200  0.72229800  0.13858500  1
  H  74  1  0.12491950  0.73368250  0.87080800  1
  H  94  1  0.33615400  0.97565500  0.54403100  1
  H  95  1  0.25878000  0.85050000  0.56157750  1
  H  96  1  0.30157750  0.86633150  0.51861100  1
  H  97  1  0.29354233  0.96023967  0.58730250  1
  H  98  1  0.34527400  0.88336600  0.45651600  1
  H  99  1  0.30974350  0.96743150  0.47345500  1
  H  100  1  0.28149500  0.95767000  0.42174750  1
  H  101  1  0.31724400  0.87330100  0.40460950  1
  H  102  1  0.39372300  0.99476400  0.48117750  1
  H  103  1  0.44914450  0.91885950  0.52881050  1
  H  104  1  0.38501900  0.89802900  0.52583100  1
  H  105  1  0.45767000  0.01526000  0.48240350  1
  H  109  1  0.50650700  0.95987700  0.50768750  1
  H  110  1  0.29096800  0.90002900  0.36036400  1
  H  111  1  0.22191950  0.87417150  0.59660400  1
  H  131  1  0.68383950  0.01786550  0.54381700  1
  H  132  1  0.75895400  0.14373300  0.56108550  1
  H  133  1  0.71730450  0.12677350  0.51726650  1
  H  134  1  0.72537850  0.03436950  0.58789900  1
  H  135  1  0.67555150  0.10909550  0.45498200  1
  H  136  1  0.71122250  0.02539950  0.47326050  1
  H  137  1  0.74075100  0.03542400  0.42212400  1
  H  138  1  0.70484300  0.11942700  0.40367900  1
  H  139  1  0.62602050  0.99773950  0.48051550  1
  H  140  1  0.57136950  0.07498950  0.52687600  1
  H  141  1  0.63543850  0.09550450  0.52356350  1
  H  142  1  0.56203600  0.97749100  0.48211750  1
  H  146  1  0.51375100  0.03359200  0.50625750  1
  H  147  1  0.73251750  0.09413850  0.36047500  1
  H  148  1  0.79536500  0.12198300  0.59762350  1
  H  315  1  0.18349850  0.90241250  0.38130600  1
  H  316  1  0.13986300  0.89360000  0.34009050  1
  H  317  1  0.26036300  0.90437300  0.31176850  1
  H  318  1  0.08038300  0.94056400  0.20583950  1
  H  319  1  0.06718600  0.92046800  0.30551850  1
  H  320  1  0.03132050  0.95573850  0.30858550  1
  H  321  1  0.04364000  0.97494900  0.20894700  1
  H  322  1  0.10906250  0.86962450  0.16374200  1
  H  323  1  0.10256900  0.74951400  0.18788400  1
  H  324  1  0.11147400  0.79161800  0.23047750  1
  H  325  1  0.09955900  0.82718100  0.12126800  1
  H  332  1  0.13071550  0.92952850  0.29451650  1
  H  333  1  0.07506200  0.87687800  0.21230250  1
  H  334  1  0.15821100  0.85005200  0.25011200  1
  H  335  1  0.21698800  0.89630300  0.27031100  1
  H  357  1  0.83803800  0.08639600  0.37958200  1
  H  358  1  0.88100150  0.09530550  0.33765600  1
  H  359  1  0.76150250  0.08946050  0.31176150  1
  H  360  1  0.93231300  0.05093500  0.19721300  1
  H  361  1  0.95290250  0.06636450  0.29668500  1
  H  362  1  0.98777400  0.03000400  0.29429250  1
  H  363  1  0.96797950  0.01542750  0.19485700  1
  H  364  1  0.90664750  0.12375050  0.16110450  1
  H  365  1  0.91872650  0.24505750  0.18773800  1
  H  366  1  0.90990650  0.20216050  0.22975000  1
  H  367  1  0.91617150  0.16690150  0.11931950  1
  H  374  1  0.88876950  0.06080350  0.28975300  1
  H  375  1  0.94222250  0.11500850  0.20726300  1
  H  376  1  0.86285700  0.14379600  0.25023150  1
  H  377  1  0.80410600  0.09772700  0.26971650  1
  H  399  1  0.83901400  0.09596100  0.62107000  1
  H  400  1  0.88193000  0.10441500  0.66287600  1
  H  401  1  0.75806050  0.08261650  0.68983100  1
  H  402  1  0.93999600  0.05159100  0.79514250  1
  H  403  1  0.95328150  0.07353150  0.69573450  1
  H  404  1  0.98934000  0.03848000  0.69190700  1
  H  405  1  0.97688850  0.01748450  0.79129600  1
  H  406  1  0.91370650  0.12166950  0.83881200  1
  H  407  1  0.91309800  0.23984400  0.81787300  1
  H  408  1  0.90380000  0.19848000  0.77450550  1
  H  409  1  0.92399400  0.16355700  0.88184250  1
  H  416  1  0.88971750  0.06390650  0.70685950  1
  H  417  1  0.94496900  0.11524400  0.78964500  1
  H  418  1  0.85984100  0.14036500  0.75382150  1
  H  419  1  0.80094850  0.09047550  0.73206950  1
  H  441  1  0.18006900  0.90146700  0.62226250  1
  H  442  1  0.13796150  0.89306250  0.66487250  1
  H  443  1  0.26103100  0.90925600  0.68942700  1
  H  444  1  0.08872650  0.94372350  0.80373550  1
  H  445  1  0.06793550  0.92652250  0.70441300  1
  H  446  1  0.03293600  0.96283600  0.70611900  1
  H  447  1  0.05293200  0.97909600  0.80541250  1
  H  448  1  0.11198950  0.87163050  0.84152050  1
  H  449  1  0.10655150  0.75182550  0.81769850  1
  H  450  1  0.11574950  0.79399450  0.77493000  1
  H  451  1  0.10168800  0.82903100  0.88387150  1
  H  458  1  0.13197950  0.93230450  0.71141950  1
  H  459  1  0.07902800  0.87959700  0.79459900  1
  H  460  1  0.16014750  0.85197450  0.75345800  1
  H  461  1  0.21905300  0.90134100  0.73238000  1
  H  652  1  0.28485100  0.61409000  0.95719650  1
  H  653  1  0.15914900  0.55065800  0.92886250  1
  H  654  1  0.17480500  0.58489000  0.97765550  1
  H  655  1  0.26960500  0.57965900  0.90834850  1
  H  656  1  0.18960950  0.62038850  0.04270900  1
  H  657  1  0.27472150  0.58600050  0.02720500  1
  H  658  1  0.26351500  0.55656500  0.07841900  1
  H  659  1  0.17811550  0.59120950  0.09408550  1
  H  660  1  0.30205250  0.67154150  0.02158300  1
  H  661  1  0.22457800  0.72615500  0.97559500  1
  H  662  1  0.20523650  0.66215850  0.97664550  1
  H  663  1  0.32106025  0.73542525  0.02228800  1
  H  667  1  0.26452625  0.78337825  0.99749400  1
  H  668  1  0.20403750  0.56505650  0.13868550  1
  H  669  1  0.18518050  0.54597550  0.87174100  1
  H  689  1  0.31751250  0.95987150  0.95770000  1
  H  690  1  0.44328700  0.02256200  0.92916150  1
  H  691  1  0.42753400  0.98978600  0.97874000  1
  H  692  1  0.33286150  0.99288450  0.90809450  1
  H  693  1  0.41278350  0.95575050  0.04405250  1
  H  694  1  0.32739750  0.98946950  0.02758600  1
  H  695  1  0.33874150  0.02002650  0.07827700  1
  H  696  1  0.42441800  0.98603200  0.09487200  1
  H  697  1  0.30011250  0.90315450  0.02228400  1
  H  698  1  0.37892550  0.84937350  0.97753800  1
  H  699  1  0.39795750  0.91332150  0.97890200  1
  H  700  1  0.28134525  0.83922825  0.02262950  1
  H  704  1  0.33860825  0.79186925  0.99900900  1
  H  705  1  0.39968300  0.01321900  0.13858500  1
  H  706  1  0.41584050  0.02460350  0.87080800  1
  H  726  1  0.62707500  0.26657600  0.54403100  1
  H  727  1  0.54970100  0.14142100  0.56157750  1
  H  728  1  0.59249850  0.15725250  0.51861100  1
  H  729  1  0.58446333  0.25116067  0.58730250  1
  H  730  1  0.63619500  0.17428700  0.45651600  1
  H  731  1  0.60066450  0.25835250  0.47345500  1
  H  732  1  0.57241600  0.24859100  0.42174750  1
  H  733  1  0.60816500  0.16422200  0.40460950  1
  H  734  1  0.68464400  0.28568500  0.48117750  1
  H  735  1  0.74006550  0.20978050  0.52881050  1
  H  736  1  0.67594000  0.18895000  0.52583100  1
  H  737  1  0.74859125  0.30618125  0.48240350  1
  H  741  1  0.79742825  0.25079825  0.50768750  1
  H  742  1  0.58188900  0.19095000  0.36036400  1
  H  743  1  0.51284050  0.16509250  0.59660400  1
  H  763  1  0.97476050  0.30878650  0.54381700  1
  H  764  1  0.04987500  0.43465400  0.56108550  1
  H  765  1  0.00822550  0.41769450  0.51726650  1
  H  766  1  0.01629950  0.32529050  0.58789900  1
  H  767  1  0.96647250  0.40001650  0.45498200  1
  H  768  1  0.00214350  0.31632050  0.47326050  1
  H  769  1  0.03167200  0.32634500  0.42212400  1
  H  770  1  0.99576400  0.41034800  0.40367900  1
  H  771  1  0.91694150  0.28866050  0.48051550  1
  H  772  1  0.86229050  0.36591050  0.52687600  1
  H  773  1  0.92635950  0.38642550  0.52356350  1
  H  774  1  0.85295725  0.26841225  0.48211750  1
  H  778  1  0.80467225  0.32451325  0.50625750  1
  H  779  1  0.02343850  0.38505950  0.36047500  1
  H  780  1  0.08628600  0.41290400  0.59762350  1
  H  947  1  0.47441950  0.19333350  0.38130600  1
  H  948  1  0.43078400  0.18452100  0.34009050  1
  H  949  1  0.55128400  0.19529400  0.31176850  1
  H  950  1  0.37130400  0.23148500  0.20583950  1
  H  951  1  0.35810700  0.21138900  0.30551850  1
  H  952  1  0.32224150  0.24665950  0.30858550  1
  H  953  1  0.33456100  0.26587000  0.20894700  1
  H  954  1  0.39998350  0.16054550  0.16374200  1
  H  955  1  0.39349000  0.04043500  0.18788400  1
  H  956  1  0.40239500  0.08253900  0.23047750  1
  H  957  1  0.39048000  0.11810200  0.12126800  1
  H  964  1  0.42163650  0.22044950  0.29451650  1
  H  965  1  0.36598300  0.16779900  0.21230250  1
  H  966  1  0.44913200  0.14097300  0.25011200  1
  H  967  1  0.50790900  0.18722400  0.27031100  1
  H  989  1  0.12895900  0.37731700  0.37958200  1
  H  990  1  0.17192250  0.38622650  0.33765600  1
  H  991  1  0.05242350  0.38038150  0.31176150  1
  H  992  1  0.22323400  0.34185600  0.19721300  1
  H  993  1  0.24382350  0.35728550  0.29668500  1
  H  994  1  0.27869500  0.32092500  0.29429250  1
  H  995  1  0.25890050  0.30634850  0.19485700  1
  H  996  1  0.19756850  0.41467150  0.16110450  1
  H  997  1  0.20964750  0.53597850  0.18773800  1
  H  998  1  0.20082750  0.49308150  0.22975000  1
  H  999  1  0.20709250  0.45782250  0.11931950  1
  H  1006  1  0.17969050  0.35172450  0.28975300  1
  H  1007  1  0.23314350  0.40592950  0.20726300  1
  H  1008  1  0.15377800  0.43471700  0.25023150  1
  H  1009  1  0.09502700  0.38864800  0.26971650  1
  H  1031  1  0.12993500  0.38688200  0.62107000  1
  H  1032  1  0.17285100  0.39533600  0.66287600  1
  H  1033  1  0.04898150  0.37353750  0.68983100  1
  H  1034  1  0.23091700  0.34251200  0.79514250  1
  H  1035  1  0.24420250  0.36445250  0.69573450  1
  H  1036  1  0.28026100  0.32940100  0.69190700  1
  H  1037  1  0.26780950  0.30840550  0.79129600  1
  H  1038  1  0.20462750  0.41259050  0.83881200  1
  H  1039  1  0.20401900  0.53076500  0.81787300  1
  H  1040  1  0.19472100  0.48940100  0.77450550  1
  H  1041  1  0.21491500  0.45447800  0.88184250  1
  H  1048  1  0.18063850  0.35482750  0.70685950  1
  H  1049  1  0.23589000  0.40616500  0.78964500  1
  H  1050  1  0.15076200  0.43128600  0.75382150  1
  H  1051  1  0.09186950  0.38139650  0.73206950  1
  H  1073  1  0.47099000  0.19238800  0.62226250  1
  H  1074  1  0.42888250  0.18398350  0.66487250  1
  H  1075  1  0.55195200  0.20017700  0.68942700  1
  H  1076  1  0.37964750  0.23464450  0.80373550  1
  H  1077  1  0.35885650  0.21744350  0.70441300  1
  H  1078  1  0.32385700  0.25375700  0.70611900  1
  H  1079  1  0.34385300  0.27001700  0.80541250  1
  H  1080  1  0.40291050  0.16255150  0.84152050  1
  H  1081  1  0.39747250  0.04274650  0.81769850  1
  H  1082  1  0.40667050  0.08491550  0.77493000  1
  H  1083  1  0.39260900  0.11995200  0.88387150  1
  H  1090  1  0.42290050  0.22322550  0.71141950  1
  H  1091  1  0.36994900  0.17051800  0.79459900  1
  H  1092  1  0.45106850  0.14289550  0.75345800  1
  H  1093  1  0.50997400  0.19226200  0.73238000  1
  H  1284  1  0.57577300  0.90501200  0.95719650  1
  H  1285  1  0.45007100  0.84158000  0.92886250  1
  H  1286  1  0.46572700  0.87581200  0.97765550  1
  H  1287  1  0.56052700  0.87058100  0.90834850  1
  H  1288  1  0.48053150  0.91131050  0.04270900  1
  H  1289  1  0.56564350  0.87692250  0.02720500  1
  H  1290  1  0.55443700  0.84748700  0.07841900  1
  H  1291  1  0.46903750  0.88213150  0.09408550  1
  H  1292  1  0.59297450  0.96246350  0.02158300  1
  H  1293  1  0.51550000  0.01707700  0.97559500  1
  H  1294  1  0.49615850  0.95308050  0.97664550  1
  H  1295  1  0.61198200  0.02634700  0.02228800  1
  H  1299  1  0.55544800  0.07430000  0.99749400  1
  H  1300  1  0.49495950  0.85597850  0.13868550  1
  H  1301  1  0.47610250  0.83689750  0.87174100  1
  H  1321  1  0.60843450  0.25079350  0.95770000  1
  H  1322  1  0.73420895  0.31348395  0.92916150  1
  H  1323  1  0.71845600  0.28070800  0.97874000  1
  H  1324  1  0.62378350  0.28380650  0.90809450  1
  H  1325  1  0.70370550  0.24667250  0.04405250  1
  H  1326  1  0.61831950  0.28039150  0.02758600  1
  H  1327  1  0.62966350  0.31094850  0.07827700  1
  H  1328  1  0.71534000  0.27695400  0.09487200  1
  H  1329  1  0.59103450  0.19407650  0.02228400  1
  H  1330  1  0.66984750  0.14029550  0.97753800  1
  H  1331  1  0.68887950  0.20424350  0.97890200  1
  H  1332  1  0.57226700  0.13015000  0.02262950  1
  H  1336  1  0.62953000  0.08279100  0.99900900  1
  H  1337  1  0.69060500  0.30414100  0.13858500  1
  H  1338  1  0.70676245  0.31552545  0.87080800  1
  H  1358  1  0.91799700  0.55749800  0.54403100  1
  H  1359  1  0.84062300  0.43234300  0.56157750  1
  H  1360  1  0.88342050  0.44817450  0.51861100  1
  H  1361  1  0.87538533  0.54208267  0.58730250  1
  H  1362  1  0.92711700  0.46520900  0.45651600  1
  H  1363  1  0.89158650  0.54927450  0.47345500  1
  H  1364  1  0.86333800  0.53951300  0.42174750  1
  H  1365  1  0.89908700  0.45514400  0.40460950  1
  H  1366  1  0.97556600  0.57660700  0.48117750  1
  H  1367  1  0.03098750  0.50070250  0.52881050  1
  H  1368  1  0.96686200  0.47987200  0.52583100  1
  H  1369  1  0.03951300  0.59710300  0.48240350  1
  H  1373  1  0.08835000  0.54172000  0.50768750  1
  H  1374  1  0.87281100  0.48187200  0.36036400  1
  H  1375  1  0.80376250  0.45601450  0.59660400  1
  H  1395  1  0.26568250  0.59970850  0.54381700  1
  H  1396  1  0.34079695  0.72557595  0.56108550  1
  H  1397  1  0.29914746  0.70861646  0.51726650  1
  H  1398  1  0.30722150  0.61621250  0.58789900  1
  H  1399  1  0.25739450  0.69093850  0.45498200  1
  H  1400  1  0.29306550  0.60724250  0.47326050  1
  H  1401  1  0.32259400  0.61726700  0.42212400  1
  H  1402  1  0.28668600  0.70127000  0.40367900  1
  H  1403  1  0.20786350  0.57958250  0.48051550  1
  H  1404  1  0.15321250  0.65683250  0.52687600  1
  H  1405  1  0.21728150  0.67734750  0.52356350  1
  H  1406  1  0.14387900  0.55933400  0.48211750  1
  H  1410  1  0.09559400  0.61543500  0.50625750  1
  H  1411  1  0.31436050  0.67598150  0.36047500  1
  H  1412  1  0.37720795  0.70382595  0.59762350  1
  H  1579  1  0.76534150  0.48425550  0.38130600  1
  H  1580  1  0.72170595  0.47544295  0.34009050  1
  H  1581  1  0.84220600  0.48621600  0.31176850  1
  H  1582  1  0.66222595  0.52240695  0.20583950  1
  H  1583  1  0.64902895  0.50231095  0.30551850  1
  H  1584  1  0.61316345  0.53758145  0.30858550  1
  H  1585  1  0.62548295  0.55679195  0.20894700  1
  H  1586  1  0.69090545  0.45146745  0.16374200  1
  H  1587  1  0.68441196  0.33135696  0.18788400  1
  H  1588  1  0.69331695  0.37346095  0.23047750  1
  H  1589  1  0.68140195  0.40902395  0.12126800  1
  H  1596  1  0.71255850  0.51137150  0.29451650  1
  H  1597  1  0.65690495  0.45872095  0.21230250  1
  H  1598  1  0.74005395  0.43189495  0.25011200  1
  H  1599  1  0.79883100  0.47814600  0.27031100  1
  H  1621  1  0.41988095  0.66823895  0.37958200  1
  H  1622  1  0.46284445  0.67714845  0.33765600  1
  H  1623  1  0.34334546  0.67130346  0.31176150  1
  H  1624  1  0.51415595  0.63277795  0.19721300  1
  H  1625  1  0.53474545  0.64820745  0.29668500  1
  H  1626  1  0.56961695  0.61184695  0.29429250  1
  H  1627  1  0.54982245  0.59727045  0.19485700  1
  H  1628  1  0.48849045  0.70559345  0.16110450  1
  H  1629  1  0.50056950  0.82690050  0.18773800  1
  H  1630  1  0.49174950  0.78400350  0.22975000  1
  H  1631  1  0.49801450  0.74874450  0.11931950  1
  H  1638  1  0.47061245  0.64264645  0.28975300  1
  H  1639  1  0.52406550  0.69685150  0.20726300  1
  H  1640  1  0.44469995  0.72563895  0.25023150  1
  H  1641  1  0.38594895  0.67956995  0.26971650  1
  H  1663  1  0.42085695  0.67780395  0.62107000  1
  H  1664  1  0.46377295  0.68625795  0.66287600  1
  H  1665  1  0.33990346  0.66445946  0.68983100  1
  H  1666  1  0.52183895  0.63343395  0.79514250  1
  H  1667  1  0.53512445  0.65537445  0.69573450  1
  H  1668  1  0.57118295  0.62032295  0.69190700  1
  H  1669  1  0.55873145  0.59932745  0.79129600  1
  H  1670  1  0.49554945  0.70351245  0.83881200  1
  H  1671  1  0.49494100  0.82168700  0.81787300  1
  H  1672  1  0.48564300  0.78032300  0.77450550  1
  H  1673  1  0.50583700  0.74540000  0.88184250  1
  H  1680  1  0.47156045  0.64574945  0.70685950  1
  H  1681  1  0.52681200  0.69708700  0.78964500  1
  H  1682  1  0.44168395  0.72220795  0.75382150  1
  H  1683  1  0.38279145  0.67231845  0.73206950  1
  H  1705  1  0.76191200  0.48331000  0.62226250  1
  H  1706  1  0.71980445  0.47490545  0.66487250  1
  H  1707  1  0.84287400  0.49109900  0.68942700  1
  H  1708  1  0.67056945  0.52556645  0.80373550  1
  H  1709  1  0.64977845  0.50836545  0.70441300  1
  H  1710  1  0.61477895  0.54467895  0.70611900  1
  H  1711  1  0.63477495  0.56093895  0.80541250  1
  H  1712  1  0.69383245  0.45347345  0.84152050  1
  H  1713  1  0.68839445  0.33366845  0.81769850  1
  H  1714  1  0.69759245  0.37583745  0.77493000  1
  H  1715  1  0.68353095  0.41087395  0.88387150  1
  H  1722  1  0.71382250  0.51414750  0.71141950  1
  H  1723  1  0.66087095  0.46143995  0.79459900  1
  H  1724  1  0.74199045  0.43381745  0.75345800  1
  H  1725  1  0.80089600  0.48318400  0.73238000  1
  N  1  1  0.94933400  0.33219200  0.00020200  1
  N  38  1  0.07104550  0.66103750  0.00138250  1
  N  75  1  0.34571600  0.93165900  0.50051750  1
  N  112  1  0.67439600  0.06088500  0.49933450  1
  N  336  1  0.09517300  0.76251500  0.12535150  1
  N  337  1  0.01391300  0.98774900  0.26257400  1
  N  338  1  0.24854700  0.90931200  0.37499350  1
  N  378  1  0.92369600  0.23225100  0.12474100  1
  N  379  1  0.00079550  0.99965450  0.24111100  1
  N  380  1  0.77353350  0.08223050  0.37455700  1
  N  420  1  0.92506000  0.22742300  0.87903300  1
  N  421  1  0.00676250  0.00570350  0.73738750  1
  N  422  1  0.77010650  0.08350650  0.62866300  1
  N  462  1  0.09736650  0.76430850  0.87959400  1
  N  463  1  0.01998700  0.99393600  0.75886200  1
  N  464  1  0.24856050  0.91082450  0.62870650  1
  N  633  1  0.24025500  0.62311300  0.00020200  1
  N  670  1  0.36196650  0.95195850  0.00138250  1
  N  707  1  0.63663700  0.22258000  0.50051750  1
  N  744  1  0.96531700  0.35180600  0.49933450  1
  N  968  1  0.38609400  0.05343600  0.12535150  1
  N  969  1  0.30483400  0.27867000  0.26257400  1
  N  970  1  0.53946800  0.20023300  0.37499350  1
  N  1010  1  0.21461700  0.52317200  0.12474100  1
  N  1011  1  0.29171650  0.29057550  0.24111100  1
  N  1012  1  0.06445450  0.37315150  0.37455700  1
  N  1052  1  0.21598100  0.51834400  0.87903300  1
  N  1053  1  0.29768350  0.29662450  0.73738750  1
  N  1054  1  0.06102750  0.37442750  0.62866300  1
  N  1094  1  0.38828750  0.05522950  0.87959400  1
  N  1095  1  0.31090800  0.28485700  0.75886200  1
  N  1096  1  0.53948150  0.20174550  0.62870650  1
  N  1265  1  0.53117700  0.91403500  0.00020200  1
  N  1302  1  0.65288850  0.24288050  0.00138250  1
  N  1339  1  0.92755900  0.51350200  0.50051750  1
  N  1376  1  0.25623900  0.64272800  0.49933450  1
  N  1600  1  0.67701595  0.34435795  0.12535150  1
  N  1601  1  0.59575595  0.56959195  0.26257400  1
  N  1602  1  0.83039000  0.49115500  0.37499350  1
  N  1642  1  0.50553900  0.81409400  0.12474100  1
  N  1643  1  0.58263845  0.58149745  0.24111100  1
  N  1644  1  0.35537646  0.66407346  0.37455700  1
  N  1684  1  0.50690300  0.80926600  0.87903300  1
  N  1685  1  0.58860545  0.58754645  0.73738750  1
  N  1686  1  0.35194946  0.66534946  0.62866300  1
  N  1726  1  0.67920945  0.34615145  0.87959400  1
  N  1727  1  0.60182995  0.57577895  0.75886200  1
  N  1728  1  0.83040350  0.49266750  0.62870650  1
